# generated using pymatgen
data_V85Zn86O256
_symmetry_space_group_name_H-M   'P 1'
_cell_length_a   16.96957486
_cell_length_b   16.95129317
_cell_length_c   16.96278942
_cell_angle_alpha   90.00253411
_cell_angle_beta   89.96799303
_cell_angle_gamma   90.08908140
_symmetry_Int_Tables_number   1
_chemical_formula_structural   V85Zn86O256
_chemical_formula_sum   'V85 Zn86 O256'
_cell_volume   4879.44553312
_cell_formula_units_Z   1
loop_
 _symmetry_equiv_pos_site_id
 _symmetry_equiv_pos_as_xyz
  1  'x, y, z'
loop_
 _atom_site_type_symbol
 _atom_site_label
 _atom_site_symmetry_multiplicity
 _atom_site_fract_x
 _atom_site_fract_y
 _atom_site_fract_z
 _atom_site_occupancy
  V  V0  1  0.87441106  0.63205480  0.24218358  1
  V  V1  1  0.11008367  0.37696153  0.26422967  1
  V  V2  1  0.87662218  0.50523570  0.86982778  1
  V  V3  1  0.75224002  0.37424732  0.13099745  1
  V  V4  1  0.37597710  0.87574743  0.48560644  1
  V  V5  1  0.12345720  0.50265057  0.12901364  1
  V  V6  1  0.37612722  -0.00207746  0.87825093  1
  V  V7  1  0.50358892  -0.00434988  0.48931593  1
  V  V8  1  0.25011217  -0.00142324  0.75086802  1
  V  V9  1  0.75116425  0.50277306  0.24971886  1
  V  V10  1  0.62820294  -0.00443289  0.63310430  1
  V  V11  1  0.49724554  0.37566708  0.87733971  1
  V  V12  1  0.25162310  0.62730450  0.87640912  1
  V  V13  1  0.24683595  0.61149951  0.37515998  1
  V  V14  1  0.87112884  -0.00109324  0.36101011  1
  V  V15  1  0.49539369  0.13786830  0.12675220  1
  V  V16  1  0.75373232  0.37626847  0.61709061  1
  V  V17  1  0.12681040  0.75170013  0.87530457  1
  V  V18  1  0.62472626  0.62855932  -0.00262670  1
  V  V19  1  0.00163345  -0.00298336  0.49869122  1
  V  V20  1  0.37936666  0.49276779  0.37815066  1
  V  V21  1  0.25043512  0.12855690  0.88347271  1
  V  V22  1  0.50447426  -0.00265689  0.01065068  1
  V  V23  1  0.37389360  0.87281221  0.00873062  1
  V  V24  1  0.61431018  0.75497061  0.37139415  1
  V  V25  1  0.00387809  0.63001920  0.61356341  1
  V  V26  1  0.25139360  0.50223424  0.74918515  1
  V  V27  1  0.37171442  0.61563421  0.25033569  1
  V  V28  1  0.12955381  0.25316925  0.88084060  1
  V  V29  1  0.86861702  0.74824894  0.63147204  1
  V  V30  1  0.62679110  0.75557730  0.86493256  1
  V  V31  1  0.50364610  0.87770843  0.86741028  1
  V  V32  1  0.63712889  0.12279238  0.50258765  1
  V  V33  1  0.13127425  -0.00779018  0.11921726  1
  V  V34  1  0.24970366  0.75101050  0.01024998  1
  V  V35  1  0.25029954  0.87345926  0.62357519  1
  V  V36  1  0.61769674  0.88761083  0.24925170  1
  V  V37  1  -0.00045007  0.37693737  0.87371466  1
  V  V38  1  0.74502786  0.87910182  0.13254226  1
  V  V39  1  0.62653548  0.11968751  0.00511741  1
  V  V40  1  0.00115055  0.12356424  0.62866921  1
  V  V41  1  0.24243397  0.37125661  0.13650539  1
  V  V42  1  0.74956288  0.12260691  0.87121951  1
  V  V43  1  0.26166389  0.37229350  0.61502942  1
  V  V44  1  0.37498365  0.75129640  0.62502638  1
  V  V45  1  0.61164167  0.37222837  0.25465548  1
  V  V46  1  0.24436617  0.74252449  0.49918640  1
  V  V47  1  0.75048175  0.25118303  -0.00149697  1
  V  V48  1  -0.00306856  0.11789686  0.13316235  1
  V  V49  1  0.11518005  0.12225924  -0.00150986  1
  V  V50  1  0.49607583  0.24914369  0.74619498  1
  V  V51  1  0.87353019  0.87630226  0.50539498  1
  V  V52  1  0.47484628  0.13558406  0.60712385  1
  V  V53  1  0.49437417  0.49975667  0.00079127  1
  V  V54  1  0.13979427  0.87344963  0.24927482  1
  V  V55  1  0.87386340  0.49776057  0.38401694  1
  V  V56  1  0.75241261  0.12149766  0.35567315  1
  V  V57  1  0.62656426  0.50233611  0.12373674  1
  V  V58  1  0.87853886  0.86835998  0.00944697  1
  V  V59  1  0.50070176  0.62459766  0.62451845  1
  V  V60  1  0.12698990  0.37700446  0.74502124  1
  V  V61  1  0.12736644  0.13783544  0.48525541  1
  V  V62  1  0.37160978  0.12695657  0.75079206  1
  V  V63  1  0.88023206  0.24483455  0.12987047  1
  V  V64  1  0.87486559  0.37602985  -0.00133103  1
  V  V65  1  0.12345246  0.74280734  0.37575642  1
  V  V66  1  0.74911963  0.63228747  0.37320307  1
  V  V67  1  0.87734592  -0.00069738  0.88045845  1
  V  V68  1  0.49751584  0.62702461  0.12626630  1
  V  V69  1  0.36140281  0.36504667  0.00415799  1
  V  V70  1  -0.00297558  0.74273733  0.75242124  1
  V  V71  1  -0.00078949  0.75234358  0.24175200  1
  V  V72  1  0.75229217  0.50232631  0.74935617  1
  V  V73  1  0.49818641  0.48449827  0.49969440  1
  V  V74  1  0.00298115  0.48924934  0.49916878  1
  V  V75  1  0.87465447  0.25360349  0.62408074  1
  V  V76  1  -0.00005424  0.25017697  0.75116256  1
  V  V77  1  0.00154167  0.88006123  0.87772179  1
  V  V78  1  0.12453924  -0.00066031  0.62324354  1
  V  V79  1  0.62499946  0.37567312  0.75064748  1
  V  V80  1  0.75224520  0.62735751  0.86647933  1
  V  V81  1  0.74765406  0.75801282  0.50356200  1
  V  V82  1  0.62280492  0.62692491  0.49974312  1
  V  V83  1  0.62501377  0.25013582  0.87518706  1
  V  V84  1  0.62565068  0.50266156  0.62483585  1
  Zn  Zn85  1  0.12233934  0.62427172  0.00085960  1
  Zn  Zn86  1  0.87426853  0.12091210  0.75169269  1
  Zn  Zn87  1  -0.00537514  0.62682132  0.12020427  1
  Zn  Zn88  1  0.75400730  0.74738941  0.00492594  1
  Zn  Zn89  1  0.50152925  0.75503519  0.74633605  1
  Zn  Zn90  1  0.37147794  0.75117675  0.13072594  1
  Zn  Zn91  1  0.63079040  0.25446500  0.37442588  1
  Zn  Zn92  1  0.32761067  0.20947128  0.16469691  1
  Zn  Zn93  1  1.00284601  0.24038656  0.27486049  1
  Zn  Zn94  1  0.37617637  0.62633218  0.75003623  1
  Zn  Zn95  1  0.49744894  0.75219636  0.25163822  1
  Zn  Zn96  1  0.25452286  0.02618042  0.25508420  1
  Zn  Zn97  1  0.37199297  0.02669247  0.36568053  1
  Zn  Zn98  1  0.75490754  0.25017370  0.49638184  1
  Zn  Zn99  1  0.28899985  0.22648651  0.51854637  1
  Zn  Zn100  1  0.46153504  0.21751316  0.29020184  1
  Zn  Zn101  1  0.00201478  0.87322147  0.37246574  1
  Zn  Zn102  1  0.37270847  0.50065804  0.87692057  1
  Zn  Zn103  1  0.13156398  0.50644597  0.61464149  1
  Zn  Zn104  1  0.12355051  0.87475945  0.74859393  1
  Zn  Zn105  1  0.75012600  -0.01436693  0.75113271  1
  Zn  Zn106  1  -0.00025338  0.50393631  -0.00055707  1
  Zn  Zn107  1  0.16621557  0.19548644  0.18620993  1
  Zn  Zn108  1  0.18788800  0.19013437  0.68655786  1
  Zn  Zn109  1  0.18756146  0.68229365  0.19323753  1
  Zn  Zn110  1  0.18444403  0.68745191  0.68897127  1
  Zn  Zn111  1  0.68492287  0.19042663  0.18426073  1
  Zn  Zn112  1  0.68443059  0.18503927  0.68615088  1
  Zn  Zn113  1  0.68847836  0.69657030  0.18494073  1
  Zn  Zn114  1  0.68693182  0.81584414  0.68613850  1
  Zn  Zn115  1  0.29561187  0.19906559  0.33065104  1
  Zn  Zn116  1  0.31277851  0.31387983  0.81179094  1
  Zn  Zn117  1  0.31271968  0.80324332  0.31088418  1
  Zn  Zn118  1  0.31513702  0.81402414  0.81392333  1
  Zn  Zn119  1  0.84819480  0.29237987  0.33816602  1
  Zn  Zn120  1  0.81301476  0.31335760  0.80778518  1
  Zn  Zn121  1  0.81172854  0.81628124  0.31205870  1
  Zn  Zn122  1  0.81649347  0.81124139  0.81868483  1
  Zn  Zn123  1  0.24223795  0.37218673  0.40224113  1
  Zn  Zn124  1  0.18430510  0.44260348  0.93842777  1
  Zn  Zn125  1  0.19366666  0.93878919  0.42919671  1
  Zn  Zn126  1  0.18996025  0.93639144  0.93970390  1
  Zn  Zn127  1  0.68932493  0.44150659  0.43627832  1
  Zn  Zn128  1  0.68765902  0.43963974  0.93800176  1
  Zn  Zn129  1  0.68777259  0.93807169  0.43376254  1
  Zn  Zn130  1  0.69167763  0.93586030  0.94058653  1
  Zn  Zn131  1  0.31172463  0.05960626  0.06161118  1
  Zn  Zn132  1  0.31003083  0.05434808  0.55458102  1
  Zn  Zn133  1  0.30888131  0.55701590  0.06466464  1
  Zn  Zn134  1  0.31345962  0.56020152  0.56022009  1
  Zn  Zn135  1  0.81366095  0.05753657  0.06085434  1
  Zn  Zn136  1  0.81403072  0.05917502  0.56684130  1
  Zn  Zn137  1  0.81207555  0.56282122  0.05762085  1
  Zn  Zn138  1  0.81233680  0.57124897  0.56429625  1
  Zn  Zn139  1  0.39575595  0.38524358  0.23304443  1
  Zn  Zn140  1  0.43527377  0.43854183  0.68769386  1
  Zn  Zn141  1  0.43579856  0.94270044  0.19232010  1
  Zn  Zn142  1  0.43800741  0.94398861  0.68167984  1
  Zn  Zn143  1  0.93662341  0.44155293  0.18949733  1
  Zn  Zn144  1  0.93786907  0.44153606  0.68526866  1
  Zn  Zn145  1  0.94744607  0.93403466  0.18332113  1
  Zn  Zn146  1  0.93442224  0.93379722  0.69246454  1
  Zn  Zn147  1  0.06494091  0.05490736  0.31057425  1
  Zn  Zn148  1  0.06424703  0.06103528  0.81155733  1
  Zn  Zn149  1  0.05847760  0.56014143  0.31302801  1
  Zn  Zn150  1  0.06436425  0.56535598  0.80957945  1
  Zn  Zn151  1  0.56504287  0.06683275  0.31313213  1
  Zn  Zn152  1  0.55899991  0.06453688  0.81282635  1
  Zn  Zn153  1  0.56032105  0.55862714  0.31149217  1
  Zn  Zn154  1  0.56269738  0.56528962  0.81107153  1
  Zn  Zn155  1  0.45273457  0.19729458  0.44493083  1
  Zn  Zn156  1  0.43826662  0.18862482  0.93999077  1
  Zn  Zn157  1  0.43347807  0.68288138  0.44014401  1
  Zn  Zn158  1  0.43716096  0.69095076  0.93626734  1
  Zn  Zn159  1  0.93574627  0.17890860  0.44341801  1
  Zn  Zn160  1  0.93771414  0.18872668  0.93970364  1
  Zn  Zn161  1  0.93461582  0.69013304  0.43335469  1
  Zn  Zn162  1  0.93876729  0.68784707  0.93787361  1
  Zn  Zn163  1  0.06084617  0.31265602  0.06261863  1
  Zn  Zn164  1  0.06335669  0.31568439  0.56261652  1
  Zn  Zn165  1  0.06278627  0.81291079  0.06081115  1
  Zn  Zn166  1  0.06290621  0.81247948  0.56079569  1
  Zn  Zn167  1  0.56427051  0.31633334  0.06240205  1
  Zn  Zn168  1  0.57066971  0.30840254  0.56226175  1
  Zn  Zn169  1  0.56458536  0.81250494  0.06287248  1
  Zn  Zn170  1  0.55814649  0.81474313  0.55806323  1
  O  O171  1  0.11518560  0.11857995  0.11459644  1
  O  O172  1  0.11292076  0.12027039  0.62465569  1
  O  O173  1  0.12486651  0.61153503  0.12636063  1
  O  O174  1  0.10853254  0.62452782  0.62762855  1
  O  O175  1  0.61775424  0.13002636  0.10998043  1
  O  O176  1  0.62093436  0.11464411  0.61776587  1
  O  O177  1  0.62031593  0.62274826  0.11645226  1
  O  O178  1  0.61476548  0.61757398  0.61568203  1
  O  O179  1  0.36087569  0.39547845  0.36729604  1
  O  O180  1  0.37972575  0.37670161  0.88635450  1
  O  O181  1  0.37385426  0.86327710  0.38644097  1
  O  O182  1  0.38437389  0.87819835  0.88583920  1
  O  O183  1  0.85269216  0.40177963  0.37577331  1
  O  O184  1  0.87856424  0.38149986  0.87896123  1
  O  O185  1  0.87535207  0.88400035  0.38664633  1
  O  O186  1  0.88388242  0.88040848  0.88476326  1
  O  O187  1  0.25585039  0.00844045  0.37137764  1
  O  O188  1  0.25530587  0.00717040  0.87066434  1
  O  O189  1  0.26105876  0.51053175  0.38622028  1
  O  O190  1  0.24937378  0.51003930  0.86827004  1
  O  O191  1  0.76390237  0.00347807  0.37558026  1
  O  O192  1  0.75725714  0.00773328  0.87480261  1
  O  O193  1  0.75432094  0.51813114  0.37362632  1
  O  O194  1  0.75678364  0.50525990  0.87044434  1
  O  O195  1  0.23167928  0.48833166  0.11781528  1
  O  O196  1  0.24838174  0.49747609  0.63400876  1
  O  O197  1  0.23357290  1.00885743  0.12829556  1
  O  O198  1  0.24391950  0.99114571  0.62900463  1
  O  O199  1  0.74562958  0.49444902  0.12667981  1
  O  O200  1  0.74837364  0.49677892  0.63025625  1
  O  O201  1  0.75204392  0.97954111  0.11606550  1
  O  O202  1  0.73343797  1.00269033  0.63026636  1
  O  O203  1  0.00750760  0.38194295  0.25684336  1
  O  O204  1  0.00875955  0.37299289  0.75349130  1
  O  O205  1  0.01151015  0.86675745  0.25218080  1
  O  O206  1  0.00138943  0.86384957  0.75933272  1
  O  O207  1  0.51424422  0.38594740  0.24386162  1
  O  O208  1  0.50291008  0.36845658  0.75481984  1
  O  O209  1  0.51440624  0.87049575  0.24009279  1
  O  O210  1  0.49319334  0.87930755  0.76418852  1
  O  O211  1  0.51128889  0.12771207  0.23008601  1
  O  O212  1  0.48914454  0.13215400  0.74364657  1
  O  O213  1  0.49501573  0.62371795  0.23965537  1
  O  O214  1  0.49772369  0.62609768  0.73656421  1
  O  O215  1  1.00639684  0.12537913  0.23735821  1
  O  O216  1  1.00010820  0.13088448  0.74448975  1
  O  O217  1  0.98978831  0.63239454  0.24865065  1
  O  O218  1  1.00176753  0.63725618  0.74162488  1
  O  O219  1  0.37783528  0.26660868  0.00022700  1
  O  O220  1  0.40058146  0.19164994  0.54400557  1
  O  O221  1  0.36703512  0.75620676  0.00163157  1
  O  O222  1  0.36870424  0.75485802  0.50962023  1
  O  O223  1  0.86851996  0.25892159  0.00339712  1
  O  O224  1  0.87069832  0.24175252  0.52118414  1
  O  O225  1  0.87372590  0.76503550  -0.00544016  1
  O  O226  1  0.86667579  0.75746010  0.50448110  1
  O  O227  1  0.11428384  0.23604357  0.50063807  1
  O  O228  1  0.11998752  0.24301204  0.98561744  1
  O  O229  1  0.13396082  0.75357950  0.49023027  1
  O  O230  1  0.13336474  0.74992496  0.99282990  1
  O  O231  1  0.63624914  0.23719431  0.50209298  1
  O  O232  1  0.63134398  0.24521335  0.99294581  1
  O  O233  1  0.63119724  0.74965652  0.49358505  1
  O  O234  1  0.62291308  0.73806571  0.99143857  1
  O  O235  1  0.50185634  0.23702005  0.11650385  1
  O  O236  1  0.51195261  0.24090307  0.63941174  1
  O  O237  1  0.49798079  0.73515754  0.12083106  1
  O  O238  1  0.49230092  0.74384983  0.62450747  1
  O  O239  1  0.99245665  0.23773406  0.11851838  1
  O  O240  1  0.99476590  0.24380051  0.63190533  1
  O  O241  1  1.00592426  0.74724278  0.13759067  1
  O  O242  1  0.99559919  0.74342729  0.63038060  1
  O  O243  1  -0.04782972  0.25855164  0.37074502  1
  O  O244  1  0.00634253  0.25647314  0.86879248  1
  O  O245  1  0.00918427  0.74993934  0.36751397  1
  O  O246  1  0.00557148  0.75634895  0.86843511  1
  O  O247  1  0.51733314  0.25825852  0.37841507  1
  O  O248  1  0.50468312  0.25428175  0.86584710  1
  O  O249  1  0.51224708  0.74388169  0.37817247  1
  O  O250  1  0.50705876  0.75930997  0.87196260  1
  O  O251  1  0.22905164  0.12232057  0.51144062  1
  O  O252  1  0.24154639  0.12168477  0.98748897  1
  O  O253  1  0.25404539  0.63624107  0.49419584  1
  O  O254  1  0.24895472  0.63164956  0.99186400  1
  O  O255  1  0.74405448  0.11967019  0.49851529  1
  O  O256  1  0.74349719  0.12814978  0.99057827  1
  O  O257  1  0.74412407  0.63848395  0.49326339  1
  O  O258  1  0.74030668  0.62523902  0.99064716  1
  O  O259  1  0.25979989  0.37729289  -0.00334048  1
  O  O260  1  0.24421615  0.39161651  0.51934513  1
  O  O261  1  0.26152813  0.86423107  -0.00506856  1
  O  O262  1  0.25669827  0.86485415  0.50486899  1
  O  O263  1  0.75439254  0.37301667  0.00861554  1
  O  O264  1  0.74521909  0.37525751  0.51419727  1
  O  O265  1  0.76274861  0.87108560  0.00538821  1
  O  O266  1  0.75693910  0.86568824  0.49624257  1
  O  O267  1  0.11830586  0.49201567  0.23714221  1
  O  O268  1  0.13511049  0.49352655  0.74832506  1
  O  O269  1  0.13116969  0.99036883  0.24071104  1
  O  O270  1  0.13239254  0.99758725  0.74230958  1
  O  O271  1  0.63335992  0.49615864  0.24339733  1
  O  O272  1  0.63019444  0.49559986  0.74407470  1
  O  O273  1  0.62185697  0.98595413  0.25324379  1
  O  O274  1  0.62086863  1.00607207  0.73539509  1
  O  O275  1  0.36546491  -0.00472467  0.25493745  1
  O  O276  1  0.37015430  0.00276180  0.76234464  1
  O  O277  1  0.38141305  0.50693694  0.26444910  1
  O  O278  1  0.36315174  0.50202571  0.75464910  1
  O  O279  1  0.88199026  -0.01051256  0.26350706  1
  O  O280  1  0.87250002  0.00061332  0.76376360  1
  O  O281  1  0.86935897  0.51134579  0.26051568  1
  O  O282  1  0.86879522  0.49634248  0.76236208  1
  O  O283  1  0.13266620  0.38823069  0.36021573  1
  O  O284  1  0.12281751  0.36960368  0.86597285  1
  O  O285  1  0.12645507  0.86282283  0.36625239  1
  O  O286  1  0.11711841  0.87051247  0.87582527  1
  O  O287  1  0.63628980  0.38008565  0.35626645  1
  O  O288  1  0.61754312  0.37100819  0.87124832  1
  O  O289  1  0.63142488  0.86756924  0.35973848  1
  O  O290  1  0.61641815  0.86595801  0.88464724  1
  O  O291  1  0.38983089  0.12821306  0.11279874  1
  O  O292  1  0.37326705  0.09855433  0.64777187  1
  O  O293  1  0.38112033  0.61961848  0.13272185  1
  O  O294  1  0.38177658  0.63394222  0.62445729  1
  O  O295  1  0.88669303  0.13051730  0.11097639  1
  O  O296  1  0.88667153  0.12729998  0.63041841  1
  O  O297  1  0.87148423  0.62088243  0.13812637  1
  O  O298  1  0.88415261  0.64139578  0.62319966  1
  O  O299  1  0.23607134  0.26801056  0.11740501  1
  O  O300  1  0.24709852  0.26524230  0.62212508  1
  O  O301  1  0.25014498  0.74172516  0.11300455  1
  O  O302  1  0.25429354  0.75247969  0.61849763  1
  O  O303  1  0.75562359  0.25726366  0.11640148  1
  O  O304  1  0.75700378  0.25994370  0.63157410  1
  O  O305  1  0.74871614  0.76767023  0.11917719  1
  O  O306  1  0.75632762  0.75096726  0.61623183  1
  O  O307  1  0.26569544  0.26273275  0.41568432  1
  O  O308  1  0.24037941  0.24107129  0.86732849  1
  O  O309  1  0.24316646  0.73888201  0.38270805  1
  O  O310  1  0.24578622  0.74461698  0.88023652  1
  O  O311  1  0.75383727  0.23616273  0.37741920  1
  O  O312  1  0.74632453  0.24416622  0.87920644  1
  O  O313  1  0.74316327  0.74479217  0.38053261  1
  O  O314  1  0.74282989  0.74158720  0.87978035  1
  O  O315  1  0.01198595  0.12315300  -0.00062369  1
  O  O316  1  0.00752742  0.11532163  0.50901697  1
  O  O317  1  0.00337430  0.62380100  0.00321095  1
  O  O318  1  -0.00435125  0.62923368  0.51194127  1
  O  O319  1  0.50789613  0.11857081  0.00295325  1
  O  O320  1  0.51997256  0.11450325  0.50417340  1
  O  O321  1  0.50445348  0.61932133  0.00155443  1
  O  O322  1  0.50372688  0.62022688  0.51022092  1
  O  O323  1  0.50526185  0.38567908  0.51029494  1
  O  O324  1  0.49134297  0.38336044  0.99892197  1
  O  O325  1  0.48884108  0.88479635  0.50276149  1
  O  O326  1  0.49687066  0.88197205  0.99401106  1
  O  O327  1  0.99286509  0.39084326  0.51194316  1
  O  O328  1  0.99176669  0.37640713  0.99048546  1
  O  O329  1  0.99306470  0.88060619  0.49637323  1
  O  O330  1  0.98888948  0.87088842  0.99269985  1
  O  O331  1  0.48897000  0.50289288  0.38494855  1
  O  O332  1  0.49937776  0.49609865  0.88506728  1
  O  O333  1  0.50138992  1.00511256  0.38720266  1
  O  O334  1  0.49502239  0.99581340  0.88368016  1
  O  O335  1  0.98471859  0.50787524  0.38842268  1
  O  O336  1  0.99279864  0.49610961  0.87223399  1
  O  O337  1  0.99001277  0.99733192  0.38335206  1
  O  O338  1  0.99525378  0.98759420  0.87010693  1
  O  O339  1  0.01487153  0.00696256  0.12553206  1
  O  O340  1  0.00282485  0.00498007  0.62080167  1
  O  O341  1  0.00934697  0.50200494  0.12199334  1
  O  O342  1  -0.00785043  0.51596523  0.61483623  1
  O  O343  1  0.49800085  0.01027300  0.11248738  1
  O  O344  1  0.50475176  0.01298318  0.61428016  1
  O  O345  1  0.50917964  0.51244722  0.10968294  1
  O  O346  1  0.50272634  0.50663642  0.61991074  1
  O  O347  1  0.23618615  0.37747253  0.23581707  1
  O  O348  1  0.24414902  0.38277343  0.74439894  1
  O  O349  1  0.23919714  0.86121411  0.24533017  1
  O  O350  1  0.24978928  0.88085367  0.74352345  1
  O  O351  1  0.74910785  0.38475169  0.23503684  1
  O  O352  1  0.74280613  0.38446785  0.74583155  1
  O  O353  1  0.74159446  0.87231965  0.23926698  1
  O  O354  1  0.74836085  0.87333483  0.75767987  1
  O  O355  1  0.25303885  0.14603895  0.23867120  1
  O  O356  1  0.25413176  0.12056640  0.75871731  1
  O  O357  1  0.25998851  0.62417906  0.26118055  1
  O  O358  1  0.25052040  0.61870807  0.75616994  1
  O  O359  1  0.74413558  0.12452172  0.25633735  1
  O  O360  1  0.74929758  0.12427496  0.76399400  1
  O  O361  1  0.75314641  0.62481067  0.25622137  1
  O  O362  1  0.74554593  0.61484441  0.76503574  1
  O  O363  1  0.39233809  0.14205871  0.36373634  1
  O  O364  1  0.36832846  0.12088409  0.87084482  1
  O  O365  1  0.36801188  0.61913047  0.36881784  1
  O  O366  1  0.36354801  0.62645480  0.87168854  1
  O  O367  1  0.86637580  0.10523624  0.38016886  1
  O  O368  1  0.86793876  0.11724536  0.87777320  1
  O  O369  1  0.86486628  0.62339913  0.36636479  1
  O  O370  1  0.86547787  0.61646319  0.88040797  1
  O  O371  1  0.12670586  0.38370693  0.12725045  1
  O  O372  1  0.12884198  0.38000540  0.63670571  1
  O  O373  1  0.12252865  0.88708455  0.12805609  1
  O  O374  1  0.13224849  0.88022773  0.62503879  1
  O  O375  1  0.63300074  0.38297601  0.12956650  1
  O  O376  1  0.63376001  0.38176905  0.63287273  1
  O  O377  1  0.63397934  0.87291359  0.13578413  1
  O  O378  1  0.61710696  0.88907283  0.62518658  1
  O  O379  1  0.11120556  0.27017286  0.24935363  1
  O  O380  1  0.11977703  0.25798581  0.75767821  1
  O  O381  1  0.11878553  0.75353568  0.25594084  1
  O  O382  1  0.11815290  0.75339779  0.75853480  1
  O  O383  1  0.62845522  0.26946031  0.24584667  1
  O  O384  1  0.61856825  0.25462348  0.75725296  1
  O  O385  1  0.62063289  0.75563314  0.25836910  1
  O  O386  1  0.62100574  0.75075286  0.76154926  1
  O  O387  1  0.37429467  0.27247376  0.24588677  1
  O  O388  1  0.38322001  0.23961259  0.75406609  1
  O  O389  1  0.38022483  0.73387555  0.24787139  1
  O  O390  1  0.37604043  0.75056292  0.73592670  1
  O  O391  1  0.87462854  0.25232844  0.22985277  1
  O  O392  1  0.88266224  0.24541527  0.74413484  1
  O  O393  1  0.88539061  0.74442048  0.25816540  1
  O  O394  1  0.88374503  0.75433494  0.74177663  1
  O  O395  1  0.38563713  0.50523187  0.48850609  1
  O  O396  1  0.38171818  0.49222589  0.99841213  1
  O  O397  1  0.38432753  0.99227522  0.49345801  1
  O  O398  1  0.38149623  0.99211522  0.99606757  1
  O  O399  1  0.87841755  0.51301616  0.48918931  1
  O  O400  1  0.87471390  0.49230129  0.98770198  1
  O  O401  1  0.88510073  0.99198079  0.50182777  1
  O  O402  1  0.87396449  0.98743424  0.98697246  1
  O  O403  1  0.12950021  0.00589412  0.01030600  1
  O  O404  1  0.11289064  0.00111290  0.50337092  1
  O  O405  1  0.11953316  0.50172344  0.01102534  1
  O  O406  1  0.10152057  0.50274572  0.50077526  1
  O  O407  1  0.61685415  0.00918742  -0.00700147  1
  O  O408  1  0.62121224  0.00082534  0.50785191  1
  O  O409  1  0.61865562  0.51116876  0.00111724  1
  O  O410  1  0.61846522  0.50626736  0.50424187  1
  O  O411  1  0.35168457  0.38335115  0.11688092  1
  O  O412  1  0.36108104  0.37723236  0.62645860  1
  O  O413  1  0.38467382  0.87079986  0.11171538  1
  O  O414  1  0.36911067  0.86936506  0.61754873  1
  O  O415  1  0.87012317  0.37144000  0.11749721  1
  O  O416  1  0.86489058  0.36694670  0.63542616  1
  O  O417  1  0.87230585  0.87841419  0.11326598  1
  O  O418  1  0.88194438  0.86410887  0.61339936  1
  O  O419  1  0.11685386  0.12509228  0.38665052  1
  O  O420  1  0.13079378  0.13077405  0.87951349  1
  O  O421  1  0.13218536  0.63353802  0.36688944  1
  O  O422  1  0.13601764  0.63245649  0.87512939  1
  O  O423  1  0.63942783  0.12247638  0.38335739  1
  O  O424  1  0.63070071  0.13003612  0.88194643  1
  O  O425  1  0.63138253  0.63186520  0.37909776  1
  O  O426  1  0.62991324  0.63214786  0.88020488  1
