# generated using pymatgen
data_V85Zn86O256
_symmetry_space_group_name_H-M   'P 1'
_cell_length_a   16.94316895
_cell_length_b   16.94599561
_cell_length_c   16.94901191
_cell_angle_alpha   90.06184148
_cell_angle_beta   90.02866598
_cell_angle_gamma   90.08269057
_symmetry_Int_Tables_number   1
_chemical_formula_structural   V85Zn86O256
_chemical_formula_sum   'V85 Zn86 O256'
_cell_volume   4866.37257645
_cell_formula_units_Z   1
loop_
 _symmetry_equiv_pos_site_id
 _symmetry_equiv_pos_as_xyz
  1  'x, y, z'
loop_
 _atom_site_type_symbol
 _atom_site_label
 _atom_site_symmetry_multiplicity
 _atom_site_fract_x
 _atom_site_fract_y
 _atom_site_fract_z
 _atom_site_occupancy
  V  V0  1  0.12177341  0.75113189  0.36774713  1
  V  V1  1  0.75335722  0.50952370  0.24962679  1
  V  V2  1  0.37864150  0.74026360  0.62618373  1
  V  V3  1  0.49805244  0.88405832  0.89955417  1
  V  V4  1  0.25676069  0.87753918  0.12536443  1
  V  V5  1  0.00253077  0.75137019  0.75215079  1
  V  V6  1  0.13362582  0.88161240  0.75004212  1
  V  V7  1  0.87658373  0.37810775  0.00221849  1
  V  V8  1  0.36414771  0.12548015  0.25444641  1
  V  V9  1  0.24832156  0.37566039  0.12402605  1
  V  V10  1  0.74581012  0.24832152  -0.00055784  1
  V  V11  1  0.25637167  0.75136428  0.00032949  1
  V  V12  1  -0.00321846  0.24896644  0.25245550  1
  V  V13  1  0.75162361  0.48275944  0.74218074  1
  V  V14  1  0.75105979  0.62302224  0.87256121  1
  V  V15  1  0.49840520  0.12279232  0.11571760  1
  V  V16  1  0.88056189  0.87948521  -0.00143188  1
  V  V17  1  0.74901383  0.87283440  0.62653614  1
  V  V18  1  0.75117469  0.74901309  -0.00242238  1
  V  V19  1  -0.00218295  0.37373722  0.38435879  1
  V  V20  1  0.13323565  0.12459317  0.49567889  1
  V  V21  1  0.74962427  0.13035898  0.37565930  1
  V  V22  1  0.87599151  0.62363993  0.75285072  1
  V  V23  1  0.87296087  0.87398145  0.50073612  1
  V  V24  1  0.61956604  0.00084446  0.62536384  1
  V  V25  1  -0.00345532  0.87121065  0.36735113  1
  V  V26  1  0.75346418  0.00833750  0.74948032  1
  V  V27  1  0.13709745  0.24390715  0.37433875  1
  V  V28  1  0.87676860  0.00639679  0.87384276  1
  V  V29  1  0.38165029  0.73804942  0.12994344  1
  V  V30  1  0.37404889  0.35243964  0.50141938  1
  V  V31  1  0.86848428  0.12462026  0.25253175  1
  V  V32  1  -0.00423842  0.11332132  0.12515912  1
  V  V33  1  0.56770760  0.55586124  0.17887172  1
  V  V34  1  0.87325721  0.25006848  0.12674703  1
  V  V35  1  0.50040671  0.74533285  0.74890339  1
  V  V36  1  -0.00828367  0.24162468  0.75451563  1
  V  V37  1  0.00111386  -0.00054083  0.50096878  1
  V  V38  1  0.87924747  0.50067360  0.87749971  1
  V  V39  1  0.74702655  0.38172537  0.12406123  1
  V  V40  1  0.62591909  0.25396834  0.37540259  1
  V  V41  1  0.88594468  0.75210842  0.13331672  1
  V  V42  1  0.49718752  0.50330157  -0.00681907  1
  V  V43  1  0.62347637  0.74975968  0.87779653  1
  V  V44  1  0.75000111  0.73308300  0.49474488  1
  V  V45  1  0.74891421  0.87771544  0.12259207  1
  V  V46  1  0.36590714  0.00158247  0.88034948  1
  V  V47  1  0.62643976  0.25201036  0.86281708  1
  V  V48  1  0.49781356  0.24993946  0.24950839  1
  V  V49  1  0.12019126  0.11669938  0.00286540  1
  V  V50  1  0.87392701  0.00072013  0.37755757  1
  V  V51  1  0.12428852  0.37676885  0.25239350  1
  V  V52  1  0.62389315  0.00223930  0.11872803  1
  V  V53  1  0.00268055  0.62886805  0.62644483  1
  V  V54  1  0.25106924  0.50609981  0.25175770  1
  V  V55  1  0.37540869  -0.00488651  0.37217039  1
  V  V56  1  0.25077812  0.75230869  0.49842914  1
  V  V57  1  0.60842453  0.61958843  0.50459535  1
  V  V58  1  0.50186755  0.37734645  0.86435587  1
  V  V59  1  0.62360386  0.61838153  -0.00316560  1
  V  V60  1  0.87439274  0.75071625  0.62875906  1
  V  V61  1  0.62665676  0.12956997  0.50196908  1
  V  V62  1  0.75221858  0.27098450  0.50366797  1
  V  V63  1  0.25982236  0.61587393  0.87286606  1
  V  V64  1  0.62158599  0.87487295  0.75289651  1
  V  V65  1  0.00381519  0.88132866  0.87826453  1
  V  V66  1  0.37397349  0.24807792  0.12354687  1
  V  V67  1  0.87200228  0.50286993  0.37654416  1
  V  V68  1  0.00086380  0.61434171  0.12463612  1
  V  V69  1  0.12978780  0.74861083  0.87720881  1
  V  V70  1  0.12593191  0.62596764  0.49928903  1
  V  V71  1  0.48726050  0.24222438  0.74513740  1
  V  V72  1  0.00063138  0.37757972  0.88132885  1
  V  V73  1  0.62240436  0.37528626  0.24363637  1
  V  V74  1  -0.00100816  0.49938776  0.49922054  1
  V  V75  1  0.72722279  -0.02192934  0.26890438  1
  V  V76  1  0.12245261  0.24820137  0.87463487  1
  V  V77  1  0.37435756  0.37860056  -0.00745252  1
  V  V78  1  0.61253078  0.49152291  0.62791338  1
  V  V79  1  0.39064353  0.87147280  0.49421991  1
  V  V80  1  0.87442153  0.26388334  0.62232166  1
  V  V81  1  0.38587909  0.50516509  0.38688841  1
  V  V82  1  0.24952795  0.24405084  -0.00195234  1
  V  V83  1  0.25497474  0.88071474  0.62658331  1
  V  V84  1  -0.00946713  0.12184468  0.62689399  1
  Zn  Zn85  1  0.12940326  0.49903294  0.62973654  1
  Zn  Zn86  1  0.35490405  0.10843620  0.73515586  1
  Zn  Zn87  1  0.75184268  0.12721847  0.87252275  1
  Zn  Zn88  1  0.11944480  0.61410451  -0.00454706  1
  Zn  Zn89  1  0.49281306  0.13128961  0.61920233  1
  Zn  Zn90  1  0.13249453  0.00783635  0.63113721  1
  Zn  Zn91  1  0.55246751  0.83813582  0.30676123  1
  Zn  Zn92  1  0.12187113  0.87451948  0.24597272  1
  Zn  Zn93  1  0.61847645  0.12541626  -0.00633081  1
  Zn  Zn94  1  0.12072828  0.49519701  0.11967307  1
  Zn  Zn95  1  0.25969039  0.36811662  0.62373632  1
  Zn  Zn96  1  0.39119625  0.62320243  0.25000909  1
  Zn  Zn97  1  0.24296397  0.00161715  0.25613345  1
  Zn  Zn98  1  0.24307235  0.11897542  0.86053331  1
  Zn  Zn99  1  0.50501127  -0.00181386  0.48925720  1
  Zn  Zn100  1  0.12042259  -0.00652482  0.12550544  1
  Zn  Zn101  1  0.25332843  0.62645737  0.37337890  1
  Zn  Zn102  1  0.50245838  0.38445804  0.37849447  1
  Zn  Zn103  1  0.12928784  0.37406772  0.74649580  1
  Zn  Zn104  1  0.38483573  0.61238428  0.75132983  1
  Zn  Zn105  1  0.25578790  0.49068495  0.74821930  1
  Zn  Zn106  1  0.87876032  0.63527835  0.25890090  1
  Zn  Zn107  1  0.18318784  0.18826385  0.18581744  1
  Zn  Zn108  1  0.19292760  0.19485229  0.68251953  1
  Zn  Zn109  1  0.18491633  0.68854144  0.18461935  1
  Zn  Zn110  1  0.19189712  0.68960566  0.68903855  1
  Zn  Zn111  1  0.68558950  0.18668741  0.18600050  1
  Zn  Zn112  1  0.68998874  0.19092460  0.68420642  1
  Zn  Zn113  1  0.69399895  0.69225315  0.17956802  1
  Zn  Zn114  1  0.68642811  0.68144494  0.68529885  1
  Zn  Zn115  1  0.31398294  0.31918399  0.31669357  1
  Zn  Zn116  1  0.31157791  0.31009934  0.81207657  1
  Zn  Zn117  1  0.31518096  0.81109954  0.30871016  1
  Zn  Zn118  1  0.31899833  0.81584865  0.81441591  1
  Zn  Zn119  1  0.81173404  0.31943209  0.31502920  1
  Zn  Zn120  1  0.81783401  0.30980017  0.81239353  1
  Zn  Zn121  1  0.72133708  0.80515926  0.31139798  1
  Zn  Zn122  1  0.81214249  0.81579936  0.81291086  1
  Zn  Zn123  1  0.19223586  0.43808170  0.43856793  1
  Zn  Zn124  1  0.18510563  0.43709575  0.93895249  1
  Zn  Zn125  1  0.19003881  0.93711332  0.43587715  1
  Zn  Zn126  1  0.18975668  0.93486690  0.94349143  1
  Zn  Zn127  1  0.67931169  0.45186716  0.43354785  1
  Zn  Zn128  1  0.68631812  0.43685919  0.93362540  1
  Zn  Zn129  1  0.68647528  0.93454658  0.44382913  1
  Zn  Zn130  1  0.68850431  0.93884448  0.93809880  1
  Zn  Zn131  1  0.31637238  0.05889031  0.05644015  1
  Zn  Zn132  1  0.31651449  0.06114619  0.55611560  1
  Zn  Zn133  1  0.30717353  0.56201900  0.05887701  1
  Zn  Zn134  1  0.30953782  0.55780045  0.56594733  1
  Zn  Zn135  1  0.80972993  0.06055028  0.06298758  1
  Zn  Zn136  1  0.80951718  0.06538984  0.56327169  1
  Zn  Zn137  1  0.81591841  0.56424155  0.06189143  1
  Zn  Zn138  1  0.82076163  0.55492493  0.56763375  1
  Zn  Zn139  1  0.42853941  0.43450434  0.18877876  1
  Zn  Zn140  1  0.42946433  0.43321791  0.68478557  1
  Zn  Zn141  1  0.43016920  0.94263658  0.18374929  1
  Zn  Zn142  1  0.43651232  0.93662702  0.69023995  1
  Zn  Zn143  1  0.93586935  0.43680210  0.19251631  1
  Zn  Zn144  1  0.96869230  0.42353966  0.67756851  1
  Zn  Zn145  1  0.92617815  0.93767315  0.19416831  1
  Zn  Zn146  1  0.93993528  0.93759826  0.69042834  1
  Zn  Zn147  1  0.06215451  0.05968721  0.31109201  1
  Zn  Zn148  1  0.06368708  0.06298789  0.81129606  1
  Zn  Zn149  1  0.05930048  0.56604364  0.30830621  1
  Zn  Zn150  1  0.06754858  0.56016447  0.81325024  1
  Zn  Zn151  1  0.55540818  0.06402806  0.31058679  1
  Zn  Zn152  1  0.56250619  0.06291105  0.81462431  1
  Zn  Zn153  1  0.58063043  0.67331229  0.33011714  1
  Zn  Zn154  1  0.56543504  0.55711224  0.80842845  1
  Zn  Zn155  1  0.44046959  0.18382903  0.43269574  1
  Zn  Zn156  1  0.43329983  0.18514246  0.92917459  1
  Zn  Zn157  1  0.43950261  0.69424752  0.43037793  1
  Zn  Zn158  1  0.43943359  0.69305611  0.94101347  1
  Zn  Zn159  1  0.93838030  0.19024262  0.44181352  1
  Zn  Zn160  1  0.93563174  0.18657897  0.94375699  1
  Zn  Zn161  1  0.93531301  0.68810402  0.43822224  1
  Zn  Zn162  1  0.94067128  0.69088431  0.94151545  1
  Zn  Zn163  1  0.06099107  0.30799100  0.06425074  1
  Zn  Zn164  1  0.08778675  0.30223727  0.57340334  1
  Zn  Zn165  1  0.06618002  0.81174644  0.06040107  1
  Zn  Zn166  1  0.06561028  0.81526376  0.56173142  1
  Zn  Zn167  1  0.56159922  0.31355761  0.05879732  1
  Zn  Zn168  1  0.55844219  0.32117669  0.56369978  1
  Zn  Zn169  1  0.54092940  0.83342973  0.10766134  1
  Zn  Zn170  1  0.56577036  0.80317629  0.56261180  1
  O  O171  1  0.11276975  0.12320158  0.12003028  1
  O  O172  1  0.10922164  0.12256945  0.60824520  1
  O  O173  1  0.11000905  0.62458396  0.12446353  1
  O  O174  1  0.12083752  0.62854523  0.61470990  1
  O  O175  1  0.61618179  0.12184770  0.12020095  1
  O  O176  1  0.62552152  0.11782518  0.61732128  1
  O  O177  1  0.62456103  0.61866839  0.11820197  1
  O  O178  1  0.63297546  0.61068308  0.61509833  1
  O  O179  1  0.37821823  0.38814839  0.38113068  1
  O  O180  1  0.38418840  0.36452960  0.88801248  1
  O  O181  1  0.37374393  0.87662730  0.38431070  1
  O  O182  1  0.39136459  0.88258820  0.87800923  1
  O  O183  1  0.88759187  0.38734923  0.36946087  1
  O  O184  1  0.87990645  0.38155843  0.88289237  1
  O  O185  1  0.88283167  0.88310974  0.38745203  1
  O  O186  1  0.88385502  0.88109839  0.88088062  1
  O  O187  1  0.26662371  -0.00651393  0.37263463  1
  O  O188  1  0.26109226  -0.00263955  0.87878116  1
  O  O189  1  0.25717249  0.50356498  0.36645926  1
  O  O190  1  0.25012669  0.51433674  0.87852936  1
  O  O191  1  0.75461533  0.01071084  0.37577605  1
  O  O192  1  0.75787570  0.00021398  0.86641682  1
  O  O193  1  0.76067451  0.49336224  0.36309867  1
  O  O194  1  0.75524496  0.50480724  0.86626869  1
  O  O195  1  0.24941802  0.49055837  0.13271141  1
  O  O196  1  0.24430805  0.48831179  0.62405665  1
  O  O197  1  0.25301899  0.98522157  0.12188180  1
  O  O198  1  0.24857904  0.98359230  0.61529121  1
  O  O199  1  0.75842929  0.48737801  0.12993233  1
  O  O200  1  0.75712312  0.49676806  0.64070408  1
  O  O201  1  0.74561619  0.99402791  0.13603885  1
  O  O202  1  0.74206825  0.99361058  0.63065241  1
  O  O203  1  0.00802880  0.37047464  0.25725380  1
  O  O204  1  -0.00728430  0.36082605  0.77217522  1
  O  O205  1  -0.00327071  0.87850510  0.26430995  1
  O  O206  1  0.00856442  0.86804162  0.75770899  1
  O  O207  1  0.50614007  0.36831527  0.24803567  1
  O  O208  1  0.49244628  0.36190284  0.76082239  1
  O  O209  1  0.51377376  0.87618740  0.21087105  1
  O  O210  1  0.51334655  0.86739562  0.75319430  1
  O  O211  1  0.49189506  0.13476394  0.23810319  1
  O  O212  1  0.50482398  0.13811285  0.74949695  1
  O  O213  1  0.51413633  0.61356253  0.24236441  1
  O  O214  1  0.50156219  0.64135766  0.76270880  1
  O  O215  1  0.98930472  0.12917848  0.24527378  1
  O  O216  1  1.00203824  0.12976522  0.74060071  1
  O  O217  1  0.99504025  0.62674727  0.23335201  1
  O  O218  1  0.99670942  0.63206540  0.74713033  1
  O  O219  1  0.36589951  0.25301338  0.00294289  1
  O  O220  1  0.37031455  0.25360622  0.48824595  1
  O  O221  1  0.36201511  0.74547133  0.00893324  1
  O  O222  1  0.36904990  0.75446117  0.50538024  1
  O  O223  1  0.86546558  0.25817999  0.00587322  1
  O  O224  1  0.86814562  0.25073537  0.51280784  1
  O  O225  1  0.87019587  0.76256252  0.00318785  1
  O  O226  1  0.86910471  0.75394363  0.51099778  1
  O  O227  1  0.10820809  0.23108313  0.48484863  1
  O  O228  1  0.13060467  0.24110117  0.99603146  1
  O  O229  1  0.13265116  0.74559194  0.49413122  1
  O  O230  1  0.13320724  0.74874747  0.98755593  1
  O  O231  1  0.63209219  0.24692465  0.49777677  1
  O  O232  1  0.63264735  0.25054019  0.99127198  1
  O  O233  1  0.64107497  0.73393225  0.51036770  1
  O  O234  1  0.63259136  0.73311561  0.99362118  1
  O  O235  1  0.49414992  0.24830890  0.13326692  1
  O  O236  1  0.50968161  0.25074052  0.64387076  1
  O  O237  1  0.47971630  0.73794587  0.10968830  1
  O  O238  1  0.49196872  0.75444776  0.63680313  1
  O  O239  1  0.99122172  0.24240995  0.13403960  1
  O  O240  1  0.99002541  0.24144210  0.63288201  1
  O  O241  1  0.98863619  0.75100594  0.12364296  1
  O  O242  1  0.99567719  0.74701901  0.63017490  1
  O  O243  1  0.00044107  0.25808180  0.36887576  1
  O  O244  1  0.00176258  0.25030991  0.87228692  1
  O  O245  1  0.00771756  0.76130521  0.38575186  1
  O  O246  1  0.00920585  0.75909742  0.87168947  1
  O  O247  1  0.50755754  0.24982147  0.36016562  1
  O  O248  1  0.50740979  0.25374497  0.86500820  1
  O  O249  1  0.51295154  0.75479282  0.37178930  1
  O  O250  1  0.50553453  0.76407900  0.87255281  1
  O  O251  1  0.23144301  0.11894092  0.50112625  1
  O  O252  1  0.24140460  0.13461918  1.00293713  1
  O  O253  1  0.24227729  0.63613040  0.49979650  1
  O  O254  1  0.24551479  0.63329529  0.98880358  1
  O  O255  1  0.74027435  0.13290005  0.49482320  1
  O  O256  1  0.75198257  0.14064869  1.00141596  1
  O  O257  1  0.75943208  0.63367478  0.50951992  1
  O  O258  1  0.74456154  0.62638742  0.99282158  1
  O  O259  1  0.25656161  0.36443465  0.00179964  1
  O  O260  1  0.27042202  0.37794440  0.49428352  1
  O  O261  1  0.24627038  0.86384054  0.01255826  1
  O  O262  1  0.25522040  0.86361698  0.50575553  1
  O  O263  1  0.75296741  0.36836670  0.00690858  1
  O  O264  1  0.74399081  0.36866834  0.49188285  1
  O  O265  1  0.75917831  0.87051553  0.00392288  1
  O  O266  1  0.75275523  0.86426317  0.50953106  1
  O  O267  1  0.12933576  0.49036422  0.24765562  1
  O  O268  1  0.13381506  0.49598563  0.75053022  1
  O  O269  1  0.12720702  0.99575436  0.24489830  1
  O  O270  1  0.12164161  0.98529893  0.74895143  1
  O  O271  1  0.63040445  0.49550508  0.23844032  1
  O  O272  1  0.64298303  0.50563968  0.74015846  1
  O  O273  1  0.63354552  1.01596939  0.23670863  1
  O  O274  1  0.63134722  0.99314465  0.74473258  1
  O  O275  1  0.36953090  0.00906522  0.25342073  1
  O  O276  1  0.38826494  -0.00167251  0.77177022  1
  O  O277  1  0.36600088  0.50295147  0.25621095  1
  O  O278  1  0.37037989  0.50135832  0.74917840  1
  O  O279  1  0.85941078  0.00560321  0.26202682  1
  O  O280  1  0.86467782  -0.00994506  0.76061539  1
  O  O281  1  0.86715008  0.50190511  0.25746543  1
  O  O282  1  0.86666100  0.50375674  0.76219134  1
  O  O283  1  0.12025469  0.36783710  0.36685546  1
  O  O284  1  0.11685219  0.36138938  0.87904958  1
  O  O285  1  0.11499463  0.86776765  0.37637688  1
  O  O286  1  0.12086564  0.87131093  0.87071411  1
  O  O287  1  0.62261579  0.37339356  0.36085538  1
  O  O288  1  0.61284089  0.36503506  0.88036517  1
  O  O289  1  0.65563921  0.89905377  0.34108305  1
  O  O290  1  0.61886199  0.87126173  0.87110650  1
  O  O291  1  0.38052924  0.12975301  0.12963825  1
  O  O292  1  0.38203520  0.11494115  0.62552911  1
  O  O293  1  0.36609086  0.63435893  0.12894020  1
  O  O294  1  0.36863594  0.63819150  0.62823471  1
  O  O295  1  0.87737122  0.12968701  0.13069131  1
  O  O296  1  0.88644907  0.12995206  0.61936397  1
  O  O297  1  0.88307222  0.63865511  0.12173972  1
  O  O298  1  0.88225338  0.63301322  0.63439952  1
  O  O299  1  0.25302253  0.25566361  0.11746473  1
  O  O300  1  0.19474715  0.27572078  0.61093493  1
  O  O301  1  0.25331508  0.75478282  0.11753249  1
  O  O302  1  0.25765000  0.75797049  0.61765724  1
  O  O303  1  0.75331990  0.26010082  0.11968718  1
  O  O304  1  0.76547786  0.24860280  0.61888419  1
  O  O305  1  0.76123486  0.75907431  0.11421156  1
  O  O306  1  0.75767639  0.75519079  0.62395667  1
  O  O307  1  0.23575663  0.25121323  0.36705078  1
  O  O308  1  0.23898290  0.24528612  0.88298441  1
  O  O309  1  0.24267049  0.74911355  0.38277701  1
  O  O310  1  0.24620898  0.75000262  0.88241968  1
  O  O311  1  0.74546987  0.24930547  0.38276377  1
  O  O312  1  0.74509879  0.25049717  0.88189602  1
  O  O313  1  0.76375247  0.74498679  0.39655873  1
  O  O314  1  0.74503309  0.74456162  0.87862485  1
  O  O315  1  0.00711617  0.13054529  0.01378054  1
  O  O316  1  -0.00033631  0.11101666  0.50299079  1
  O  O317  1  0.00152543  0.63349080  0.01798869  1
  O  O318  1  0.00791956  0.62134773  0.50496078  1
  O  O319  1  0.49872395  0.13840022  0.01246901  1
  O  O320  1  0.51567777  0.12450652  0.49901120  1
  O  O321  1  0.50641778  0.61136360  -0.00990675  1
  O  O322  1  0.51052400  0.63465298  0.50443464  1
  O  O323  1  0.48413024  0.36690685  0.49133012  1
  O  O324  1  0.49359760  0.38425070  0.99436929  1
  O  O325  1  0.49333833  0.87288054  0.50430438  1
  O  O326  1  0.50876602  0.87277933  0.99674530  1
  O  O327  1  1.00973515  0.38339924  0.48737659  1
  O  O328  1  0.99196007  0.36552057  0.99040875  1
  O  O329  1  0.99577254  0.88588518  0.49805258  1
  O  O330  1  0.99438950  0.87187867  0.98946112  1
  O  O331  1  0.48364013  0.50175737  0.36947424  1
  O  O332  1  0.50515341  0.48853348  0.88054268  1
  O  O333  1  0.48765961  0.99663974  0.37153304  1
  O  O334  1  0.50687257  0.98569763  0.87997094  1
  O  O335  1  0.99713122  0.49380530  0.38000552  1
  O  O336  1  0.99084235  0.49071346  0.87204262  1
  O  O337  1  0.99314519  0.99390223  0.38297895  1
  O  O338  1  0.99325123  0.98877554  0.86917186  1
  O  O339  1  -0.00635008  0.01042763  0.13098341  1
  O  O340  1  0.00167359  0.00403097  0.61852245  1
  O  O341  1  -0.00534021  0.51116807  0.12583495  1
  O  O342  1  -0.00731073  0.51771500  0.61412408  1
  O  O343  1  0.50950011  0.01277477  0.12431551  1
  O  O344  1  0.51457624  -0.00265667  0.62417679  1
  O  O345  1  0.50307178  0.50006017  0.12099219  1
  O  O346  1  0.51439400  0.49912326  0.64001740  1
  O  O347  1  0.24264169  0.38350603  0.24620953  1
  O  O348  1  0.24620002  0.37010891  0.74593217  1
  O  O349  1  0.24750325  0.87404683  0.23579588  1
  O  O350  1  0.24469982  0.86828888  0.74101105  1
  O  O351  1  0.74148876  0.38265068  0.24213541  1
  O  O352  1  0.75229355  0.38507921  0.75563282  1
  O  O353  1  0.76633439  0.88051286  0.23471178  1
  O  O354  1  0.73855486  0.88077061  0.74688190  1
  O  O355  1  0.26130557  0.12540898  0.24130358  1
  O  O356  1  0.24041618  0.12223302  0.74672473  1
  O  O357  1  0.24261371  0.61176122  0.25016479  1
  O  O358  1  0.25224852  0.62988733  0.76656258  1
  O  O359  1  0.75311716  0.12650977  0.26027393  1
  O  O360  1  0.74808709  0.11129222  0.74898462  1
  O  O361  1  0.75580086  0.61171744  0.23933994  1
  O  O362  1  0.76001179  0.62362898  0.75810252  1
  O  O363  1  0.37981394  0.11507946  0.36254447  1
  O  O364  1  0.36772062  0.11268169  0.86951214  1
  O  O365  1  0.37362644  0.61801929  0.36881929  1
  O  O366  1  0.36166598  0.63326956  0.87553953  1
  O  O367  1  0.86907958  0.12171252  0.37348404  1
  O  O368  1  0.87463955  0.11002766  0.88163236  1
  O  O369  1  0.88341706  0.60993729  0.37279776  1
  O  O370  1  0.87332440  0.61883825  0.87373830  1
  O  O371  1  0.12808295  0.37036231  0.13801786  1
  O  O372  1  0.07737538  0.39218672  0.64026498  1
  O  O373  1  0.13573285  0.87400384  0.12628592  1
  O  O374  1  0.13499908  0.87372506  0.63453719  1
  O  O375  1  0.63258848  0.36972928  0.13436057  1
  O  O376  1  0.62738385  0.39142689  0.62265223  1
  O  O377  1  0.64314279  0.88527521  0.11645085  1
  O  O378  1  0.63031726  0.87992343  0.63236189  1
  O  O379  1  0.11625157  0.25422204  0.25668616  1
  O  O380  1  0.10767266  0.24987570  0.76311069  1
  O  O381  1  0.12748590  0.75109522  0.26479862  1
  O  O382  1  0.12330492  0.75868704  0.76090472  1
  O  O383  1  0.61843684  0.25781008  0.25252604  1
  O  O384  1  0.62627561  0.24930286  0.76038715  1
  O  O385  1  0.63817897  0.74530461  0.25978989  1
  O  O386  1  0.62221570  0.75615148  0.75634961  1
  O  O387  1  0.38040505  0.24609937  0.24672893  1
  O  O388  1  0.38584253  0.24018289  0.75435290  1
  O  O389  1  0.37303261  0.74212846  0.23590294  1
  O  O390  1  0.38511531  0.75154569  0.74241986  1
  O  O391  1  0.87606589  0.24556527  0.24660290  1
  O  O392  1  0.88234053  0.24721889  0.74002516  1
  O  O393  1  0.86897889  0.75151561  0.23133132  1
  O  O394  1  0.88216426  0.74736748  0.74757922  1
  O  O395  1  0.37658323  0.50619675  0.48773520  1
  O  O396  1  0.38344405  0.49000776  1.00506792  1
  O  O397  1  0.38133068  0.98807713  0.48988215  1
  O  O398  1  0.38281371  1.00383374  0.98152363  1
  O  O399  1  0.88999365  0.50131810  0.49252791  1
  O  O400  1  0.86827957  0.49312096  0.98677136  1
  O  O401  1  0.87882498  0.99521206  0.49694682  1
  O  O402  1  0.86853332  0.98693960  0.99234010  1
  O  O403  1  0.12715732  0.01298858  0.00298573  1
  O  O404  1  0.11624097  0.00731151  0.49793138  1
  O  O405  1  0.12566661  0.50068678  0.00669521  1
  O  O406  1  0.11602873  0.50977841  0.49829385  1
  O  O407  1  0.63711701  0.00847756  0.01397216  1
  O  O408  1  0.62579924  0.00797280  0.50826290  1
  O  O409  1  0.61927686  0.50996663  -0.00323855  1
  O  O410  1  0.62497883  0.50744869  0.51673590  1
  O  O411  1  0.36867202  0.36621237  0.11468967  1
  O  O412  1  0.37768179  0.36637336  0.60671005  1
  O  O413  1  0.36134818  0.86126048  0.12546259  1
  O  O414  1  0.37099422  0.86826878  0.61695123  1
  O  O415  1  0.86862233  0.36952999  0.12220154  1
  O  O416  1  0.88212843  0.36221957  0.62768852  1
  O  O417  1  0.87231327  0.86902182  0.11635872  1
  O  O418  1  0.86993962  0.87004100  0.62192098  1
  O  O419  1  0.11873463  0.12989476  0.38416772  1
  O  O420  1  0.12155912  0.13278271  0.88500124  1
  O  O421  1  0.12279674  0.63285135  0.38531665  1
  O  O422  1  0.13382805  0.63533573  0.87575687  1
  O  O423  1  0.62965254  0.13360717  0.38045131  1
  O  O424  1  0.63023475  0.13462641  0.87745730  1
  O  O425  1  0.63384636  0.60763725  0.40515137  1
  O  O426  1  0.63207628  0.62727262  0.87987852  1
