# generated using pymatgen
data_V85Zn86O256
_symmetry_space_group_name_H-M   'P 1'
_cell_length_a   16.93366432
_cell_length_b   16.93263277
_cell_length_c   16.93968379
_cell_angle_alpha   90.00915519
_cell_angle_beta   89.89158337
_cell_angle_gamma   90.06233310
_symmetry_Int_Tables_number   1
_chemical_formula_structural   V85Zn86O256
_chemical_formula_sum   'V85 Zn86 O256'
_cell_volume   4857.12964240
_cell_formula_units_Z   1
loop_
 _symmetry_equiv_pos_site_id
 _symmetry_equiv_pos_as_xyz
  1  'x, y, z'
loop_
 _atom_site_type_symbol
 _atom_site_label
 _atom_site_symmetry_multiplicity
 _atom_site_fract_x
 _atom_site_fract_y
 _atom_site_fract_z
 _atom_site_occupancy
  V  V0  1  0.37334961  0.12991068  0.75420530  1
  V  V1  1  0.63027174  0.74493740  0.37376413  1
  V  V2  1  0.48788776  0.37834148  0.37659809  1
  V  V3  1  0.75369734  0.87203198  0.11646163  1
  V  V4  1  0.72166716  0.50236816  0.73695360  1
  V  V5  1  0.00331848  0.36618106  0.38048254  1
  V  V6  1  0.87427047  0.12624315  0.24733066  1
  V  V7  1  0.86864741  0.50498082  0.37880553  1
  V  V8  1  0.12206168  0.36904564  0.74953229  1
  V  V9  1  0.12636980  0.00252133  0.61417242  1
  V  V10  1  0.11298936  0.87478694  0.75119278  1
  V  V11  1  0.87810832  0.25962432  0.12290740  1
  V  V12  1  0.50758623  0.62603334  0.62891205  1
  V  V13  1  0.63294039  0.62573658  -0.01244903  1
  V  V14  1  0.12377099  0.49754799  0.12887977  1
  V  V15  1  0.50010665  0.50156966  0.00294332  1
  V  V16  1  0.24825702  0.86623726  0.62793606  1
  V  V17  1  0.87135158  -0.00172513  0.37550583  1
  V  V18  1  0.36914703  -0.00021582  0.87441592  1
  V  V19  1  0.23542664  0.24529981  0.49932481  1
  V  V20  1  0.87459466  0.37527599  0.50637803  1
  V  V21  1  0.62369134  0.25205127  0.37112880  1
  V  V22  1  0.62843507  0.12578534  -0.00273572  1
  V  V23  1  0.25266247  0.24661657  -0.00680536  1
  V  V24  1  0.55576578  0.30758911  0.70632677  1
  V  V25  1  0.50015062  0.63501572  0.12628340  1
  V  V26  1  0.00469090  0.51052390  0.50387148  1
  V  V27  1  0.12884458  0.12221787  -0.00576275  1
  V  V28  1  0.37178076  0.25495157  0.62168205  1
  V  V29  1  0.11603696  0.74895424  0.87051994  1
  V  V30  1  0.87626073  0.00058751  0.88321450  1
  V  V31  1  0.85842430  0.50153018  0.85185150  1
  V  V32  1  0.50387832  0.87242128  0.37049685  1
  V  V33  1  0.11345568  0.52817264  0.63477485  1
  V  V34  1  0.75353321  0.24999269  0.50013569  1
  V  V35  1  0.23236673  0.12453016  0.38011305  1
  V  V36  1  0.63049615  0.61864566  0.49900764  1
  V  V37  1  0.24885676  0.87302100  0.12414355  1
  V  V38  1  0.37729713  0.87064684  0.50279801  1
  V  V39  1  0.37282722  0.49941726  0.87653734  1
  V  V40  1  0.24578375  0.00536211  0.75240745  1
  V  V41  1  0.75578561  0.74845764  0.50088245  1
  V  V42  1  0.62389120  0.12262468  0.49848283  1
  V  V43  1  0.16518103  0.66198337  0.48107511  1
  V  V44  1  -0.00308658  0.12591037  0.62958109  1
  V  V45  1  0.12745848  0.36527377  0.25656986  1
  V  V46  1  0.24874445  0.37824889  0.61604783  1
  V  V47  1  0.00100372  0.00476871  0.49918566  1
  V  V48  1  0.24863135  0.50462039  0.26085122  1
  V  V49  1  0.75574758  0.74808792  -0.01607640  1
  V  V50  1  0.37373336  0.63243711  0.75034755  1
  V  V51  1  0.62453708  -0.00303793  0.12143786  1
  V  V52  1  0.50312802  0.37522641  0.87414838  1
  V  V53  1  0.00021301  0.12468086  0.12338970  1
  V  V54  1  0.88636249  0.74135130  0.64430624  1
  V  V55  1  0.74728577  -0.00208185  0.24642164  1
  V  V56  1  0.00014614  0.74884962  0.25099526  1
  V  V57  1  0.62521966  0.86306213  0.75458315  1
  V  V58  1  -0.00695578  0.48460441  -0.01032799  1
  V  V59  1  0.37370714  0.37506996  0.00106324  1
  V  V60  1  0.12475109  -0.00477363  0.12536100  1
  V  V61  1  0.50018439  0.12631922  0.12561813  1
  V  V62  1  0.24747113  0.74817629  0.00015603  1
  V  V63  1  0.37699114  0.63130224  0.25774731  1
  V  V64  1  0.37315072  0.12585702  0.25469960  1
  V  V65  1  -0.01111321  0.24736043  0.75713806  1
  V  V66  1  0.75556078  0.26120964  -0.00125703  1
  V  V67  1  0.25030573  0.49761361  0.74899461  1
  V  V68  1  0.37420383  0.25138449  0.12467888  1
  V  V69  1  0.00081668  0.87452601  0.37013782  1
  V  V70  1  0.12124714  0.62040423  -0.00014436  1
  V  V71  1  0.50119615  -0.00007708  0.50044160  1
  V  V72  1  0.12296783  0.25096237  0.87592933  1
  V  V73  1  0.62180339  0.25126302  0.87465009  1
  V  V74  1  0.74864236  0.12575477  0.37272439  1
  V  V75  1  0.49912622  0.25267113  0.25144274  1
  V  V76  1  0.49828902  -0.00092744  -0.00542037  1
  V  V77  1  0.87420453  0.74623928  0.12192811  1
  V  V78  1  0.24904001  -0.00267140  0.25210371  1
  V  V79  1  0.38105554  0.75225983  0.62981480  1
  V  V80  1  0.49124371  0.50147077  0.50370088  1
  V  V81  1  0.49908343  0.12483036  0.63125665  1
  V  V82  1  0.62150901  0.86336253  0.24160119  1
  V  V83  1  0.75556027  0.00716252  0.74784937  1
  V  V84  1  0.62804906  0.50074802  0.12767584  1
  Zn  Zn85  1  0.75635114  0.38181295  0.12736288  1
  Zn  Zn86  1  0.36761205  0.50384451  0.38275136  1
  Zn  Zn87  1  0.62599788  -0.00380027  0.62903517  1
  Zn  Zn88  1  0.24770709  0.62444252  0.87412107  1
  Zn  Zn89  1  0.76035364  0.13373876  0.86912005  1
  Zn  Zn90  1  0.74608455  0.50443861  0.25693239  1
  Zn  Zn91  1  0.86980091  0.24567644  0.63573225  1
  Zn  Zn92  1  0.15957609  0.82340011  0.29664150  1
  Zn  Zn93  1  0.37311525  -0.00011166  0.37725592  1
  Zn  Zn94  1  0.37675044  0.75203709  0.12783008  1
  Zn  Zn95  1  0.62697538  0.37850709  0.25109053  1
  Zn  Zn96  1  0.49431887  0.85572937  0.85667943  1
  Zn  Zn97  1  0.87431379  0.87318981  0.50602554  1
  Zn  Zn98  1  -0.01376595  0.86392100  0.88141485  1
  Zn  Zn99  1  -0.00284546  0.61987612  0.12988021  1
  Zn  Zn100  1  -0.00576733  -0.00889294  0.00260374  1
  Zn  Zn101  1  0.25090036  0.37528630  0.12794818  1
  Zn  Zn102  1  0.75076577  0.87339926  0.62601240  1
  Zn  Zn103  1  0.37597482  0.86972526  -0.00466036  1
  Zn  Zn104  1  0.86826851  0.62648639  0.25552353  1
  Zn  Zn105  1  0.00476251  0.24563648  0.25602331  1
  Zn  Zn106  1  0.73519396  0.37330131  0.62959395  1
  Zn  Zn107  1  0.18962416  0.18576097  0.18404562  1
  Zn  Zn108  1  0.18474078  0.18425062  0.68486157  1
  Zn  Zn109  1  0.18910211  0.68047183  0.18559586  1
  Zn  Zn110  1  0.17340393  0.68317799  0.68557666  1
  Zn  Zn111  1  0.68919753  0.19082738  0.18422407  1
  Zn  Zn112  1  0.69125991  0.18091084  0.68325834  1
  Zn  Zn113  1  0.69226398  0.68087304  0.18669963  1
  Zn  Zn114  1  0.69500455  0.68719883  0.68615057  1
  Zn  Zn115  1  0.30701521  0.31083940  0.31684942  1
  Zn  Zn116  1  0.31182616  0.31166761  0.81082504  1
  Zn  Zn117  1  0.32201934  0.80862761  0.31856070  1
  Zn  Zn118  1  0.30464340  0.81465252  0.81439372  1
  Zn  Zn119  1  0.81381843  0.31865678  0.31072197  1
  Zn  Zn120  1  0.80998224  0.32939313  0.81702365  1
  Zn  Zn121  1  0.81109609  0.81115233  0.30938491  1
  Zn  Zn122  1  0.81352896  0.81787404  0.80652050  1
  Zn  Zn123  1  0.18283071  0.43853810  0.44112085  1
  Zn  Zn124  1  0.18517191  0.43399130  0.93799827  1
  Zn  Zn125  1  0.19702253  0.90811530  0.43246464  1
  Zn  Zn126  1  0.18343875  0.93408563  0.93757277  1
  Zn  Zn127  1  0.68233827  0.43593042  0.44191149  1
  Zn  Zn128  1  0.68965079  0.44068798  0.93249653  1
  Zn  Zn129  1  0.68735241  0.93267113  0.43757292  1
  Zn  Zn130  1  0.69079395  0.93444011  0.93004883  1
  Zn  Zn131  1  0.31202582  0.06348781  0.06297417  1
  Zn  Zn132  1  0.31198475  0.06173005  0.56268592  1
  Zn  Zn133  1  0.31003289  0.56323153  0.06839448  1
  Zn  Zn134  1  0.30544131  0.57275545  0.56047531  1
  Zn  Zn135  1  0.81086792  0.06746959  0.05846196  1
  Zn  Zn136  1  0.81466792  0.06308455  0.56365246  1
  Zn  Zn137  1  0.81469165  0.56380213  0.05981009  1
  Zn  Zn138  1  0.81086213  0.56331563  0.57360739  1
  Zn  Zn139  1  0.43750673  0.44222066  0.19015047  1
  Zn  Zn140  1  0.43169805  0.44495048  0.68153471  1
  Zn  Zn141  1  0.43623170  0.93644929  0.18429742  1
  Zn  Zn142  1  0.44010515  0.94013885  0.69013952  1
  Zn  Zn143  1  0.94331003  0.43816902  0.19405316  1
  Zn  Zn144  1  0.93808010  0.43268666  0.68876574  1
  Zn  Zn145  1  0.93528574  0.93396732  0.18587297  1
  Zn  Zn146  1  0.93219350  0.93405340  0.68657296  1
  Zn  Zn147  1  0.06141654  0.05608633  0.30881589  1
  Zn  Zn148  1  0.05855712  0.06281862  0.81286201  1
  Zn  Zn149  1  0.06041146  0.56533995  0.32028124  1
  Zn  Zn150  1  0.06236225  0.56146584  0.81073780  1
  Zn  Zn151  1  0.56231775  0.05907306  0.31042037  1
  Zn  Zn152  1  0.56458053  0.05787822  0.81220506  1
  Zn  Zn153  1  0.55856551  0.56392399  0.31305668  1
  Zn  Zn154  1  0.55889267  0.56498564  0.81120712  1
  Zn  Zn155  1  0.43115151  0.18866576  0.43944170  1
  Zn  Zn156  1  0.43951051  0.18599767  0.93421041  1
  Zn  Zn157  1  0.44079904  0.69029604  0.44104770  1
  Zn  Zn158  1  0.43458317  0.68398132  0.93789693  1
  Zn  Zn159  1  0.93881574  0.18397516  0.43986244  1
  Zn  Zn160  1  0.93787898  0.18325925  0.93816612  1
  Zn  Zn161  1  0.94345882  0.68810720  0.43910819  1
  Zn  Zn162  1  0.93634024  0.67738673  0.93703197  1
  Zn  Zn163  1  0.06532628  0.31200997  0.06594234  1
  Zn  Zn164  1  0.06047923  0.31492647  0.56895225  1
  Zn  Zn165  1  0.06036790  0.81179301  0.06267352  1
  Zn  Zn166  1  0.05762931  0.81549718  0.56101733  1
  Zn  Zn167  1  0.56372034  0.31490484  0.06187655  1
  Zn  Zn168  1  0.55691964  0.31004095  0.54200672  1
  Zn  Zn169  1  0.55177339  0.79697015  0.02492406  1
  Zn  Zn170  1  0.56756382  0.81066718  0.56664476  1
  O  O171  1  0.11847286  0.11996079  0.11686980  1
  O  O172  1  0.11376972  0.11248323  0.62773605  1
  O  O173  1  0.12234904  0.61405739  0.11804353  1
  O  O174  1  0.15500505  0.62140590  0.58552674  1
  O  O175  1  0.62155351  0.12169280  0.11345296  1
  O  O176  1  0.61433304  0.12435662  0.61634179  1
  O  O177  1  0.61767430  0.61636694  0.11864076  1
  O  O178  1  0.61185209  0.63549568  0.61677823  1
  O  O179  1  0.38452174  0.37710354  0.37121301  1
  O  O180  1  0.38385470  0.37684886  0.87993615  1
  O  O181  1  0.38824538  0.87891157  0.38539516  1
  O  O182  1  0.37722773  0.88427204  0.87536410  1
  O  O183  1  0.88252452  0.38084982  0.38794335  1
  O  O184  1  0.87263586  0.40307463  0.87883692  1
  O  O185  1  0.87885986  0.88829898  0.37172810  1
  O  O186  1  0.87335883  0.89283878  0.86927109  1
  O  O187  1  0.25131587  0.00372770  0.36660123  1
  O  O188  1  0.25983269  -0.00344982  0.86835018  1
  O  O189  1  0.24952203  0.49608665  0.36556876  1
  O  O190  1  0.25560741  0.49795905  0.86706384  1
  O  O191  1  0.75399442  0.00453573  0.36951426  1
  O  O192  1  0.75831562  0.00526308  0.86699881  1
  O  O193  1  0.76617737  0.49199738  0.38325905  1
  O  O194  1  0.74962763  0.49873126  0.85469723  1
  O  O195  1  0.23914564  0.49749492  0.13625532  1
  O  O196  1  0.24191638  0.49652109  0.63142138  1
  O  O197  1  0.24532344  0.99442777  0.13044412  1
  O  O198  1  0.24221862  0.99633114  0.63300559  1
  O  O199  1  0.74060430  0.49973945  0.12301731  1
  O  O200  1  0.74185577  0.49252392  0.63050906  1
  O  O201  1  0.74404776  0.99254709  0.12374737  1
  O  O202  1  0.75017627  1.00076745  0.63546407  1
  O  O203  1  0.00991021  0.37145845  0.26242004  1
  O  O204  1  0.01491992  0.36356880  0.74515255  1
  O  O205  1  -0.00607788  0.86541231  0.25634160  1
  O  O206  1  0.01114832  0.88148972  0.75501979  1
  O  O207  1  0.50107413  0.36888458  0.25760208  1
  O  O208  1  0.49148672  0.37534909  0.75672965  1
  O  O209  1  0.50894418  0.88120150  0.25735724  1
  O  O210  1  0.51693475  0.87985251  0.74699290  1
  O  O211  1  0.49276669  0.13046049  0.24644542  1
  O  O212  1  0.49237313  0.11878208  0.73816367  1
  O  O213  1  0.48652609  0.62015380  0.23977607  1
  O  O214  1  0.48546406  0.62050084  0.74163467  1
  O  O215  1  0.99586444  0.12507613  0.23915137  1
  O  O216  1  1.00349864  0.13522923  0.74243800  1
  O  O217  1  0.99298867  0.63238193  0.25210349  1
  O  O218  1  1.07777101  0.60386807  0.70502746  1
  O  O219  1  0.36974728  0.25199009  0.00235782  1
  O  O220  1  0.36714286  0.24499468  0.51693756  1
  O  O221  1  0.35613497  0.74569391  0.00465118  1
  O  O222  1  0.38144556  0.76452933  0.51009214  1
  O  O223  1  0.86686771  0.24453882  0.00857767  1
  O  O224  1  0.86331075  0.25430158  0.49686832  1
  O  O225  1  0.86316760  0.74179709  0.00525113  1
  O  O226  1  0.86101013  0.75075041  0.48825663  1
  O  O227  1  0.13617022  0.25050456  0.50829920  1
  O  O228  1  0.13190641  0.24414112  0.99467472  1
  O  O229  1  0.13320492  0.75674960  0.49918323  1
  O  O230  1  0.13129937  0.73973099  0.99628985  1
  O  O231  1  0.63493613  0.24226681  0.49093877  1
  O  O232  1  0.62987649  0.24418817  0.99405766  1
  O  O233  1  0.63445815  0.74391524  0.49310608  1
  O  O234  1  0.64490590  0.73289903  1.00898372  1
  O  O235  1  0.49459635  0.24519149  0.12937497  1
  O  O236  1  0.49437318  0.24765982  0.63035036  1
  O  O237  1  0.49975557  0.73807874  0.11618567  1
  O  O238  1  0.48806841  0.74347109  0.62328960  1
  O  O239  1  0.99524964  0.24075596  0.12640943  1
  O  O240  1  0.99963592  0.24161585  0.63627783  1
  O  O241  1  0.98707706  0.75050352  0.12969136  1
  O  O242  1  0.98528933  0.75532015  0.62261981  1
  O  O243  1  -0.00483253  0.26110422  0.37593892  1
  O  O244  1  0.01088760  0.24352030  0.86981471  1
  O  O245  1  -0.00476215  0.76229255  0.36639676  1
  O  O246  1  0.01132273  0.74505816  0.87874717  1
  O  O247  1  0.50202267  0.25655470  0.37316456  1
  O  O248  1  0.51185746  0.25751412  0.87685147  1
  O  O249  1  0.51271047  0.76555277  0.38266998  1
  O  O250  1  0.50409182  0.76755977  0.92276119  1
  O  O251  1  0.25285802  0.13009827  0.49103041  1
  O  O252  1  0.24115108  0.13417471  1.00581406  1
  O  O253  1  0.26522359  0.64606060  0.48036193  1
  O  O254  1  0.23844224  0.62882710  1.00093900  1
  O  O255  1  0.74573742  0.13030765  0.49302898  1
  O  O256  1  0.74080040  0.13750383  0.99654568  1
  O  O257  1  0.73642328  0.62951604  0.50543432  1
  O  O258  1  0.74100689  0.63057004  0.99841054  1
  O  O259  1  0.25659600  0.36629426  0.00284446  1
  O  O260  1  0.24626551  0.36889956  0.51057805  1
  O  O261  1  0.25030240  0.86590048  0.00588783  1
  O  O262  1  0.26818102  0.89156521  0.51992771  1
  O  O263  1  0.74317971  0.36411971  0.00318790  1
  O  O264  1  0.75396733  0.36612032  0.50462037  1
  O  O265  1  0.74199464  0.85861692  0.00449760  1
  O  O266  1  0.75120384  0.86511385  0.50274230  1
  O  O267  1  0.12978925  0.49644703  0.24695060  1
  O  O268  1  0.13784827  0.48333671  0.75275115  1
  O  O269  1  0.13734325  1.00740464  0.23490343  1
  O  O270  1  0.13088607  0.99517804  0.74569196  1
  O  O271  1  0.62238349  0.50023098  0.24121525  1
  O  O272  1  0.62165254  0.49627444  0.74627515  1
  O  O273  1  0.62965145  0.99212103  0.24067766  1
  O  O274  1  0.63894876  0.99828522  0.74904057  1
  O  O275  1  0.36460542  0.00748961  0.24910109  1
  O  O276  1  0.36740380  0.00679617  0.75540114  1
  O  O277  1  0.36527398  0.51001514  0.25279382  1
  O  O278  1  0.36385484  0.50674205  0.75435977  1
  O  O279  1  0.86703975  0.00578992  0.25445493  1
  O  O280  1  0.86083698  -0.00255451  0.75547227  1
  O  O281  1  0.87947083  0.49636341  0.27118737  1
  O  O282  1  0.88062755  0.50619950  0.75179978  1
  O  O283  1  0.11575625  0.37842551  0.36893874  1
  O  O284  1  0.13250985  0.35891804  0.86648455  1
  O  O285  1  0.10195528  0.90061156  0.36566240  1
  O  O286  1  0.12617875  0.86596517  0.86535439  1
  O  O287  1  0.61296828  0.36652872  0.37591174  1
  O  O288  1  0.61128941  0.36918662  0.87796735  1
  O  O289  1  0.62086881  0.87051880  0.36320332  1
  O  O290  1  0.61982737  0.88011245  0.85894936  1
  O  O291  1  0.37873059  0.13021078  0.13639479  1
  O  O292  1  0.38157655  0.13035440  0.63272014  1
  O  O293  1  0.38356314  0.62628617  0.13313499  1
  O  O294  1  0.37832247  0.63535879  0.63178008  1
  O  O295  1  0.88295701  0.13018544  0.12809694  1
  O  O296  1  0.89054246  0.12841586  0.62016807  1
  O  O297  1  0.87801122  0.63402049  0.12778547  1
  O  O298  1  0.87600458  0.64313621  0.61865669  1
  O  O299  1  0.25758614  0.25167489  0.11445618  1
  O  O300  1  0.25357229  0.25616153  0.62010517  1
  O  O301  1  0.24681739  0.75783757  0.11904848  1
  O  O302  1  0.25923788  0.76231704  0.63365892  1
  O  O303  1  0.76009079  0.25272735  0.11682371  1
  O  O304  1  0.75212947  0.25058473  0.61518264  1
  O  O305  1  0.75981476  0.75524103  0.12020868  1
  O  O306  1  0.76046583  0.75134879  0.61547209  1
  O  O307  1  0.25440912  0.23756698  0.38719691  1
  O  O308  1  0.24499289  0.24991021  0.88639061  1
  O  O309  1  0.23149960  0.80580366  0.38119539  1
  O  O310  1  0.23891769  0.74757585  0.88420905  1
  O  O311  1  0.74515481  0.24558018  0.37941789  1
  O  O312  1  0.74002255  0.25340429  0.87965802  1
  O  O313  1  0.73644634  0.75695890  0.38051993  1
  O  O314  1  0.75637658  0.75268502  0.88598487  1
  O  O315  1  0.00817457  0.11881596  0.01124761  1
  O  O316  1  0.00063704  0.11138511  0.50480995  1
  O  O317  1  0.01285372  0.61542104  0.00513155  1
  O  O318  1  0.00145451  0.61006366  0.50075363  1
  O  O319  1  0.50612520  0.11798918  0.00480141  1
  O  O320  1  0.50154196  0.11987610  0.50798714  1
  O  O321  1  0.50883027  0.61744570  0.00790562  1
  O  O322  1  0.50631180  0.62104611  0.50875155  1
  O  O323  1  0.49662242  0.38771948  0.49077970  1
  O  O324  1  0.49369480  0.38063606  0.99271001  1
  O  O325  1  0.49861135  0.88339262  0.49698290  1
  O  O326  1  0.49453213  0.89709395  1.01568026  1
  O  O327  1  0.99289197  0.37742496  0.49687953  1
  O  O328  1  1.01102163  0.38671117  0.99964332  1
  O  O329  1  0.99422619  0.88715666  0.49019371  1
  O  O330  1  1.01166947  0.88055500  0.99173079  1
  O  O331  1  0.49495005  0.49286433  0.38187748  1
  O  O332  1  0.49274433  0.49308411  0.88129777  1
  O  O333  1  0.50079689  0.99087252  0.38273447  1
  O  O334  1  0.48855350  1.00066427  0.88175892  1
  O  O335  1  0.99444832  0.48973835  0.38984975  1
  O  O336  1  1.00323030  0.50082550  0.88681836  1
  O  O337  1  0.98790554  1.00051169  0.37959899  1
  O  O338  1  0.98573351  1.00115551  0.87618317  1
  O  O339  1  0.00813206  0.00483621  0.12606204  1
  O  O340  1  0.00439844  0.00320282  0.61833013  1
  O  O341  1  0.01327614  0.49782295  0.12274044  1
  O  O342  1  0.00657076  0.49329292  0.61414616  1
  O  O343  1  0.50556688  0.01038132  0.12168586  1
  O  O344  1  0.50136336  0.00918028  0.61710522  1
  O  O345  1  0.50550471  0.50792384  0.11875844  1
  O  O346  1  0.49546600  0.51254221  0.61656134  1
  O  O347  1  0.24351641  0.38245096  0.25094789  1
  O  O348  1  0.24470286  0.37886084  0.74099200  1
  O  O349  1  0.25174019  0.88401933  0.24031709  1
  O  O350  1  0.24448430  0.88801404  0.74325248  1
  O  O351  1  0.74555415  0.38339322  0.24674372  1
  O  O352  1  0.75129860  0.39241053  0.74272619  1
  O  O353  1  0.74094146  0.87973815  0.24036389  1
  O  O354  1  0.73993556  0.88716662  0.74904370  1
  O  O355  1  0.25655683  0.12006082  0.25646803  1
  O  O356  1  0.25710905  0.11309048  0.74461335  1
  O  O357  1  0.26363580  0.61810683  0.24761659  1
  O  O358  1  0.25640922  0.61483382  0.74899979  1
  O  O359  1  0.75244083  0.11844954  0.25360626  1
  O  O360  1  0.74933871  0.11301229  0.75248565  1
  O  O361  1  0.75448454  0.61851414  0.25357164  1
  O  O362  1  0.74218167  0.60294964  0.74262669  1
  O  O363  1  0.37292890  0.12141530  0.36367655  1
  O  O364  1  0.37939966  0.11963015  0.86085415  1
  O  O365  1  0.38615568  0.62667640  0.36066385  1
  O  O366  1  0.37160010  0.61877016  0.86748935  1
  O  O367  1  0.86964755  0.11597115  0.36886606  1
  O  O368  1  0.87395535  0.11058664  0.87612858  1
  O  O369  1  0.88062473  0.60687744  0.38157148  1
  O  O370  1  0.87541715  0.59558291  0.89068981  1
  O  O371  1  0.12776681  0.38087841  0.13694874  1
  O  O372  1  0.13338673  0.38022908  0.63500483  1
  O  O373  1  0.13662660  0.88369745  0.12231559  1
  O  O374  1  0.13176761  0.88087186  0.63250317  1
  O  O375  1  0.62192400  0.39065279  0.12453066  1
  O  O376  1  0.61247746  0.35604648  0.63340403  1
  O  O377  1  0.63332891  0.87723086  0.12906571  1
  O  O378  1  0.62958013  0.87768083  0.63533241  1
  O  O379  1  0.12731976  0.26160958  0.24603222  1
  O  O380  1  0.12257917  0.25139422  0.75877771  1
  O  O381  1  0.10759081  0.74500740  0.23749424  1
  O  O382  1  0.13279747  0.76183748  0.75953423  1
  O  O383  1  0.61714254  0.25038759  0.25446019  1
  O  O384  1  0.62383420  0.24361037  0.75807741  1
  O  O385  1  0.62819621  0.75826839  0.25482482  1
  O  O386  1  0.63283243  0.76373231  0.74862046  1
  O  O387  1  0.37803765  0.24321532  0.24634916  1
  O  O388  1  0.36700463  0.23910141  0.73913720  1
  O  O389  1  0.37281697  0.73740321  0.24702664  1
  O  O390  1  0.36930034  0.74131606  0.74702908  1
  O  O391  1  0.87611971  0.24186890  0.24241929  1
  O  O392  1  0.88591256  0.25950649  0.75640739  1
  O  O393  1  0.88189016  0.74933817  0.24156292  1
  O  O394  1  0.87613972  0.74587745  0.74484353  1
  O  O395  1  0.38507501  0.51067626  0.49966613  1
  O  O396  1  0.37752980  0.49599275  0.99610142  1
  O  O397  1  0.38834561  0.99419566  0.50119108  1
  O  O398  1  0.37988218  1.00518203  0.98966651  1
  O  O399  1  0.88298434  0.49309889  0.49840430  1
  O  O400  1  0.89515337  0.49581163  1.01311869  1
  O  O401  1  0.88057327  0.99864288  0.49103703  1
  O  O402  1  0.87240126  1.00045553  0.98868700  1
  O  O403  1  0.13031830  0.00816545  0.01066287  1
  O  O404  1  0.11920315  -0.01130267  0.51099059  1
  O  O405  1  0.12291540  0.50343730  0.00802556  1
  O  O406  1  0.11051777  0.49458560  0.51295828  1
  O  O407  1  0.61969485  0.00742347  0.00031212  1
  O  O408  1  0.61549100  0.00418149  0.50042450  1
  O  O409  1  0.62301430  0.51008885  0.00437851  1
  O  O410  1  0.61123704  0.51104816  0.49418181  1
  O  O411  1  0.37575893  0.36917106  0.11917537  1
  O  O412  1  0.36239458  0.36708137  0.63142226  1
  O  O413  1  0.36266747  0.87333530  0.12067700  1
  O  O414  1  0.37279470  0.86949757  0.62461416  1
  O  O415  1  0.87971156  0.36232854  0.13195728  1
  O  O416  1  0.87762663  0.36733977  0.61266419  1
  O  O417  1  0.85993776  0.86912541  0.12611781  1
  O  O418  1  0.87033501  0.86172630  0.62407181  1
  O  O419  1  0.13351748  0.12141923  0.37015254  1
  O  O420  1  0.12244563  0.13005363  0.88813086  1
  O  O421  1  0.12604046  0.62304816  0.39537534  1
  O  O422  1  0.12745884  0.63013015  0.88206313  1
  O  O423  1  0.62793985  0.13062755  0.37850308  1
  O  O424  1  0.62281109  0.13275864  0.88520125  1
  O  O425  1  0.61430293  0.63614624  0.38486676  1
  O  O426  1  0.61755265  0.62416240  0.88993223  1
