# generated using pymatgen
data_V85Zn86O256
_symmetry_space_group_name_H-M   'P 1'
_cell_length_a   16.91112583
_cell_length_b   16.90388185
_cell_length_c   16.91334138
_cell_angle_alpha   90.05325496
_cell_angle_beta   90.01427124
_cell_angle_gamma   89.94947828
_symmetry_Int_Tables_number   1
_chemical_formula_structural   V85Zn86O256
_chemical_formula_sum   'V85 Zn86 O256'
_cell_volume   4834.90577216
_cell_formula_units_Z   1
loop_
 _symmetry_equiv_pos_site_id
 _symmetry_equiv_pos_as_xyz
  1  'x, y, z'
loop_
 _atom_site_type_symbol
 _atom_site_label
 _atom_site_symmetry_multiplicity
 _atom_site_fract_x
 _atom_site_fract_y
 _atom_site_fract_z
 _atom_site_occupancy
  V  V0  1  0.36422659  0.12802711  0.74508161  1
  V  V1  1  0.11856448  0.87168385  0.74941205  1
  V  V2  1  0.63062454  0.37452767  0.76277328  1
  V  V3  1  0.75195630  0.74981167  0.50277696  1
  V  V4  1  0.88889637  0.74751336  0.62988332  1
  V  V5  1  0.87047384  0.87983769  -0.00780909  1
  V  V6  1  0.50113484  0.25503481  0.76970145  1
  V  V7  1  0.74313547  0.24967986  -0.00413105  1
  V  V8  1  0.00666533  0.24905147  0.24955716  1
  V  V9  1  0.62706166  0.25257392  0.37596253  1
  V  V10  1  0.50076325  0.88272343  0.37136366  1
  V  V11  1  0.61992212  0.88010596  0.75571214  1
  V  V12  1  0.88135711  0.12736662  0.76117478  1
  V  V13  1  0.37712523  0.38023803  0.50151844  1
  V  V14  1  0.74828512  0.88401650  0.13933347  1
  V  V15  1  0.49866863  0.14044814  0.62529560  1
  V  V16  1  0.87740674  0.87676384  0.50202481  1
  V  V17  1  0.37631015  0.12115916  0.25858031  1
  V  V18  1  0.62457485  0.00218799  0.62650725  1
  V  V19  1  0.12958401  0.48962615  0.12512283  1
  V  V20  1  0.00062304  0.62253756  0.12543763  1
  V  V21  1  0.37538255  0.75455625  0.62613591  1
  V  V22  1  0.12364697  0.13183713  0.49088482  1
  V  V23  1  0.25293745  0.61965803  0.37785740  1
  V  V24  1  0.24568022  0.26071323  0.00358632  1
  V  V25  1  0.62062009  0.75488128  0.87726745  1
  V  V26  1  0.00132488  0.74860578  0.25007971  1
  V  V27  1  0.12737350  0.00732910  0.62917673  1
  V  V28  1  0.25040317  0.25402857  0.49075844  1
  V  V29  1  0.00837406  0.36879163  0.38168265  1
  V  V30  1  0.37643145  0.62050168  0.25383926  1
  V  V31  1  0.61703654  -0.00395324  0.13173385  1
  V  V32  1  -0.00113283  0.13692155  0.62686756  1
  V  V33  1  0.00008989  0.49853958  -0.00004330  1
  V  V34  1  0.37666204  0.01377233  0.87686730  1
  V  V35  1  0.12586689  0.74923291  0.37525346  1
  V  V36  1  0.25273967  -0.00309034  0.25847451  1
  V  V37  1  -0.00170952  0.36777942  0.87236619  1
  V  V38  1  0.49687268  0.38230801  0.37268132  1
  V  V39  1  0.50416162  0.75340006  0.24940036  1
  V  V40  1  0.74787116  0.37831888  0.61310948  1
  V  V41  1  0.24921578  0.87108609  0.11122458  1
  V  V42  1  0.62621977  0.49455017  0.12456825  1
  V  V43  1  0.36966722  0.25625894  0.12801710  1
  V  V44  1  0.49921063  0.75507875  0.75298504  1
  V  V45  1  0.62500956  0.62387606  0.50212515  1
  V  V46  1  0.24840514  0.50048974  0.74936585  1
  V  V47  1  0.73698324  0.11851690  0.87536516  1
  V  V48  1  0.87539495  0.49000863  0.37820488  1
  V  V49  1  0.12731032  0.87290355  0.24831131  1
  V  V50  1  0.12342243  -0.00121792  0.12251108  1
  V  V51  1  0.74823368  0.62271592  0.86427014  1
  V  V52  1  0.74989117  0.87577360  0.62685438  1
  V  V53  1  0.49635911  0.00602717  0.49871680  1
  V  V54  1  0.75127522  0.12898509  0.37265710  1
  V  V55  1  0.87277522  0.12285693  0.24543309  1
  V  V56  1  0.12820516  0.24394439  0.86947994  1
  V  V57  1  0.62652521  0.75672929  0.37352971  1
  V  V58  1  0.37472317  0.88129041  0.49389592  1
  V  V59  1  0.75260482  0.49607258  0.24884296  1
  V  V60  1  0.25042321  0.63403912  0.87928796  1
  V  V61  1  0.37220217  0.74918033  0.11816174  1
  V  V62  1  0.12846005  0.63332654  0.00209454  1
  V  V63  1  0.25492953  0.36925909  0.62633872  1
  V  V64  1  0.62733461  0.62350421  -0.00131512  1
  V  V65  1  0.87168030  0.74997387  0.12425767  1
  V  V66  1  0.25139348  0.75162624  0.49958221  1
  V  V67  1  0.37933514  0.49005553  0.87617340  1
  V  V68  1  0.87064487  0.49721878  0.87070416  1
  V  V69  1  0.87106891  -0.00092844  0.37065983  1
  V  V70  1  0.11846361  0.37199038  0.74752750  1
  V  V71  1  0.49895275  0.62340004  0.62610896  1
  V  V72  1  0.37443980  0.62740786  0.75269332  1
  V  V73  1  0.63281105  0.12834206  0.50099351  1
  V  V74  1  -0.00221360  -0.00106472  -0.01324493  1
  V  V75  1  0.39197321  0.87914540  -0.00773063  1
  V  V76  1  0.25308804  0.49282981  0.24896166  1
  V  V77  1  0.49562629  0.12321454  0.11806434  1
  V  V78  1  0.13394881  0.12175461  -0.00534702  1
  V  V79  1  0.89194956  0.62583189  0.74751695  1
  V  V80  1  0.75182117  0.62314853  0.37610488  1
  V  V81  1  -0.00322562  0.50442197  0.50715718  1
  V  V82  1  0.50156562  0.62303959  0.12353365  1
  V  V83  1  0.25336647  0.88494634  0.63107685  1
  V  V84  1  0.86318631  0.24998182  0.61526849  1
  Zn  Zn85  1  0.75589286  -0.00250850  0.75647298  1
  Zn  Zn86  1  0.13194717  0.36634310  0.25099015  1
  Zn  Zn87  1  0.87718670  0.62203324  0.25032235  1
  Zn  Zn88  1  -0.00085094  0.12531737  0.12147438  1
  Zn  Zn89  1  0.49373682  0.50454964  0.49592526  1
  Zn  Zn90  1  0.87498121  0.37132395  0.00160066  1
  Zn  Zn91  1  0.87466467  0.25058198  0.12305793  1
  Zn  Zn92  1  0.62538755  0.37136613  0.25030968  1
  Zn  Zn93  1  0.74802038  0.75179115  0.00172803  1
  Zn  Zn94  1  0.50681915  0.48935252  -0.00726482  1
  Zn  Zn95  1  0.37825645  0.37331556  0.00237942  1
  Zn  Zn96  1  0.00044515  0.87640571  0.37507127  1
  Zn  Zn97  1  0.11771145  0.50529071  0.62856283  1
  Zn  Zn98  1  -0.00032749  0.00467504  0.49960806  1
  Zn  Zn99  1  -0.01383263  0.86861164  0.86296987  1
  Zn  Zn100  1  0.50081416  0.24869020  0.24965272  1
  Zn  Zn101  1  0.24945488  0.12624887  0.37423634  1
  Zn  Zn102  1  0.11958357  0.75012898  0.87159162  1
  Zn  Zn103  1  0.62972107  0.50090156  0.63133147  1
  Zn  Zn104  1  0.11938958  0.62901321  0.50819761  1
  Zn  Zn105  1  0.61685056  0.12048646  -0.00128897  1
  Zn  Zn106  1  0.75299217  0.36967398  0.12537731  1
  Zn  Zn107  1  0.18787255  0.18287377  0.18598436  1
  Zn  Zn108  1  0.18579931  0.19374424  0.68169892  1
  Zn  Zn109  1  0.18991054  0.68350686  0.18637958  1
  Zn  Zn110  1  0.18597994  0.68911458  0.68457248  1
  Zn  Zn111  1  0.68730925  0.18396558  0.18550952  1
  Zn  Zn112  1  0.68637790  0.19148313  0.69356364  1
  Zn  Zn113  1  0.68923347  0.68545877  0.18861319  1
  Zn  Zn114  1  0.68896977  0.69125405  0.68821146  1
  Zn  Zn115  1  0.31753202  0.31150180  0.31615963  1
  Zn  Zn116  1  0.30888370  0.30582529  0.81077005  1
  Zn  Zn117  1  0.31489265  0.81107671  0.30952344  1
  Zn  Zn118  1  0.30795659  0.81897007  0.81474812  1
  Zn  Zn119  1  0.81587529  0.30937732  0.31273965  1
  Zn  Zn120  1  0.80933255  0.30481284  0.81090243  1
  Zn  Zn121  1  0.81494536  0.81105595  0.31306100  1
  Zn  Zn122  1  0.80695480  0.80731542  0.81102822  1
  Zn  Zn123  1  0.18503076  0.44070339  0.43928662  1
  Zn  Zn124  1  0.18705333  0.43953679  0.93473657  1
  Zn  Zn125  1  0.18405295  0.93936985  0.44074119  1
  Zn  Zn126  1  0.19508251  0.94123558  0.93048386  1
  Zn  Zn127  1  0.68531928  0.43835731  0.43979724  1
  Zn  Zn128  1  0.68991527  0.43598919  0.93698116  1
  Zn  Zn129  1  0.68924774  0.94141553  0.43620744  1
  Zn  Zn130  1  0.68455352  0.94010870  0.94466306  1
  Zn  Zn131  1  0.31268332  0.06097410  0.06393567  1
  Zn  Zn132  1  0.31355132  0.06836017  0.56207163  1
  Zn  Zn133  1  0.31184380  0.56083701  0.06231828  1
  Zn  Zn134  1  0.31009912  0.56090604  0.56499229  1
  Zn  Zn135  1  0.80983559  0.06070712  0.06086778  1
  Zn  Zn136  1  0.81283710  0.06213778  0.56526666  1
  Zn  Zn137  1  0.81206118  0.56208623  0.05855327  1
  Zn  Zn138  1  0.81599714  0.55934067  0.56586001  1
  Zn  Zn139  1  0.44015742  0.43613803  0.18706008  1
  Zn  Zn140  1  0.43905201  0.43532117  0.68883866  1
  Zn  Zn141  1  0.43520361  0.93670176  0.18659809  1
  Zn  Zn142  1  0.43827452  0.94687449  0.68948847  1
  Zn  Zn143  1  0.93855158  0.43223366  0.18900463  1
  Zn  Zn144  1  0.92982061  0.43344612  0.68968458  1
  Zn  Zn145  1  0.93819440  0.93709125  0.18561637  1
  Zn  Zn146  1  0.93865259  0.94726671  0.68414795  1
  Zn  Zn147  1  0.05809228  0.05966441  0.31184527  1
  Zn  Zn148  1  0.06325188  0.06084065  0.80903890  1
  Zn  Zn149  1  0.06534461  0.56009846  0.31482591  1
  Zn  Zn150  1  0.06328848  0.55930012  0.81634334  1
  Zn  Zn151  1  0.56566540  0.06255007  0.30685642  1
  Zn  Zn152  1  0.55281920  0.06007465  0.81388508  1
  Zn  Zn153  1  0.56561267  0.56330459  0.31184347  1
  Zn  Zn154  1  0.56286205  0.55988648  0.80973779  1
  Zn  Zn155  1  0.43721626  0.19604626  0.43825969  1
  Zn  Zn156  1  0.43182871  0.18914757  0.93974649  1
  Zn  Zn157  1  0.43728884  0.69090776  0.43678030  1
  Zn  Zn158  1  0.43976023  0.68503854  0.93923456  1
  Zn  Zn159  1  0.93617038  0.18964544  0.43791054  1
  Zn  Zn160  1  0.93793926  0.18740561  0.94041149  1
  Zn  Zn161  1  0.93603764  0.68539298  0.43653641  1
  Zn  Zn162  1  0.93982072  0.69007538  0.93603708  1
  Zn  Zn163  1  0.05946243  0.31015931  0.06190780  1
  Zn  Zn164  1  0.06168969  0.31374997  0.56319811  1
  Zn  Zn165  1  0.05719649  0.81289136  0.05827955  1
  Zn  Zn166  1  0.06465158  0.81517807  0.56325399  1
  Zn  Zn167  1  0.55951033  0.30969544  0.05857376  1
  Zn  Zn168  1  0.56682866  0.31550283  0.55947965  1
  Zn  Zn169  1  0.56613606  0.81381398  0.06589282  1
  Zn  Zn170  1  0.56197283  0.81386160  0.56323393  1
  O  O171  1  0.12301390  0.11326370  0.11549835  1
  O  O172  1  0.11761281  0.12376993  0.62004491  1
  O  O173  1  0.12134132  0.61646604  0.11881955  1
  O  O174  1  0.13277810  0.61775938  0.62045463  1
  O  O175  1  0.61301141  0.11602906  0.12644161  1
  O  O176  1  0.62047328  0.12330528  0.61828136  1
  O  O177  1  0.62337199  0.61643827  0.11902665  1
  O  O178  1  0.61813425  0.62649343  0.62006721  1
  O  O179  1  0.38700369  0.37351105  0.38365207  1
  O  O180  1  0.36697401  0.38858289  0.87161940  1
  O  O181  1  0.38385161  0.87048355  0.38611479  1
  O  O182  1  0.37852967  0.86543553  0.89174519  1
  O  O183  1  0.88512685  0.38437681  0.37133806  1
  O  O184  1  0.88092376  0.38044757  0.86986116  1
  O  O185  1  0.87366279  0.88155817  0.38338663  1
  O  O186  1  0.86774545  0.87003146  0.88747035  1
  O  O187  1  0.24590617  -0.00201243  0.36186619  1
  O  O188  1  0.27851454  -0.01699166  0.86634194  1
  O  O189  1  0.24539418  0.51377187  0.36872710  1
  O  O190  1  0.25662255  0.50719169  0.86490379  1
  O  O191  1  0.76121364  0.01089390  0.37819885  1
  O  O192  1  0.74954567  0.01396669  0.87679588  1
  O  O193  1  0.75634588  0.50127738  0.37038512  1
  O  O194  1  0.76303798  0.50637764  0.87904263  1
  O  O195  1  0.24203506  0.50507907  0.13587160  1
  O  O196  1  0.25152128  0.49170128  0.63904426  1
  O  O197  1  0.23968864  0.99081344  0.12944475  1
  O  O198  1  0.24277879  0.99500075  0.61748704  1
  O  O199  1  0.74432878  0.50015126  0.13275569  1
  O  O200  1  0.75133259  0.48351495  0.62497218  1
  O  O201  1  0.74594407  0.98828372  0.12789717  1
  O  O202  1  0.74133492  0.99350640  0.62681981  1
  O  O203  1  0.00403393  0.36701763  0.26140266  1
  O  O204  1  0.00976939  0.38016555  0.75654409  1
  O  O205  1  0.00803010  0.86560603  0.24944157  1
  O  O206  1  0.01377388  0.88308100  0.74619430  1
  O  O207  1  0.50361198  0.37166005  0.25836504  1
  O  O208  1  0.50545434  0.35988328  0.74619868  1
  O  O209  1  0.49326833  0.86633761  0.25930982  1
  O  O210  1  0.51183885  0.87089801  0.74192470  1
  O  O211  1  0.49059868  0.12439406  0.24217308  1
  O  O212  1  0.49760200  0.13891290  0.74302053  1
  O  O213  1  0.49363352  0.63112865  0.24684536  1
  O  O214  1  0.49520183  0.63279960  0.74322768  1
  O  O215  1  0.99146130  0.13114253  0.25017063  1
  O  O216  1  0.98900306  0.12462455  0.74445713  1
  O  O217  1  1.00094187  0.63122942  0.24451803  1
  O  O218  1  0.99056486  0.62500749  0.75407364  1
  O  O219  1  0.36189667  0.24935040  0.00811242  1
  O  O220  1  0.36459610  0.26431921  0.49847749  1
  O  O221  1  0.38274935  0.75810352  0.01175247  1
  O  O222  1  0.37304648  0.76170922  0.50672183  1
  O  O223  1  0.86328307  0.24913238  0.00145466  1
  O  O224  1  0.87284866  0.24657295  0.51604983  1
  O  O225  1  0.87394077  0.75682323  0.01270436  1
  O  O226  1  0.87033840  0.75546885  0.50611618  1
  O  O227  1  0.13361689  0.24231462  0.50564054  1
  O  O228  1  0.12919399  0.24156730  0.99511122  1
  O  O229  1  0.13237536  0.75182096  0.49285920  1
  O  O230  1  0.12489201  0.73636182  1.00428608  1
  O  O231  1  0.62061157  0.23980603  0.48730346  1
  O  O232  1  0.63864802  0.24108171  1.00556404  1
  O  O233  1  0.62949630  0.74226245  0.49509243  1
  O  O234  1  0.62410849  0.74351651  0.99358657  1
  O  O235  1  0.49042077  0.24004624  0.12895962  1
  O  O236  1  0.50219587  0.24148478  0.62285785  1
  O  O237  1  0.49680190  0.74502771  0.13345134  1
  O  O238  1  0.49492784  0.74213087  0.62967173  1
  O  O239  1  0.99694295  0.24629186  0.13382777  1
  O  O240  1  0.98898295  0.24315383  0.62371681  1
  O  O241  1  0.99230353  0.74444152  0.13030090  1
  O  O242  1  0.98797532  0.75212286  0.62088632  1
  O  O243  1  -0.00507919  0.26314057  0.37042083  1
  O  O244  1  0.00943458  0.26158450  0.88059738  1
  O  O245  1  0.00603286  0.75025559  0.36792087  1
  O  O246  1  0.00708824  0.75865993  0.88100386  1
  O  O247  1  0.50903416  0.26056922  0.37279140  1
  O  O248  1  0.50137377  0.24821818  0.86823500  1
  O  O249  1  0.50708403  0.76000019  0.37024358  1
  O  O250  1  0.51272746  0.74357476  0.86906624  1
  O  O251  1  0.24451478  0.13561475  0.49806119  1
  O  O252  1  0.23789578  0.12843057  1.00148476  1
  O  O253  1  0.25516833  0.63285366  0.49165134  1
  O  O254  1  0.24161679  0.61968942  0.99086470  1
  O  O255  1  0.73781981  0.11934227  0.49428981  1
  O  O256  1  0.75037516  0.12966821  0.98815803  1
  O  O257  1  0.74409458  0.62909017  0.49744833  1
  O  O258  1  0.74275253  0.62816410  0.98951041  1
  O  O259  1  0.24966365  0.36417881  -0.00149777  1
  O  O260  1  0.25370266  0.37316465  0.50536096  1
  O  O261  1  0.25661514  0.87605284  0.00918892  1
  O  O262  1  0.25879241  0.87356200  0.50526380  1
  O  O263  1  0.75121116  0.36036728  -0.00166813  1
  O  O264  1  0.74698048  0.37355619  0.51363616  1
  O  O265  1  0.75692875  0.87280295  0.01113934  1
  O  O266  1  0.75996647  0.87131488  0.50462673  1
  O  O267  1  0.13524825  0.50020317  0.24202552  1
  O  O268  1  0.13310320  0.49107905  0.75245891  1
  O  O269  1  0.12898310  0.99333047  0.24099598  1
  O  O270  1  0.12537092  0.99457613  0.73585017  1
  O  O271  1  0.63496170  0.49975563  0.24216746  1
  O  O272  1  0.61541336  0.48048565  0.74648309  1
  O  O273  1  0.63016445  1.00311852  0.23301561  1
  O  O274  1  0.62460499  0.99436006  0.74577653  1
  O  O275  1  0.36361552  0.00681327  0.24364939  1
  O  O276  1  0.37949683  0.02081372  0.75568865  1
  O  O277  1  0.36965987  0.51291116  0.24237544  1
  O  O278  1  0.36950700  0.50529839  0.75862083  1
  O  O279  1  0.88138701  0.00743348  0.25920055  1
  O  O280  1  0.87034097  0.02077190  0.74082154  1
  O  O281  1  0.86852897  0.50109071  0.25732060  1
  O  O282  1  0.87826615  0.51394108  0.75698632  1
  O  O283  1  0.11135487  0.37893639  0.37158166  1
  O  O284  1  0.11798731  0.36953486  0.86728626  1
  O  O285  1  0.12455960  0.86671723  0.36908613  1
  O  O286  1  0.13160532  0.87836350  0.85517963  1
  O  O287  1  0.62080676  0.36688854  0.37622103  1
  O  O288  1  0.62792983  0.37542242  0.86231347  1
  O  O289  1  0.61943277  0.86400217  0.38193141  1
  O  O290  1  0.62971728  0.86772622  0.86865524  1
  O  O291  1  0.37858720  0.12913660  0.13348126  1
  O  O292  1  0.38452205  0.12367417  0.63618578  1
  O  O293  1  0.38007396  0.63247658  0.12912710  1
  O  O294  1  0.38029241  0.63185967  0.63161690  1
  O  O295  1  0.87784027  0.12167649  0.13414635  1
  O  O296  1  0.87896271  0.13465122  0.62885444  1
  O  O297  1  0.87950156  0.63307493  0.12550051  1
  O  O298  1  0.87124897  0.63117586  0.63985490  1
  O  O299  1  0.25599908  0.24428727  0.11632976  1
  O  O300  1  0.24763539  0.26425013  0.61434317  1
  O  O301  1  0.26196900  0.75733810  0.13158368  1
  O  O302  1  0.25793313  0.76127993  0.61790103  1
  O  O303  1  0.75223587  0.24675581  0.11226342  1
  O  O304  1  0.75675362  0.25407470  0.62458841  1
  O  O305  1  0.75600605  0.75752018  0.12583182  1
  O  O306  1  0.75685669  0.75739082  0.61944141  1
  O  O307  1  0.24756997  0.25048304  0.38604689  1
  O  O308  1  0.23541965  0.25253871  0.88399988  1
  O  O309  1  0.24627567  0.74297797  0.37821991  1
  O  O310  1  0.24332328  0.73746571  0.86928616  1
  O  O311  1  0.74575506  0.23806299  0.37493305  1
  O  O312  1  0.75158808  0.23599282  0.88663935  1
  O  O313  1  0.74375955  0.74590401  0.38047925  1
  O  O314  1  0.73655111  0.74120420  0.87740503  1
  O  O315  1  0.00968643  0.11512467  -0.00009500  1
  O  O316  1  0.00736397  0.12861908  0.50711129  1
  O  O317  1  0.00724899  0.61742681  0.00546460  1
  O  O318  1  -0.00050035  0.60872823  0.49464019  1
  O  O319  1  0.49562089  0.12638513  0.01317882  1
  O  O320  1  0.50516656  0.12143925  0.50371767  1
  O  O321  1  0.51005110  0.61869728  0.00625588  1
  O  O322  1  0.50634155  0.62774726  0.50673337  1
  O  O323  1  0.49335361  0.37837997  0.49493868  1
  O  O324  1  0.49240853  0.37807958  1.00323851  1
  O  O325  1  0.49408924  0.88372130  0.49496739  1
  O  O326  1  0.48990719  0.87707526  1.00644599  1
  O  O327  1  1.00181613  0.38175494  0.48722381  1
  O  O328  1  0.99966429  0.38113069  0.98998744  1
  O  O329  1  0.98759469  0.87674331  0.49933223  1
  O  O330  1  0.98799203  0.88323033  1.00079914  1
  O  O331  1  0.50888161  0.48792735  0.37700972  1
  O  O332  1  0.48249944  0.50684853  0.87412852  1
  O  O333  1  0.50822902  0.98940772  0.38049404  1
  O  O334  1  0.47806496  0.99406236  0.86950799  1
  O  O335  1  0.99381912  0.49045353  0.38022237  1
  O  O336  1  0.99185254  0.48978252  0.87942279  1
  O  O337  1  0.98706419  0.99710950  0.37958276  1
  O  O338  1  1.00362774  0.99180222  0.88383612  1
  O  O339  1  0.01381198  -0.00352017  0.11718358  1
  O  O340  1  0.00708411  0.01699729  0.62054184  1
  O  O341  1  0.00719353  0.50489543  0.12181822  1
  O  O342  1  -0.00586494  0.48956957  0.60963498  1
  O  O343  1  0.50900050  0.00380272  0.12915274  1
  O  O344  1  0.50670068  0.01122568  0.61666941  1
  O  O345  1  0.51086702  0.50697264  0.12684482  1
  O  O346  1  0.49925576  0.51478106  0.62372733  1
  O  O347  1  0.25114649  0.38902369  0.25951521  1
  O  O348  1  0.24321178  0.37935706  0.74423625  1
  O  O349  1  0.24714042  0.87964900  0.24072424  1
  O  O350  1  0.24358931  0.87463805  0.73524039  1
  O  O351  1  0.74861128  0.38509146  0.25101277  1
  O  O352  1  0.73417163  0.36471589  0.74364040  1
  O  O353  1  0.75309103  0.87179470  0.23781477  1
  O  O354  1  0.73878656  0.87682341  0.74543231  1
  O  O355  1  0.25514472  0.11431256  0.25224539  1
  O  O356  1  0.26546828  0.13579033  0.74183157  1
  O  O357  1  0.25862986  0.61896745  0.25732531  1
  O  O358  1  0.25541780  0.61785860  0.75591747  1
  O  O359  1  0.76325900  0.12878174  0.25801276  1
  O  O360  1  0.75401812  0.12532199  0.76396606  1
  O  O361  1  0.75079959  0.61319035  0.25795202  1
  O  O362  1  0.75113270  0.62617124  0.76131642  1
  O  O363  1  0.37476868  0.12940058  0.36270161  1
  O  O364  1  0.37294961  0.12058607  0.86637721  1
  O  O365  1  0.36830295  0.63211945  0.36447765  1
  O  O366  1  0.36730738  0.62027271  0.87121205  1
  O  O367  1  0.86891612  0.11932619  0.37117317  1
  O  O368  1  0.87127058  0.12774369  0.86382064  1
  O  O369  1  0.86760875  0.61442683  0.37290557  1
  O  O370  1  0.86934644  0.62075876  0.86564831  1
  O  O371  1  0.12137676  0.38629550  0.12756911  1
  O  O372  1  0.13060462  0.37997880  0.63339566  1
  O  O373  1  0.13219354  0.87710073  0.12646953  1
  O  O374  1  0.13195600  0.88509707  0.63004371  1
  O  O375  1  0.62870437  0.38526816  0.12697997  1
  O  O376  1  0.63678915  0.37482617  0.62874928  1
  O  O377  1  0.63657136  0.88275915  0.12540178  1
  O  O378  1  0.62979354  0.88033053  0.63112947  1
  O  O379  1  0.11283023  0.24693526  0.24687096  1
  O  O380  1  0.12775471  0.25880862  0.75745943  1
  O  O381  1  0.12194609  0.75292103  0.25454569  1
  O  O382  1  0.12699190  0.76855555  0.74489688  1
  O  O383  1  0.62535272  0.24836195  0.26261566  1
  O  O384  1  0.61015195  0.25928071  0.74829619  1
  O  O385  1  0.61350363  0.74371079  0.25878105  1
  O  O386  1  0.62017592  0.75894739  0.75720779  1
  O  O387  1  0.37235674  0.23951745  0.24344787  1
  O  O388  1  0.38755741  0.24020069  0.75631390  1
  O  O389  1  0.38489892  0.74207894  0.24148269  1
  O  O390  1  0.37907291  0.74933000  0.74594299  1
  O  O391  1  0.88608045  0.24043107  0.24937493  1
  O  O392  1  0.86993940  0.23316223  0.73973354  1
  O  O393  1  0.88166155  0.74782332  0.24023905  1
  O  O394  1  0.87144567  0.73677901  0.74389180  1
  O  O395  1  0.37403818  0.48753082  0.50186619  1
  O  O396  1  0.37098621  0.49796883  0.98566605  1
  O  O397  1  0.38781214  0.99727873  0.50143503  1
  O  O398  1  0.37308441  0.99012912  0.99094704  1
  O  O399  1  0.88474494  0.50117187  0.49168449  1
  O  O400  1  0.88259747  0.49883466  0.98938432  1
  O  O401  1  0.87543973  0.99203901  0.49524188  1
  O  O402  1  0.88505529  0.99120022  1.00570884  1
  O  O403  1  0.12218106  0.00267490  0.00148675  1
  O  O404  1  0.12286967  0.00881482  0.51120315  1
  O  O405  1  0.12079199  0.50581423  0.00686767  1
  O  O406  1  0.10895515  0.50181047  0.50087913  1
  O  O407  1  0.63143404  0.00521812  0.02163207  1
  O  O408  1  0.61496941  0.00711888  0.50407663  1
  O  O409  1  0.62800020  0.50525696  0.00755816  1
  O  O410  1  0.62315309  0.51480949  0.50451430  1
  O  O411  1  0.37467449  0.35983517  0.12929768  1
  O  O412  1  0.36602855  0.37871226  0.61880329  1
  O  O413  1  0.36916491  0.86922958  0.11551723  1
  O  O414  1  0.37067083  0.87801502  0.61714560  1
  O  O415  1  0.87132108  0.37246755  0.12093398  1
  O  O416  1  0.85976043  0.35998538  0.63525522  1
  O  O417  1  0.86479661  0.86990910  0.12107355  1
  O  O418  1  0.87110508  0.87050478  0.62089003  1
  O  O419  1  0.12505910  0.11805320  0.38785994  1
  O  O420  1  0.12001736  0.13265379  0.87955098  1
  O  O421  1  0.13427245  0.63366946  0.37848878  1
  O  O422  1  0.13266446  0.62290377  0.88435257  1
  O  O423  1  0.63216200  0.12841538  0.38023213  1
  O  O424  1  0.63328812  0.12020364  0.87611398  1
  O  O425  1  0.62926313  0.63521786  0.38314904  1
  O  O426  1  0.63052897  0.62763394  0.87849947  1
