# generated using pymatgen
data_V85Zn86O256
_symmetry_space_group_name_H-M   'P 1'
_cell_length_a   16.93680601
_cell_length_b   16.93234143
_cell_length_c   16.94344278
_cell_angle_alpha   89.93995071
_cell_angle_beta   89.95306318
_cell_angle_gamma   90.00271036
_symmetry_Int_Tables_number   1
_chemical_formula_structural   V85Zn86O256
_chemical_formula_sum   'V85 Zn86 O256'
_cell_volume   4859.03251999
_cell_formula_units_Z   1
loop_
 _symmetry_equiv_pos_site_id
 _symmetry_equiv_pos_as_xyz
  1  'x, y, z'
loop_
 _atom_site_type_symbol
 _atom_site_label
 _atom_site_symmetry_multiplicity
 _atom_site_fract_x
 _atom_site_fract_y
 _atom_site_fract_z
 _atom_site_occupancy
  V  V0  1  0.13164245  0.12533881  -0.00446520  1
  V  V1  1  0.87820672  0.87439539  -0.00187510  1
  V  V2  1  0.74988552  0.50920203  0.25369989  1
  V  V3  1  0.74990608  0.75030541  0.00022824  1
  V  V4  1  0.12676596  0.25291706  0.37495191  1
  V  V5  1  0.37311261  0.25672134  0.62278459  1
  V  V6  1  -0.00412275  0.75003017  0.75117744  1
  V  V7  1  0.88394686  0.87925330  0.48859619  1
  V  V8  1  0.38560511  0.37939057  0.00386443  1
  V  V9  1  0.49343858  0.37774456  0.37464805  1
  V  V10  1  0.12256807  -0.00059513  0.62068210  1
  V  V11  1  0.74909397  -0.00384674  0.74906279  1
  V  V12  1  0.12336118  0.37561514  0.24946021  1
  V  V13  1  0.49932809  0.50229402  0.49585427  1
  V  V14  1  0.37346288  0.12580789  0.75520667  1
  V  V15  1  0.25584561  0.63425394  0.37103266  1
  V  V16  1  0.50291628  0.62494601  0.62845846  1
  V  V17  1  0.11764370  0.87651749  0.75097425  1
  V  V18  1  0.50496651  0.74267611  0.24920247  1
  V  V19  1  0.25159046  0.25885397  0.49962278  1
  V  V20  1  0.87833566  -0.00712386  0.87167091  1
  V  V21  1  0.25863449  -0.00341312  0.24340261  1
  V  V22  1  0.87592032  0.37133621  0.00407670  1
  V  V23  1  0.61961741  0.51804857  0.12437532  1
  V  V24  1  0.50027741  0.87996482  0.87768933  1
  V  V25  1  0.37472139  0.24611677  0.13104137  1
  V  V26  1  0.00062865  -0.00172350  -0.00631296  1
  V  V27  1  0.49976930  0.00229071  -0.00167728  1
  V  V28  1  0.31739179  0.57102482  0.70670724  1
  V  V29  1  0.75047926  0.00312366  0.25326713  1
  V  V30  1  0.24940091  0.37595035  0.12190506  1
  V  V31  1  0.62746429  0.87092630  0.25606233  1
  V  V32  1  0.91953142  0.06799490  0.30755721  1
  V  V33  1  0.74965405  0.87087804  0.62093711  1
  V  V34  1  0.11971395  0.62654173  0.00163296  1
  V  V35  1  0.74903551  0.74805413  0.48318176  1
  V  V36  1  -0.00219312  0.50202759  0.00540715  1
  V  V37  1  0.49841706  0.12654319  0.61958491  1
  V  V38  1  0.87210703  0.50764344  0.37868843  1
  V  V39  1  0.74541017  0.37761423  0.64028311  1
  V  V40  1  0.37628898  -0.00222429  0.37661209  1
  V  V41  1  0.74600445  0.12381351  0.37827881  1
  V  V42  1  0.25671543  0.50173065  0.25526687  1
  V  V43  1  0.87354628  0.24959639  0.62819149  1
  V  V44  1  0.00396388  0.25253966  0.74999560  1
  V  V45  1  0.49856812  0.86726582  0.37908985  1
  V  V46  1  0.49108129  0.74782183  0.75088901  1
  V  V47  1  0.75230008  0.62513770  0.87796220  1
  V  V48  1  0.14001773  0.24810907  0.87250055  1
  V  V49  1  0.37645954  0.75108043  0.12816554  1
  V  V50  1  0.12354930  0.50637040  0.12602843  1
  V  V51  1  0.88442272  0.74090293  0.12398681  1
  V  V52  1  0.62637999  0.37304635  0.24857805  1
  V  V53  1  0.24593488  0.62362613  0.87304029  1
  V  V54  1  0.11799665  0.62447461  0.49141867  1
  V  V55  1  0.12967655  -0.01141647  0.12117516  1
  V  V56  1  0.25833422  0.12764785  0.36917306  1
  V  V57  1  0.25252189  0.87733689  0.61855365  1
  V  V58  1  0.37475074  0.50371217  0.87782622  1
  V  V59  1  0.62483360  0.00193785  0.61915751  1
  V  V60  1  0.00020595  0.38269778  0.38271818  1
  V  V61  1  -0.00834401  0.25158000  0.25151252  1
  V  V62  1  0.87180927  0.49750451  0.87175554  1
  V  V63  1  0.12127360  0.75247974  0.87328477  1
  V  V64  1  0.14590577  0.38109360  0.74635209  1
  V  V65  1  0.37246352  0.75533284  0.61725316  1
  V  V66  1  0.49759270  0.12312379  0.13467992  1
  V  V67  1  0.62333990  0.86674545  0.75183766  1
  V  V68  1  0.74683859  0.25020779  -0.00353595  1
  V  V69  1  0.00545651  0.74650906  0.25963492  1
  V  V70  1  0.24837451  0.00403194  0.75569153  1
  V  V71  1  0.00259548  0.37343451  0.87568665  1
  V  V72  1  0.49835420  -0.00415493  0.49946763  1
  V  V73  1  0.62459054  0.12769677  -0.00201286  1
  V  V74  1  -0.00093572  0.61220175  0.62317380  1
  V  V75  1  0.24574041  0.75941648  0.00745095  1
  V  V76  1  0.87218541  0.38083851  0.50286063  1
  V  V77  1  0.86970736  0.74790803  0.62290802  1
  V  V78  1  -0.00242962  0.12303333  0.12353433  1
  V  V79  1  0.00242179  0.12582976  0.62050823  1
  V  V80  1  0.62353749  0.24809303  0.38155248  1
  V  V81  1  0.87616930  0.12223945  0.74964484  1
  V  V82  1  0.58078794  0.69453091  0.93325266  1
  V  V83  1  0.62897485  0.62962130  0.48868266  1
  V  V84  1  0.12402882  0.87274307  0.26753353  1
  Zn  Zn85  1  0.51947842  0.26687226  0.74827687  1
  Zn  Zn86  1  0.25493727  0.24645427  -0.00126719  1
  Zn  Zn87  1  0.87029807  0.24398826  0.12828066  1
  Zn  Zn88  1  0.62224394  0.48693252  0.63459716  1
  Zn  Zn89  1  0.74684987  0.24742847  0.50134243  1
  Zn  Zn90  1  0.14003923  0.49946450  0.62648284  1
  Zn  Zn91  1  0.00013798  -0.00147046  0.48292229  1
  Zn  Zn92  1  0.87180219  0.61854680  0.74709046  1
  Zn  Zn93  1  0.88057198  0.62366393  0.24892079  1
  Zn  Zn94  1  0.37193112  0.00331402  0.87659022  1
  Zn  Zn95  1  0.50366490  0.51998302  0.00392577  1
  Zn  Zn96  1  0.36938276  0.88001019  0.00464980  1
  Zn  Zn97  1  0.24489867  0.75806234  0.49033084  1
  Zn  Zn98  1  0.74983296  0.37406125  0.12816008  1
  Zn  Zn99  1  0.75133420  0.87591955  0.12767976  1
  Zn  Zn100  1  0.49781770  0.24604733  0.25373975  1
  Zn  Zn101  1  0.12862100  0.12659266  0.49921094  1
  Zn  Zn102  1  0.75032855  0.12451747  0.87596426  1
  Zn  Zn103  1  0.51837315  0.37663939  0.86951364  1
  Zn  Zn104  1  0.62604231  -0.00057635  0.12750186  1
  Zn  Zn105  1  0.37154211  0.38284417  0.49909120  1
  Zn  Zn106  1  0.38198537  0.61968581  0.24541693  1
  Zn  Zn107  1  0.18564277  0.18501339  0.18634512  1
  Zn  Zn108  1  0.19160542  0.18990165  0.68576174  1
  Zn  Zn109  1  0.18663275  0.69093276  0.18742710  1
  Zn  Zn110  1  0.17856421  0.69309563  0.67813062  1
  Zn  Zn111  1  0.68790621  0.18593455  0.18831909  1
  Zn  Zn112  1  0.69048435  0.18205554  0.68119515  1
  Zn  Zn113  1  0.69366745  0.69165358  0.19081444  1
  Zn  Zn114  1  0.66703622  0.65438927  0.70904532  1
  Zn  Zn115  1  0.31372462  0.31562416  0.30978422  1
  Zn  Zn116  1  0.34362202  0.30383797  0.82423740  1
  Zn  Zn117  1  0.31377978  0.81604076  0.30795019  1
  Zn  Zn118  1  0.30954862  0.81544473  0.81101775  1
  Zn  Zn119  1  0.80976015  0.31600397  0.31565498  1
  Zn  Zn120  1  0.68439081  0.30139362  0.81710141  1
  Zn  Zn121  1  0.81892353  0.81385092  0.30966669  1
  Zn  Zn122  1  0.80992363  0.80900923  0.81322357  1
  Zn  Zn123  1  0.18636377  0.44476890  0.43755291  1
  Zn  Zn124  1  0.18953424  0.43708698  0.93576186  1
  Zn  Zn125  1  0.18931879  0.94238500  0.43891909  1
  Zn  Zn126  1  0.18332707  0.93689318  0.93284822  1
  Zn  Zn127  1  0.68655547  0.43817647  0.44091179  1
  Zn  Zn128  1  0.68944432  0.44242575  0.94590293  1
  Zn  Zn129  1  0.68756819  0.93638612  0.43525634  1
  Zn  Zn130  1  0.68632038  0.93794575  0.93655776  1
  Zn  Zn131  1  0.31463292  0.06294964  0.06232775  1
  Zn  Zn132  1  0.31392559  0.06594832  0.55895370  1
  Zn  Zn133  1  0.31051393  0.56817672  0.06348338  1
  Zn  Zn134  1  0.31581913  0.56878591  0.54245002  1
  Zn  Zn135  1  0.81220423  0.06100032  0.06489436  1
  Zn  Zn136  1  0.81345997  0.05991393  0.55831948  1
  Zn  Zn137  1  0.80684981  0.56295930  0.06342609  1
  Zn  Zn138  1  0.80813040  0.56026582  0.56330596  1
  Zn  Zn139  1  0.44173253  0.43796454  0.18697567  1
  Zn  Zn140  1  0.44365169  0.43223348  0.68612750  1
  Zn  Zn141  1  0.43845061  0.93162727  0.18679303  1
  Zn  Zn142  1  0.43627661  0.93768940  0.68811200  1
  Zn  Zn143  1  0.93677522  0.43821789  0.18901838  1
  Zn  Zn144  1  0.93635019  0.43311912  0.69143246  1
  Zn  Zn145  1  0.94354371  0.92769825  0.18055718  1
  Zn  Zn146  1  0.93745994  0.93455543  0.68088053  1
  Zn  Zn147  1  0.08435544  0.06586712  0.30755331  1
  Zn  Zn148  1  0.06228002  0.06458791  0.81205303  1
  Zn  Zn149  1  0.06292250  0.56424474  0.31250572  1
  Zn  Zn150  1  0.06045161  0.56011646  0.81059835  1
  Zn  Zn151  1  0.56629324  0.05992907  0.31515782  1
  Zn  Zn152  1  0.57947753  0.09211935  0.79577111  1
  Zn  Zn153  1  0.56476229  0.56042205  0.31218964  1
  Zn  Zn154  1  0.55783773  0.54312037  0.80575825  1
  Zn  Zn155  1  0.43769044  0.18478571  0.43775183  1
  Zn  Zn156  1  0.44231629  0.19365120  0.93691865  1
  Zn  Zn157  1  0.43551550  0.68627967  0.43583130  1
  Zn  Zn158  1  0.41757148  0.69186900  0.93365192  1
  Zn  Zn159  1  0.93961105  0.19629578  0.44366578  1
  Zn  Zn160  1  0.93839555  0.18703119  0.93549150  1
  Zn  Zn161  1  0.93938914  0.69021378  0.43809075  1
  Zn  Zn162  1  0.93802845  0.68695525  0.93593583  1
  Zn  Zn163  1  0.06354757  0.31048048  0.06268235  1
  Zn  Zn164  1  0.06689014  0.31776077  0.56425000  1
  Zn  Zn165  1  0.05775294  0.81201404  0.06286988  1
  Zn  Zn166  1  0.06004559  0.80667725  0.56149417  1
  Zn  Zn167  1  0.56445193  0.31086826  0.06508613  1
  Zn  Zn168  1  0.56143750  0.31184320  0.56149275  1
  Zn  Zn169  1  0.55869088  0.81966959  0.07276985  1
  Zn  Zn170  1  0.56478175  0.80938206  0.56085437  1
  O  O171  1  0.11578961  0.11573901  0.11960191  1
  O  O172  1  0.11874133  0.11874082  0.62331850  1
  O  O173  1  0.13056796  0.61435525  0.11682691  1
  O  O174  1  0.11519382  0.61931446  0.61858909  1
  O  O175  1  0.61523391  0.12187347  0.11701986  1
  O  O176  1  0.61718817  0.10927137  0.62539587  1
  O  O177  1  0.62713897  0.61634900  0.13240488  1
  O  O178  1  0.60608019  0.64161792  0.61033443  1
  O  O179  1  0.38974970  0.37118235  0.37543089  1
  O  O180  1  0.35858079  0.39523795  0.89189606  1
  O  O181  1  0.38297955  0.88775142  0.37055067  1
  O  O182  1  0.38814979  0.87501711  0.87571272  1
  O  O183  1  0.88163672  0.38027904  0.38531948  1
  O  O184  1  0.88524659  0.38435094  0.89235380  1
  O  O185  1  0.87534508  0.87459933  0.39000314  1
  O  O186  1  0.87184988  0.88531493  0.87971641  1
  O  O187  1  0.25820334  0.00665467  0.37009765  1
  O  O188  1  0.25093189  -0.00446222  0.85985496  1
  O  O189  1  0.24450305  0.51271550  0.36362412  1
  O  O190  1  0.25227052  0.51680784  0.88043987  1
  O  O191  1  0.74908288  0.00744531  0.36511720  1
  O  O192  1  0.75886292  -0.00019727  0.86687230  1
  O  O193  1  0.76000332  0.49298306  0.36774158  1
  O  O194  1  0.76212044  0.51183781  0.88764350  1
  O  O195  1  0.24176592  0.49472362  0.12949725  1
  O  O196  1  0.26197646  0.51856727  0.63386980  1
  O  O197  1  0.24300179  1.00569786  0.13301405  1
  O  O198  1  0.23922931  0.99685518  0.62769159  1
  O  O199  1  0.73975589  0.49767378  0.13412248  1
  O  O200  1  0.75332904  0.48071648  0.62693831  1
  O  O201  1  0.75095755  0.99872996  0.13984380  1
  O  O202  1  0.74238143  0.99301160  0.62633994  1
  O  O203  1  0.00569394  0.36854235  0.25637510  1
  O  O204  1  0.00470683  0.36700230  0.75796535  1
  O  O205  1  0.01690804  0.86802919  0.24628897  1
  O  O206  1  0.01004244  0.86702018  0.74122446  1
  O  O207  1  0.50778436  0.37404307  0.25822089  1
  O  O208  1  0.51663520  0.38193444  0.75142212  1
  O  O209  1  0.50753039  0.86694705  0.25778243  1
  O  O210  1  0.50480766  0.87039552  0.75721341  1
  O  O211  1  0.50434581  0.12249495  0.23772965  1
  O  O212  1  0.48776674  0.11866308  0.73287258  1
  O  O213  1  0.49914402  0.63839375  0.25977866  1
  O  O214  1  0.49851758  0.63670872  0.74148424  1
  O  O215  1  0.99570114  0.12801820  0.24684003  1
  O  O216  1  0.99731707  0.13060631  0.73834399  1
  O  O217  1  1.00299395  0.64075185  0.24980310  1
  O  O218  1  0.99689913  0.63189997  0.74154278  1
  O  O219  1  0.37245590  0.26073090  0.01115901  1
  O  O220  1  0.36934252  0.25166496  0.50518450  1
  O  O221  1  0.36292700  0.75421216  0.00981278  1
  O  O222  1  0.36931021  0.74375071  0.51400294  1
  O  O223  1  0.87253580  0.25642052  0.00325305  1
  O  O224  1  0.87513749  0.26050088  0.51339912  1
  O  O225  1  0.87265895  0.75615240  0.00482022  1
  O  O226  1  0.87099908  0.75713313  0.50516326  1
  O  O227  1  0.13367439  0.25085365  0.49340595  1
  O  O228  1  0.12752344  0.24319310  0.99122196  1
  O  O229  1  0.12957533  0.73179051  0.50891521  1
  O  O230  1  0.12642974  0.74451382  0.99623777  1
  O  O231  1  0.62628832  0.25269844  0.48584468  1
  O  O232  1  0.63277019  0.24044174  1.00516546  1
  O  O233  1  0.63437439  0.74157749  0.49693746  1
  O  O234  1  0.63138749  0.75716423  1.00247054  1
  O  O235  1  0.49264694  0.24101334  0.12742058  1
  O  O236  1  0.49489562  0.24172736  0.62707473  1
  O  O237  1  0.48878886  0.75177161  0.13507885  1
  O  O238  1  0.48947516  0.74806622  0.63088980  1
  O  O239  1  1.00366294  0.24051065  0.13568612  1
  O  O240  1  0.99745843  0.24371963  0.62839536  1
  O  O241  1  0.99223549  0.75328844  0.13461946  1
  O  O242  1  0.98921699  0.74108512  0.63231395  1
  O  O243  1  0.00505927  0.25924391  0.36870056  1
  O  O244  1  0.00985040  0.25466812  0.86904173  1
  O  O245  1  -0.00380368  0.75229260  0.35869110  1
  O  O246  1  0.00404007  0.74488845  0.85937036  1
  O  O247  1  0.50635327  0.25477430  0.37355380  1
  O  O248  1  0.46207280  0.27128179  0.85760336  1
  O  O249  1  0.49070354  0.76121406  0.36777898  1
  O  O250  1  0.50451287  0.75285725  0.87151271  1
  O  O251  1  0.25163245  0.13377880  0.48510856  1
  O  O252  1  0.23581249  0.12607867  1.00457626  1
  O  O253  1  0.24256069  0.63097984  0.48330717  1
  O  O254  1  0.23783296  0.63513133  0.99273490  1
  O  O255  1  0.75679454  0.12595168  0.48413009  1
  O  O256  1  0.74238429  0.13005856  1.00361438  1
  O  O257  1  0.73614516  0.63211148  0.50635305  1
  O  O258  1  0.75179308  0.63669976  0.99203615  1
  O  O259  1  0.25481466  0.37669864  0.01329147  1
  O  O260  1  0.25324768  0.36414470  0.48761664  1
  O  O261  1  0.24812416  0.86289652  -0.00778796  1
  O  O262  1  0.24417089  0.87469245  0.51294219  1
  O  O263  1  0.76066514  0.36736924  0.00665507  1
  O  O264  1  0.75991777  0.36985537  0.50569438  1
  O  O265  1  0.76061257  0.87112092  0.00123824  1
  O  O266  1  0.75664301  0.86721204  0.50261645  1
  O  O267  1  0.13012913  0.49592966  0.24127797  1
  O  O268  1  0.12650724  0.48568048  0.75118681  1
  O  O269  1  0.13328798  0.98805667  0.24044682  1
  O  O270  1  0.12887264  0.99487606  0.74309932  1
  O  O271  1  0.63178619  0.49434994  0.24431910  1
  O  O272  1  0.63624166  0.54324464  0.73089131  1
  O  O273  1  0.63454180  0.99242607  0.24978065  1
  O  O274  1  0.62963230  0.99256449  0.74082111  1
  O  O275  1  0.36376801  -0.00680217  0.25387357  1
  O  O276  1  0.36435577  0.00671986  0.74793192  1
  O  O277  1  0.36101923  0.50209676  0.24056364  1
  O  O278  1  0.37584996  0.49965458  0.75838045  1
  O  O279  1  0.87255053  -0.00464169  0.24807349  1
  O  O280  1  0.87228270  -0.00047479  0.75423797  1
  O  O281  1  0.86808645  0.50045556  0.25771099  1
  O  O282  1  0.87953453  0.49869218  0.76785723  1
  O  O283  1  0.11762697  0.37346396  0.37092045  1
  O  O284  1  0.12240694  0.36832042  0.86749967  1
  O  O285  1  0.12310762  0.88122620  0.36581923  1
  O  O286  1  0.12599627  0.86707516  0.86158656  1
  O  O287  1  0.61904532  0.36901927  0.36668858  1
  O  O288  1  0.63079168  0.37338908  0.88341272  1
  O  O289  1  0.61437002  0.87887581  0.36461127  1
  O  O290  1  0.61269578  0.87970047  0.86476439  1
  O  O291  1  0.38409368  0.13495668  0.11942701  1
  O  O292  1  0.38159599  0.13198125  0.62706370  1
  O  O293  1  0.36981402  0.64239825  0.12749578  1
  O  O294  1  0.37863957  0.63020538  0.63158692  1
  O  O295  1  0.89260401  0.12442537  0.11930774  1
  O  O296  1  0.88201427  0.12951058  0.62700850  1
  O  O297  1  0.87269000  0.63684187  0.12552579  1
  O  O298  1  0.87918348  0.63036124  0.62517194  1
  O  O299  1  0.25441412  0.25828278  0.12549333  1
  O  O300  1  0.25828526  0.24417038  0.60896159  1
  O  O301  1  0.25630276  0.74956027  0.11704369  1
  O  O302  1  0.25659273  0.76085734  0.62712713  1
  O  O303  1  0.75324910  0.25088427  0.11682893  1
  O  O304  1  0.75890592  0.25375337  0.62179194  1
  O  O305  1  0.75964039  0.75282393  0.11541878  1
  O  O306  1  0.76219811  0.75309689  0.61773267  1
  O  O307  1  0.24938130  0.24413204  0.37533081  1
  O  O308  1  0.24258359  0.25472388  0.87731160  1
  O  O309  1  0.25072087  0.73942288  0.37090165  1
  O  O310  1  0.24378568  0.74187200  0.88015070  1
  O  O311  1  0.74219544  0.24304007  0.37487309  1
  O  O312  1  0.75630371  0.24290217  0.89249593  1
  O  O313  1  0.75920794  0.74794447  0.38426840  1
  O  O314  1  0.75313107  0.74760540  0.89230277  1
  O  O315  1  0.01067697  0.12014640  0.00581282  1
  O  O316  1  0.00084120  0.12390149  0.51144622  1
  O  O317  1  0.01184750  0.61837495  -0.00339511  1
  O  O318  1  0.01042064  0.62802957  0.50591871  1
  O  O319  1  0.50509623  0.12101912  0.00478532  1
  O  O320  1  0.49690597  0.11510791  0.51158740  1
  O  O321  1  0.50916665  0.64012084  -0.01332923  1
  O  O322  1  0.50647823  0.62176922  0.50261534  1
  O  O323  1  0.50251941  0.38492726  0.49250039  1
  O  O324  1  0.48950665  0.37653337  1.00217338  1
  O  O325  1  0.50321819  0.87939372  0.48946420  1
  O  O326  1  0.49953303  0.88367857  0.99408095  1
  O  O327  1  0.99197424  0.37076144  0.49189813  1
  O  O328  1  0.99845805  0.38157784  0.99619139  1
  O  O329  1  0.98866788  0.87549359  0.50255624  1
  O  O330  1  0.98670160  0.88060632  1.00000569  1
  O  O331  1  0.50805244  0.48977469  0.38260809  1
  O  O332  1  0.48946130  0.49958118  0.88364392  1
  O  O333  1  0.49481910  0.99394133  0.38057705  1
  O  O334  1  0.49778422  0.99382343  0.88497498  1
  O  O335  1  0.99282825  0.48761860  0.36732199  1
  O  O336  1  0.99608463  0.49528597  0.88757136  1
  O  O337  1  0.99352595  1.01971169  0.36574951  1
  O  O338  1  0.99212214  1.00314387  0.88121671  1
  O  O339  1  0.00846562  0.00462619  0.11628600  1
  O  O340  1  0.01137936  0.00760103  0.62632177  1
  O  O341  1  0.00850727  0.49555785  0.11426984  1
  O  O342  1  -0.00344325  0.51079722  0.63064046  1
  O  O343  1  0.49730932  0.00615598  0.11647005  1
  O  O344  1  0.50457799  0.00133956  0.61693416  1
  O  O345  1  0.51386958  0.50440925  0.12659604  1
  O  O346  1  0.50199590  0.51051268  0.61708882  1
  O  O347  1  0.24384502  0.38279965  0.24185496  1
  O  O348  1  0.24202624  0.37136245  0.75617907  1
  O  O349  1  0.23532728  0.88253402  0.25312309  1
  O  O350  1  0.23904225  0.88255097  0.73908894  1
  O  O351  1  0.74287262  0.38435590  0.24913999  1
  O  O352  1  0.75119176  0.36272455  0.73788580  1
  O  O353  1  0.74420215  0.88120575  0.25328887  1
  O  O354  1  0.74082453  0.87570936  0.74357968  1
  O  O355  1  0.24233250  0.11375116  0.26114506  1
  O  O356  1  0.25793125  0.11361379  0.74149873  1
  O  O357  1  0.24507793  0.61973420  0.25920090  1
  O  O358  1  0.24640491  0.63315341  0.75635914  1
  O  O359  1  0.75223044  0.11654788  0.26028527  1
  O  O360  1  0.76137267  0.11311014  0.74838147  1
  O  O361  1  0.75534184  0.61337870  0.25090573  1
  O  O362  1  0.76055216  0.64674555  0.77363042  1
  O  O363  1  0.37114977  0.11223988  0.37304029  1
  O  O364  1  0.37977474  0.12424606  0.85871125  1
  O  O365  1  0.35961525  0.62573175  0.36966615  1
  O  O366  1  0.36243362  0.61530122  0.87193744  1
  O  O367  1  0.87044170  0.13346335  0.37213217  1
  O  O368  1  0.87599918  0.11234852  0.86782207  1
  O  O369  1  0.88308791  0.61020265  0.37603370  1
  O  O370  1  0.87052701  0.61481676  0.87739740  1
  O  O371  1  0.13163654  0.38331063  0.12799782  1
  O  O372  1  0.12755365  0.37951756  0.63984324  1
  O  O373  1  0.12397033  0.88695288  0.12230404  1
  O  O374  1  0.12802457  0.88231963  0.62960801  1
  O  O375  1  0.62360628  0.37799342  0.13995331  1
  O  O376  1  0.64069195  0.37067728  0.62143213  1
  O  O377  1  0.62875887  0.87928253  0.14088162  1
  O  O378  1  0.62856716  0.88193720  0.63078497  1
  O  O379  1  0.11622759  0.25553036  0.25522162  1
  O  O380  1  0.12415254  0.25784168  0.75506338  1
  O  O381  1  0.11736833  0.76245690  0.24658306  1
  O  O382  1  0.11579371  0.75861847  0.75076991  1
  O  O383  1  0.62369364  0.25773055  0.25892050  1
  O  O384  1  0.62314209  0.21712099  0.76512266  1
  O  O385  1  0.61807743  0.75740771  0.24739399  1
  O  O386  1  0.61175898  0.76155318  0.74307678  1
  O  O387  1  0.37736436  0.25498003  0.23560256  1
  O  O388  1  0.36293149  0.23745947  0.73408323  1
  O  O389  1  0.38126589  0.74941192  0.24100909  1
  O  O390  1  0.38555548  0.75700144  0.74315234  1
  O  O391  1  0.88778389  0.25805989  0.24852040  1
  O  O392  1  0.88543776  0.24151104  0.73600745  1
  O  O393  1  0.88799621  0.75074118  0.24196035  1
  O  O394  1  0.88217912  0.75306373  0.74117637  1
  O  O395  1  0.39228847  0.49976681  0.49832422  1
  O  O396  1  0.38043592  0.50025446  0.99818432  1
  O  O397  1  0.38728445  1.00084259  0.49205897  1
  O  O398  1  0.38316447  0.99905130  0.99631288  1
  O  O399  1  0.87108430  0.48982911  0.49438291  1
  O  O400  1  0.88315537  0.49529622  0.99994537  1
  O  O401  1  0.88093847  0.98394765  0.50461985  1
  O  O402  1  0.87833423  0.99324720  0.99217408  1
  O  O403  1  0.12151302  0.00550589  0.00264383  1
  O  O404  1  0.11879013  0.00456348  0.50637204  1
  O  O405  1  0.11936152  0.50633070  0.00572214  1
  O  O406  1  0.13243144  0.51770237  0.50779389  1
  O  O407  1  0.61549603  0.00311264  0.00636847  1
  O  O408  1  0.61259723  -0.00708608  0.50694007  1
  O  O409  1  0.62375290  0.50203154  0.02065115  1
  O  O410  1  0.61962224  0.51296231  0.50737457  1
  O  O411  1  0.36828890  0.37217845  0.11995449  1
  O  O412  1  0.38007173  0.36094412  0.62018888  1
  O  O413  1  0.37512703  0.85964718  0.12244981  1
  O  O414  1  0.36452723  0.86831774  0.62882131  1
  O  O415  1  0.87817783  0.37268439  0.11434353  1
  O  O416  1  0.86858045  0.36796267  0.62178172  1
  O  O417  1  0.87285843  0.86487195  0.11467773  1
  O  O418  1  0.86867455  0.86657365  0.61633490  1
  O  O419  1  0.13666711  0.13617271  0.37835220  1
  O  O420  1  0.12138545  0.13521996  0.88247210  1
  O  O421  1  0.12995151  0.62339698  0.38599089  1
  O  O422  1  0.12801841  0.63074627  0.88007464  1
  O  O423  1  0.63334542  0.13428398  0.37118333  1
  O  O424  1  0.62997156  0.11325429  0.89403439  1
  O  O425  1  0.62310049  0.62344552  0.39005105  1
  O  O426  1  0.63263291  0.62526488  0.87652854  1
