# generated using pymatgen
data_V85Zn86O256
_symmetry_space_group_name_H-M   'P 1'
_cell_length_a   16.93014945
_cell_length_b   16.93829108
_cell_length_c   16.93824428
_cell_angle_alpha   89.99650952
_cell_angle_beta   89.99543807
_cell_angle_gamma   90.03513984
_symmetry_Int_Tables_number   1
_chemical_formula_structural   V85Zn86O256
_chemical_formula_sum   'V85 Zn86 O256'
_cell_volume   4857.34209745
_cell_formula_units_Z   1
loop_
 _symmetry_equiv_pos_site_id
 _symmetry_equiv_pos_as_xyz
  1  'x, y, z'
loop_
 _atom_site_type_symbol
 _atom_site_label
 _atom_site_symmetry_multiplicity
 _atom_site_fract_x
 _atom_site_fract_y
 _atom_site_fract_z
 _atom_site_occupancy
  V  V0  1  0.88291492  0.37917363  0.00041205  1
  V  V1  1  0.62134127  0.37205419  0.75059857  1
  V  V2  1  0.00251220  0.62015659  0.11915576  1
  V  V3  1  0.36830182  0.76288891  0.62126262  1
  V  V4  1  0.25489261  0.12475707  0.38390045  1
  V  V5  1  0.74813338  -0.00235375  0.25354126  1
  V  V6  1  0.12779572  0.86894258  0.25183367  1
  V  V7  1  0.50256879  0.37528606  0.36811861  1
  V  V8  1  0.25501293  0.24484422  0.01199288  1
  V  V9  1  0.36681814  0.74736392  0.13593274  1
  V  V10  1  0.12526137  0.49757794  0.62616448  1
  V  V11  1  0.86790336  0.75007669  0.62121441  1
  V  V12  1  -0.00429434  0.50476756  0.49178315  1
  V  V13  1  0.00232532  0.24617323  0.25212482  1
  V  V14  1  0.62418017  0.74947440  0.87716713  1
  V  V15  1  -0.00137834  0.62919730  0.62453100  1
  V  V16  1  0.87546451  0.87306831  0.00312807  1
  V  V17  1  0.88227508  0.50252418  0.87799511  1
  V  V18  1  0.49781209  0.13349004  0.12135739  1
  V  V19  1  0.00149684  0.86815098  0.37359580  1
  V  V20  1  0.13128309  0.74482844  0.86552805  1
  V  V21  1  0.87631155  0.25025543  0.12470655  1
  V  V22  1  0.62428407  0.87963381  0.74847363  1
  V  V23  1  0.87717494  0.74643142  0.13137122  1
  V  V24  1  0.75001610  0.50099524  0.75199050  1
  V  V25  1  0.49673749  0.37430990  0.87443457  1
  V  V26  1  0.49975441  -0.00067020  0.00210904  1
  V  V27  1  0.87197036  0.38182684  0.49460269  1
  V  V28  1  0.12579063  0.49561601  0.12051594  1
  V  V29  1  0.87789764  0.12274468  0.74945526  1
  V  V30  1  0.74838027  0.74921363  0.00261198  1
  V  V31  1  0.61408547  0.87412926  0.25159103  1
  V  V32  1  0.25359825  0.12991782  0.86744604  1
  V  V33  1  0.13064794  0.24733421  0.38380489  1
  V  V34  1  0.49503708  0.74097198  0.25425729  1
  V  V35  1  0.00830793  0.12476840  0.62555584  1
  V  V36  1  0.00524255  0.00192529  0.49978212  1
  V  V37  1  0.37535907  0.13359655  0.24554157  1
  V  V38  1  0.62699632  0.49788765  0.13651963  1
  V  V39  1  0.00324561  0.26106041  0.74974295  1
  V  V40  1  0.49834968  0.12845119  0.64259743  1
  V  V41  1  0.62949312  0.74899843  0.37526569  1
  V  V42  1  0.74833157  0.37847572  0.13818814  1
  V  V43  1  0.87483474  0.12280385  0.25095263  1
  V  V44  1  0.75362637  -0.00021438  0.74768563  1
  V  V45  1  0.00114829  0.86636152  0.87169006  1
  V  V46  1  0.25494311  -0.00380928  0.24932048  1
  V  V47  1  0.62527249  0.25386127  0.36493495  1
  V  V48  1  0.37147470  0.50332126  0.37071747  1
  V  V49  1  0.74836565  0.87403321  0.12713751  1
  V  V50  1  0.74605877  0.87539225  0.62112700  1
  V  V51  1  0.37717939  0.37106198  0.01197085  1
  V  V52  1  0.62347759  0.24878911  0.87457311  1
  V  V53  1  0.12673560  0.63319371  0.49328670  1
  V  V54  1  0.24239004  -0.00273493  0.73885887  1
  V  V55  1  0.37365876  0.00477897  0.86736674  1
  V  V56  1  0.37374303  0.25102054  0.64858016  1
  V  V57  1  -0.00058848  0.37617403  0.37546529  1
  V  V58  1  0.36527039  0.87334879  0.00435310  1
  V  V59  1  0.74853182  0.12349989  0.37700445  1
  V  V60  1  0.62818441  0.62734549  0.50104715  1
  V  V61  1  0.13404240  0.62212765  -0.00344689  1
  V  V62  1  0.49735340  0.49960995  0.50177821  1
  V  V63  1  0.12672789  0.25627116  0.87427532  1
  V  V64  1  0.74823139  0.37612548  0.62535528  1
  V  V65  1  0.86848186  0.87403779  0.49607476  1
  V  V66  1  0.12869347  0.37452076  0.25166155  1
  V  V67  1  0.87538623  0.63219953  0.75012513  1
  V  V68  1  0.62329171  0.62233891  0.00216898  1
  V  V69  1  0.39037315  -0.00554126  0.38087321  1
  V  V70  1  0.74922664  0.25013564  0.50148239  1
  V  V71  1  0.13267275  -0.00749120  0.12368580  1
  V  V72  1  0.75292625  0.60955361  0.37196582  1
  V  V73  1  0.49525597  0.50021874  -0.00312882  1
  V  V74  1  0.24440682  0.37177204  0.62246739  1
  V  V75  1  0.49635459  0.74369857  0.74993363  1
  V  V76  1  0.87334179  0.60830193  0.25138287  1
  V  V77  1  0.49781244  0.87463136  0.87637308  1
  V  V78  1  0.75190159  0.25039666  -0.00032130  1
  V  V79  1  0.00164468  -0.00211794  -0.00092279  1
  V  V80  1  0.36056176  0.61086964  0.75433091  1
  V  V81  1  0.00183816  0.12183347  0.12510632  1
  V  V82  1  0.25116282  0.63224853  0.36767727  1
  V  V83  1  0.61839178  0.12393886  0.50646179  1
  V  V84  1  0.37195238  0.36173274  0.49804041  1
  Zn  Zn85  1  0.62302908  0.00010155  0.12466384  1
  Zn  Zn86  1  0.00503402  0.74464495  0.25401601  1
  Zn  Zn87  1  0.62199968  0.50247693  0.62709575  1
  Zn  Zn88  1  0.49464006  0.62476625  0.62356453  1
  Zn  Zn89  1  0.75220491  0.12312982  0.87537033  1
  Zn  Zn90  1  0.25398037  0.50163608  0.24801101  1
  Zn  Zn91  1  0.49307999  0.62318545  0.12634529  1
  Zn  Zn92  1  0.87703357  -0.00256026  0.87389125  1
  Zn  Zn93  1  0.25095370  0.74928928  -0.00002807  1
  Zn  Zn94  1  0.62660274  0.12354144  -0.00036385  1
  Zn  Zn95  1  0.49991351  0.25615231  0.24138398  1
  Zn  Zn96  1  0.49605509  -0.01027800  0.51401079  1
  Zn  Zn97  1  0.00381280  0.38053945  0.87458186  1
  Zn  Zn98  1  0.13222670  0.86732676  0.73485611  1
  Zn  Zn99  1  0.75122144  0.62614380  0.87657626  1
  Zn  Zn100  1  0.13399768  0.12415741  0.50827892  1
  Zn  Zn101  1  0.25706888  0.36924840  0.13171717  1
  Zn  Zn102  1  0.87327495  -0.00176324  0.37533148  1
  Zn  Zn103  1  0.12770668  0.12290149  -0.00098899  1
  Zn  Zn104  1  0.24642139  0.76080355  0.50721982  1
  Zn  Zn105  1  0.23072780  0.49422630  0.76800496  1
  Zn  Zn106  1  0.87494117  0.25194865  0.62649505  1
  Zn  Zn107  1  0.18571335  0.18038187  0.19256025  1
  Zn  Zn108  1  0.19096497  0.19217318  0.69041647  1
  Zn  Zn109  1  0.19075434  0.68707533  0.18701509  1
  Zn  Zn110  1  0.19074257  0.68203164  0.68521073  1
  Zn  Zn111  1  0.68650449  0.18497016  0.18303749  1
  Zn  Zn112  1  0.68731024  0.18798509  0.68841181  1
  Zn  Zn113  1  0.68674014  0.68334163  0.19074210  1
  Zn  Zn114  1  0.68568466  0.68919264  0.68698028  1
  Zn  Zn115  1  0.31330505  0.31109317  0.31591336  1
  Zn  Zn116  1  0.29771074  0.34263469  0.82655197  1
  Zn  Zn117  1  0.29569941  0.83834854  0.35622573  1
  Zn  Zn118  1  0.31200679  0.81419896  0.80989477  1
  Zn  Zn119  1  0.81464309  0.31120210  0.31495880  1
  Zn  Zn120  1  0.81461248  0.31272545  0.81375282  1
  Zn  Zn121  1  0.80764606  0.80735300  0.31397600  1
  Zn  Zn122  1  0.81316122  0.81339253  0.81394977  1
  Zn  Zn123  1  0.18809576  0.44099562  0.44203044  1
  Zn  Zn124  1  0.19032352  0.43531250  0.94542966  1
  Zn  Zn125  1  0.18525962  0.94142611  0.43987847  1
  Zn  Zn126  1  0.18647130  0.93641712  0.92922858  1
  Zn  Zn127  1  0.68329415  0.43891229  0.43643554  1
  Zn  Zn128  1  0.69080357  0.43688981  0.94065785  1
  Zn  Zn129  1  0.65269200  0.92031710  0.45712965  1
  Zn  Zn130  1  0.68791832  0.93746475  0.93515993  1
  Zn  Zn131  1  0.31492948  0.06223793  0.06072466  1
  Zn  Zn132  1  0.32255153  0.06615478  0.56417537  1
  Zn  Zn133  1  0.31245070  0.56059057  0.06347135  1
  Zn  Zn134  1  0.31209206  0.56476912  0.56270473  1
  Zn  Zn135  1  0.81323880  0.06148458  0.06393533  1
  Zn  Zn136  1  0.81574075  0.06038893  0.56623547  1
  Zn  Zn137  1  0.81043774  0.56075390  0.06359826  1
  Zn  Zn138  1  0.80844531  0.56215619  0.56057121  1
  Zn  Zn139  1  0.44149179  0.44168074  0.18749171  1
  Zn  Zn140  1  0.43683236  0.43400165  0.68591720  1
  Zn  Zn141  1  0.43346345  0.93663073  0.18717839  1
  Zn  Zn142  1  0.43732720  0.93964414  0.68938885  1
  Zn  Zn143  1  0.94334475  0.43481426  0.18477563  1
  Zn  Zn144  1  0.93519784  0.44237679  0.68251590  1
  Zn  Zn145  1  0.93900715  0.93632389  0.18839365  1
  Zn  Zn146  1  0.96648787  0.92185043  0.67125039  1
  Zn  Zn147  1  0.06536788  0.05721781  0.31570129  1
  Zn  Zn148  1  0.06586777  0.06583706  0.81380935  1
  Zn  Zn149  1  0.06492996  0.56253420  0.30967544  1
  Zn  Zn150  1  0.05909083  0.56817051  0.80886029  1
  Zn  Zn151  1  0.56476923  0.06876815  0.30899954  1
  Zn  Zn152  1  0.56596406  0.06143684  0.81539127  1
  Zn  Zn153  1  0.55970095  0.56423391  0.31541575  1
  Zn  Zn154  1  0.56163507  0.56073768  0.81566938  1
  Zn  Zn155  1  0.44136877  0.18425724  0.43494155  1
  Zn  Zn156  1  0.43658332  0.18950034  0.93461469  1
  Zn  Zn157  1  0.43796548  0.68875767  0.43749044  1
  Zn  Zn158  1  0.43250082  0.68624543  0.93642041  1
  Zn  Zn159  1  0.93593201  0.18840362  0.43854113  1
  Zn  Zn160  1  0.93917568  0.18648215  0.93491124  1
  Zn  Zn161  1  0.92992384  0.69012730  0.43675213  1
  Zn  Zn162  1  0.94166110  0.68687550  0.94051382  1
  Zn  Zn163  1  0.06622001  0.30941342  0.06153403  1
  Zn  Zn164  1  0.05902748  0.31175249  0.56192387  1
  Zn  Zn165  1  0.06563802  0.80862361  0.06163105  1
  Zn  Zn166  1  0.05916774  0.81108802  0.56083136  1
  Zn  Zn167  1  0.56771605  0.31509410  0.06190059  1
  Zn  Zn168  1  0.55816864  0.30961626  0.56349760  1
  Zn  Zn169  1  0.55641776  0.81145066  0.06724429  1
  Zn  Zn170  1  0.55661898  0.80921894  0.56444243  1
  O  O171  1  0.11807379  0.11076187  0.12486418  1
  O  O172  1  0.11307332  0.13328301  0.62466547  1
  O  O173  1  0.12096894  0.61781464  0.11931716  1
  O  O174  1  0.11494939  0.62089277  0.61684768  1
  O  O175  1  0.61547818  0.11975861  0.11997753  1
  O  O176  1  0.60870308  0.14064684  0.61860077  1
  O  O177  1  0.62398236  0.61882812  0.11442039  1
  O  O178  1  0.62341402  0.62323355  0.61533457  1
  O  O179  1  0.38103267  0.38002369  0.38209156  1
  O  O180  1  0.39539832  0.36135757  0.89032474  1
  O  O181  1  0.39352264  0.89672958  0.36214850  1
  O  O182  1  0.38102396  0.88072045  0.88181218  1
  O  O183  1  0.88144357  0.37081677  0.38691784  1
  O  O184  1  0.87704860  0.38392128  0.88306405  1
  O  O185  1  0.87584541  0.87477420  0.38093216  1
  O  O186  1  0.88027934  0.87203128  0.88894912  1
  O  O187  1  0.26152516  0.00964682  0.36728933  1
  O  O188  1  0.25679793  0.01007719  0.87108943  1
  O  O189  1  0.25752890  0.50676590  0.37517325  1
  O  O190  1  0.26291170  0.44868000  0.86415117  1
  O  O191  1  0.74911698  0.00609158  0.36213436  1
  O  O192  1  0.75380674  -0.00022764  0.86333342  1
  O  O193  1  0.74650476  0.51014552  0.37161563  1
  O  O194  1  0.75957597  0.50029044  0.86548637  1
  O  O195  1  0.23978308  0.49561176  0.12891645  1
  O  O196  1  0.23817339  0.49273684  0.61925735  1
  O  O197  1  0.24339651  1.00368141  0.13345501  1
  O  O198  1  0.25698107  1.01052017  0.64080053  1
  O  O199  1  0.74071500  0.49001133  0.12116210  1
  O  O200  1  0.74776245  0.49512324  0.63664350  1
  O  O201  1  0.74777391  0.99442453  0.13527444  1
  O  O202  1  0.75430480  0.99039314  0.63850301  1
  O  O203  1  0.01005224  0.36813312  0.25576245  1
  O  O204  1  -0.00801975  0.36401829  0.74825437  1
  O  O205  1  0.00699050  0.87428135  0.25709906  1
  O  O206  1  -0.01610054  0.87418920  0.77352248  1
  O  O207  1  0.49664179  0.37343297  0.26335984  1
  O  O208  1  0.51054916  0.38179441  0.76007155  1
  O  O209  1  0.51103277  0.86736748  0.24325865  1
  O  O210  1  0.50747975  0.86743663  0.75430260  1
  O  O211  1  0.49309569  0.12828467  0.23917885  1
  O  O212  1  0.50764316  0.12861950  0.74123610  1
  O  O213  1  0.49957979  0.63654529  0.24763089  1
  O  O214  1  0.50319643  0.63608991  0.74899266  1
  O  O215  1  0.99577830  0.12553584  0.24625740  1
  O  O216  1  0.99501014  0.13006124  0.74365667  1
  O  O217  1  0.99426307  0.62630207  0.24152940  1
  O  O218  1  0.98738410  0.62234224  0.73640969  1
  O  O219  1  0.36569822  0.25495462  -0.00021518  1
  O  O220  1  0.37974766  0.26084003  0.49792883  1
  O  O221  1  0.37323834  0.75806340  0.00627952  1
  O  O222  1  0.37698973  0.74238275  0.51910951  1
  O  O223  1  0.87090999  0.25499512  0.00484149  1
  O  O224  1  0.86241827  0.25772202  0.50036893  1
  O  O225  1  0.87020745  0.75126817  0.01287496  1
  O  O226  1  0.87159973  0.76394184  0.50597668  1
  O  O227  1  0.11892557  0.24597128  0.48659589  1
  O  O228  1  0.13518503  0.24500191  0.99474414  1
  O  O229  1  0.12370621  0.73743018  0.50347327  1
  O  O230  1  0.13014810  0.74088221  0.99334388  1
  O  O231  1  0.63434823  0.24585787  0.49413364  1
  O  O232  1  0.63658854  0.24994237  0.99335015  1
  O  O233  1  0.61970598  0.73421644  0.49068603  1
  O  O234  1  0.62621162  0.74246861  0.99847084  1
  O  O235  1  0.50661990  0.23830915  0.12283879  1
  O  O236  1  0.48448991  0.24547688  0.62705511  1
  O  O237  1  0.49080472  0.74551772  0.13437162  1
  O  O238  1  0.49132109  0.74691413  0.63444543  1
  O  O239  1  0.99738357  0.24229800  0.13162106  1
  O  O240  1  0.99653970  0.24419024  0.63215982  1
  O  O241  1  0.99263641  0.74126369  0.12763594  1
  O  O242  1  0.98323383  0.73500932  0.61557462  1
  O  O243  1  0.00626533  0.25487809  0.36965575  1
  O  O244  1  0.00748239  0.25061346  0.86630455  1
  O  O245  1  -0.00558536  0.76296336  0.37287556  1
  O  O246  1  0.01362396  0.75682147  0.88350955  1
  O  O247  1  0.50893311  0.25773004  0.37316536  1
  O  O248  1  0.51676335  0.25644117  0.88190785  1
  O  O249  1  0.51186582  0.74300397  0.36572418  1
  O  O250  1  0.50367151  0.75549906  0.86866797  1
  O  O251  1  0.25159474  0.12036703  0.48829689  1
  O  O252  1  0.25151508  0.13033134  0.98995995  1
  O  O253  1  0.24055608  0.62799147  0.49205199  1
  O  O254  1  0.23785031  0.62388018  1.00002344  1
  O  O255  1  0.74761001  0.13522062  0.49967903  1
  O  O256  1  0.75268730  0.13738010  0.99980853  1
  O  O257  1  0.74241127  0.61917426  0.48569161  1
  O  O258  1  0.74151953  0.63132923  0.99953117  1
  O  O259  1  0.26077281  0.36250450  0.01033937  1
  O  O260  1  0.26174788  0.37824035  0.50619592  1
  O  O261  1  0.26279588  0.87782284  -0.00424235  1
  O  O262  1  0.25717738  0.86325592  0.46337724  1
  O  O263  1  0.76078826  0.36465954  0.00622082  1
  O  O264  1  0.75405808  0.37139825  0.50246389  1
  O  O265  1  0.75426034  0.87037760  0.00818110  1
  O  O266  1  0.75202957  0.88337822  0.51336412  1
  O  O267  1  0.12671709  0.48789028  0.24400215  1
  O  O268  1  0.11721853  0.50361742  0.73197206  1
  O  O269  1  0.13377885  0.99361206  0.24244270  1
  O  O270  1  0.13982512  1.00050996  0.75433229  1
  O  O271  1  0.61788825  0.50602068  0.23554059  1
  O  O272  1  0.63335008  0.49122831  0.75182654  1
  O  O273  1  0.63043344  0.99161217  0.24972734  1
  O  O274  1  0.63201522  0.98607338  0.75525221  1
  O  O275  1  0.37051775  0.00913165  0.25483751  1
  O  O276  1  0.36658176  -0.00474383  0.76338761  1
  O  O277  1  0.37504941  0.49537816  0.26549710  1
  O  O278  1  0.37944954  0.51122384  0.74847212  1
  O  O279  1  0.86635357  0.00488311  0.24981887  1
  O  O280  1  0.86909295  0.00787731  0.75186854  1
  O  O281  1  0.88034951  0.50914452  0.24546314  1
  O  O282  1  0.86780097  0.51016841  0.75395427  1
  O  O283  1  0.12213519  0.36774294  0.37061159  1
  O  O284  1  0.11860532  0.36032809  0.88523896  1
  O  O285  1  0.11150929  0.88452436  0.36353027  1
  O  O286  1  0.11735209  0.86230538  0.87008259  1
  O  O287  1  0.61523671  0.36598916  0.38070716  1
  O  O288  1  0.62052682  0.36954043  0.87097853  1
  O  O289  1  0.63872742  0.86138041  0.35901608  1
  O  O290  1  0.61847753  0.86831683  0.86956778  1
  O  O291  1  0.38493606  0.11976963  0.13291930  1
  O  O292  1  0.38469913  0.14211395  0.62803400  1
  O  O293  1  0.37484913  0.64164253  0.11990086  1
  O  O294  1  0.37538608  0.63026865  0.64006663  1
  O  O295  1  0.88161400  0.13049078  0.13114701  1
  O  O296  1  0.88094893  0.13032522  0.63624229  1
  O  O297  1  0.88206766  0.62732036  0.13005791  1
  O  O298  1  0.87553571  0.63034140  0.62926488  1
  O  O299  1  0.24403412  0.24386152  0.11515784  1
  O  O300  1  0.26420495  0.25383298  0.62437474  1
  O  O301  1  0.26274863  0.75113897  0.12341955  1
  O  O302  1  0.26182048  0.75105260  0.62611839  1
  O  O303  1  0.75557621  0.25573522  0.11842693  1
  O  O304  1  0.75092734  0.25767970  0.61719387  1
  O  O305  1  0.75639671  0.75292858  0.12222155  1
  O  O306  1  0.76000270  0.75827890  0.62858579  1
  O  O307  1  0.24175077  0.23865714  0.36988390  1
  O  O308  1  0.24446080  0.24651146  0.88111434  1
  O  O309  1  0.25438780  0.73235074  0.37045789  1
  O  O310  1  0.23496318  0.75492138  0.87732703  1
  O  O311  1  0.74379163  0.24527170  0.38194893  1
  O  O312  1  0.74326494  0.25079011  0.88340193  1
  O  O313  1  0.73527599  0.73564709  0.36854539  1
  O  O314  1  0.74259241  0.75005827  0.88430927  1
  O  O315  1  0.00113094  0.11495044  0.00558446  1
  O  O316  1  -0.00189792  0.11970257  0.50718936  1
  O  O317  1  0.00920321  0.62685858  0.01403369  1
  O  O318  1  0.00197638  0.62012292  0.49981975  1
  O  O319  1  0.49898950  0.11660256  0.00490637  1
  O  O320  1  0.50893314  0.12618681  0.50886244  1
  O  O321  1  0.50522891  0.61715915  -0.00073020  1
  O  O322  1  0.50676488  0.61508195  0.49970442  1
  O  O323  1  0.49354047  0.38128676  0.49196466  1
  O  O324  1  0.49720736  0.38110200  0.99698012  1
  O  O325  1  0.54632863  0.89242354  0.49422523  1
  O  O326  1  0.49319031  0.88158802  0.99528404  1
  O  O327  1  0.99089615  0.38299754  0.49571935  1
  O  O328  1  0.98607822  0.36925830  1.00107554  1
  O  O329  1  0.98951989  0.88248755  0.49044385  1
  O  O330  1  0.99589847  0.88020456  0.99602167  1
  O  O331  1  0.49431246  0.49414642  0.38320973  1
  O  O332  1  0.50672912  0.48977066  0.88837149  1
  O  O333  1  0.49093610  1.01482295  0.37720730  1
  O  O334  1  0.49246428  0.99624028  0.88025520  1
  O  O335  1  1.00556610  0.49365638  0.38491080  1
  O  O336  1  0.98654859  0.49917474  0.86823199  1
  O  O337  1  0.99347135  0.99275919  0.38191893  1
  O  O338  1  1.00310331  0.99326542  0.88750583  1
  O  O339  1  0.00573668  0.00131523  0.11489673  1
  O  O340  1  -0.01284764  0.01704516  0.61158176  1
  O  O341  1  0.01488543  0.50632886  0.12876630  1
  O  O342  1  0.00129164  0.51013596  0.61205339  1
  O  O343  1  0.49978995  0.00647570  0.11587152  1
  O  O344  1  0.48953464  0.02201485  0.62771094  1
  O  O345  1  0.50847387  0.50248626  0.11468103  1
  O  O346  1  0.50029768  0.49968440  0.61278006  1
  O  O347  1  0.23994512  0.37333098  0.24996011  1
  O  O348  1  0.24737138  0.37645003  0.72530902  1
  O  O349  1  0.24312316  0.88857342  0.26094153  1
  O  O350  1  0.24708288  0.89121537  0.75205824  1
  O  O351  1  0.75640768  0.36968735  0.23717067  1
  O  O352  1  0.74650630  0.38304894  0.74623241  1
  O  O353  1  0.74535803  0.88114172  0.24372104  1
  O  O354  1  0.74517671  0.88023249  0.74467762  1
  O  O355  1  0.25773465  0.11511390  0.25654079  1
  O  O356  1  0.24831567  0.11821387  0.76203846  1
  O  O357  1  0.24411276  0.61917882  0.26321864  1
  O  O358  1  0.25491668  0.61002425  0.75010035  1
  O  O359  1  0.75339107  0.11709605  0.25313470  1
  O  O360  1  0.75705933  0.11729656  0.74857894  1
  O  O361  1  0.75847415  0.62345558  0.25970401  1
  O  O362  1  0.75397556  0.61700392  0.75255120  1
  O  O363  1  0.37032434  0.12127457  0.36612110  1
  O  O364  1  0.36807309  0.11609896  0.87822887  1
  O  O365  1  0.36162543  0.61612142  0.38279291  1
  O  O366  1  0.37740792  0.63283117  0.85177790  1
  O  O367  1  0.86596373  0.12461421  0.36876248  1
  O  O368  1  0.87472643  0.12218729  0.86258407  1
  O  O369  1  0.86144933  0.62760810  0.36724665  1
  O  O370  1  0.87484307  0.62140624  0.86845471  1
  O  O371  1  0.12554699  0.37928276  0.13360233  1
  O  O372  1  0.13174550  0.38447086  0.60999291  1
  O  O373  1  0.11924515  0.88641878  0.13241823  1
  O  O374  1  0.07425866  0.88344957  0.64126814  1
  O  O375  1  0.63596919  0.38468932  0.12216133  1
  O  O376  1  0.62842487  0.37605550  0.63374253  1
  O  O377  1  0.63178412  0.87524068  0.13336077  1
  O  O378  1  0.63704438  0.86378086  0.63775289  1
  O  O379  1  0.12024101  0.25461130  0.25836855  1
  O  O380  1  0.11547620  0.24795818  0.75977107  1
  O  O381  1  0.12512955  0.76521151  0.24240124  1
  O  O382  1  0.12844536  0.74644427  0.76129010  1
  O  O383  1  0.62483991  0.24470945  0.26185576  1
  O  O384  1  0.63454965  0.26446643  0.75953686  1
  O  O385  1  0.61593633  0.75400026  0.25364718  1
  O  O386  1  0.61816889  0.75712672  0.75712737  1
  O  O387  1  0.37656658  0.23766082  0.25165290  1
  O  O388  1  0.36943489  0.26338010  0.74505313  1
  O  O389  1  0.38136844  0.75801233  0.23838620  1
  O  O390  1  0.38073686  0.74665474  0.74139930  1
  O  O391  1  0.88217966  0.24334384  0.24462800  1
  O  O392  1  0.88277539  0.24248543  0.75053211  1
  O  O393  1  0.87474621  0.74210675  0.23941073  1
  O  O394  1  0.86788238  0.73794135  0.74335199  1
  O  O395  1  0.38167820  0.49328785  0.49233705  1
  O  O396  1  0.38513530  0.48965743  1.00550637  1
  O  O397  1  0.38049626  1.00285905  0.48619515  1
  O  O398  1  0.38381009  0.99267694  0.99287895  1
  O  O399  1  0.88200997  0.49344396  0.50153729  1
  O  O400  1  0.86914891  0.49251054  0.99027439  1
  O  O401  1  0.87940114  0.98899548  0.49800160  1
  O  O402  1  0.88367471  0.99227741  1.00033969  1
  O  O403  1  0.12013816  -0.00180347  0.00623646  1
  O  O404  1  0.11015670  0.00557072  0.49650065  1
  O  O405  1  0.12636443  0.50568124  0.00779031  1
  O  O406  1  0.11501329  0.51107852  0.50652125  1
  O  O407  1  0.61167025  -0.00081910  -0.00196698  1
  O  O408  1  0.63646635  0.02544017  0.50414967  1
  O  O409  1  0.62056335  0.50738293  0.00505942  1
  O  O410  1  0.61594816  0.50884546  0.50059799  1
  O  O411  1  0.37956426  0.37297436  0.11701587  1
  O  O412  1  0.37093630  0.36490346  0.61745351  1
  O  O413  1  0.38089933  0.86225774  0.11519001  1
  O  O414  1  0.38038561  0.86209007  0.62616945  1
  O  O415  1  0.87084226  0.36998077  0.11915504  1
  O  O416  1  0.86785114  0.37476663  0.61236422  1
  O  O417  1  0.87032300  0.86531731  0.12294657  1
  O  O418  1  0.87085921  0.86668409  0.61838249  1
  O  O419  1  0.13563606  0.13083855  0.37439137  1
  O  O420  1  0.13386127  0.13576204  0.87878068  1
  O  O421  1  0.13777383  0.61829040  0.38169694  1
  O  O422  1  0.11781828  0.63569263  0.88151688  1
  O  O423  1  0.62944242  0.13510079  0.38485665  1
  O  O424  1  0.63056728  0.13404647  0.87795981  1
  O  O425  1  0.63471754  0.62647091  0.37889549  1
  O  O426  1  0.62654558  0.62965997  0.88687095  1
