# generated using pymatgen
data_V85Zn86O256
_symmetry_space_group_name_H-M   'P 1'
_cell_length_a   16.93876155
_cell_length_b   16.96153391
_cell_length_c   16.96234097
_cell_angle_alpha   90.01756718
_cell_angle_beta   90.08430387
_cell_angle_gamma   89.93180031
_symmetry_Int_Tables_number   1
_chemical_formula_structural   V85Zn86O256
_chemical_formula_sum   'V85 Zn86 O256'
_cell_volume   4873.39675965
_cell_formula_units_Z   1
loop_
 _symmetry_equiv_pos_site_id
 _symmetry_equiv_pos_as_xyz
  1  'x, y, z'
loop_
 _atom_site_type_symbol
 _atom_site_label
 _atom_site_symmetry_multiplicity
 _atom_site_fract_x
 _atom_site_fract_y
 _atom_site_fract_z
 _atom_site_occupancy
  V  V0  1  0.24452050  0.24406279  0.00272810  1
  V  V1  1  0.00519359  0.87317475  0.35996481  1
  V  V2  1  0.37128639  0.12240596  0.24381065  1
  V  V3  1  0.23599590  -0.00346007  0.24375856  1
  V  V4  1  0.49901158  0.50011408  -0.00039539  1
  V  V5  1  0.37121388  0.12189058  0.74923750  1
  V  V6  1  0.36942372  0.37482105  0.00274057  1
  V  V7  1  0.37642416  0.24332999  0.62187326  1
  V  V8  1  0.25245097  0.74962602  0.49690705  1
  V  V9  1  0.11708866  0.62635708  0.49863153  1
  V  V10  1  0.63825146  0.50083338  0.62366003  1
  V  V11  1  0.87901631  0.86453676  0.50146586  1
  V  V12  1  0.49853554  0.37132015  0.37703533  1
  V  V13  1  0.12683894  0.75467717  0.36094001  1
  V  V14  1  0.37965469  0.62455059  0.74801122  1
  V  V15  1  0.25049872  0.62266852  0.37020025  1
  V  V16  1  0.00303758  0.25259412  0.25915777  1
  V  V17  1  0.87929417  0.24946142  0.12396226  1
  V  V18  1  0.25295604  0.62587557  0.87321413  1
  V  V19  1  0.24336993  0.12766581  0.37206933  1
  V  V20  1  0.63594279  0.37317490  0.74216207  1
  V  V21  1  0.36943882  0.25518819  0.12636472  1
  V  V22  1  0.12411129  0.12912441  0.49820656  1
  V  V23  1  0.49503250  0.62862533  0.12571182  1
  V  V24  1  0.49940750  0.24637467  0.24947416  1
  V  V25  1  -0.00165488  0.87399968  0.87763400  1
  V  V26  1  0.87847295  0.62832379  0.25692586  1
  V  V27  1  0.74852945  0.37300642  0.13020195  1
  V  V28  1  0.37623300  0.50016114  0.37468865  1
  V  V29  1  0.23609841  0.87653242  0.12462586  1
  V  V30  1  0.87551009  -0.00063804  0.88557065  1
  V  V31  1  0.62442067  0.12297706  0.50304646  1
  V  V32  1  0.50715770  0.62301595  0.61961876  1
  V  V33  1  0.37927127  0.49951551  0.87120654  1
  V  V34  1  -0.01085960  0.13162427  0.62331957  1
  V  V35  1  0.49940480  0.87649822  0.37204167  1
  V  V36  1  -0.00122582  0.38830607  0.37664679  1
  V  V37  1  0.62159042  0.74165193  0.38134827  1
  V  V38  1  0.37918173  -0.00464525  0.87653910  1
  V  V39  1  0.63781879  0.62896783  0.00074713  1
  V  V40  1  0.12611797  0.61542329  0.00739033  1
  V  V41  1  0.01724074  0.00620937  0.00367089  1
  V  V42  1  0.62128708  -0.00038423  0.62511728  1
  V  V43  1  0.26223093  0.74971638  0.00357440  1
  V  V44  1  0.25155587  0.49969848  0.74608099  1
  V  V45  1  0.49710283  0.74764180  0.24705139  1
  V  V46  1  0.62246518  0.24499440  0.87306405  1
  V  V47  1  0.24760180  0.49711865  0.23940041  1
  V  V48  1  0.49844410  0.37144287  0.87213253  1
  V  V49  1  0.62421203  -0.00663503  0.12456430  1
  V  V50  1  -0.00392016  0.38222639  0.87571700  1
  V  V51  1  0.49850063  0.24431652  0.74323985  1
  V  V52  1  0.24968696  0.37584347  0.62289090  1
  V  V53  1  -0.00908407  0.25297078  0.74696474  1
  V  V54  1  0.87523434  0.12595293  0.24762620  1
  V  V55  1  0.25119723  0.87749708  0.62522515  1
  V  V56  1  0.37728309  0.74964630  0.62531485  1
  V  V57  1  0.12501384  0.37815653  0.24179883  1
  V  V58  1  0.00112641  0.00111312  0.50029011  1
  V  V59  1  0.62870959  0.24725710  0.37607161  1
  V  V60  1  0.61519370  0.11827103  -0.00068019  1
  V  V61  1  0.87756197  0.61128235  0.75344223  1
  V  V62  1  0.38260791  0.88303165  0.00967304  1
  V  V63  1  0.12446860  0.74912751  0.88109096  1
  V  V64  1  0.75842732  0.24990236  0.51329849  1
  V  V65  1  0.37428950  0.37341620  0.49951983  1
  V  V66  1  0.37356461  0.00048872  0.37209940  1
  V  V67  1  0.87305386  0.38173492  0.50921890  1
  V  V68  1  0.12369298  0.24442694  0.87730675  1
  V  V69  1  0.75371066  0.87071069  0.62309557  1
  V  V70  1  0.50022574  0.00417398  0.50155339  1
  V  V71  1  0.87610579  0.00044610  0.37478007  1
  V  V72  1  0.24203099  0.25177954  0.49539905  1
  V  V73  1  0.80970717  0.80912434  0.06532144  1
  V  V74  1  0.63937790  0.75136067  0.87887799  1
  V  V75  1  0.12532014  0.00766921  0.63131011  1
  V  V76  1  0.11568102  0.50356007  0.62122581  1
  V  V77  1  0.62370561  0.49866994  0.12637056  1
  V  V78  1  0.50433587  0.74997059  0.75395005  1
  V  V79  1  0.87322652  0.38527229  -0.00160277  1
  V  V80  1  0.10354115  0.84155968  0.72664113  1
  V  V81  1  0.74563232  0.74110557  0.50388627  1
  V  V82  1  0.12390342  0.37562478  0.74943138  1
  V  V83  1  0.75404683  -0.00123105  0.75047037  1
  V  V84  1  0.74909794  0.24451860  -0.00103169  1
  Zn  Zn85  1  0.62614271  0.87526647  0.75306235  1
  Zn  Zn86  1  0.75381329  0.61477342  0.38239704  1
  Zn  Zn87  1  0.75550975  -0.00782628  0.24070919  1
  Zn  Zn88  1  0.75323466  0.12762658  0.37450556  1
  Zn  Zn89  1  0.50204608  0.87536877  0.88017266  1
  Zn  Zn90  1  0.63158931  0.86900181  0.24450931  1
  Zn  Zn91  1  0.96315912  0.71283787  0.67431130  1
  Zn  Zn92  1  0.37449278  0.87796773  0.49933987  1
  Zn  Zn93  1  0.62598795  0.36960090  0.25064337  1
  Zn  Zn94  1  0.24575071  0.11848419  0.87845002  1
  Zn  Zn95  1  0.75009592  0.12214939  0.87305794  1
  Zn  Zn96  1  0.77136714  0.58731624  0.87635674  1
  Zn  Zn97  1  0.24769112  -0.00428716  0.75211282  1
  Zn  Zn98  1  -0.01598062  0.51649922  0.49861654  1
  Zn  Zn99  1  0.75642165  0.49687375  0.26280183  1
  Zn  Zn100  1  0.37538575  0.62650367  0.24600928  1
  Zn  Zn101  1  -0.00754636  0.62581580  0.13303023  1
  Zn  Zn102  1  0.01482592  0.12669787  0.12138491  1
  Zn  Zn103  1  0.00360929  0.50036460  0.00512479  1
  Zn  Zn104  1  0.50382190  0.50318879  0.49994162  1
  Zn  Zn105  1  0.49487781  0.11988615  0.11727598  1
  Zn  Zn106  1  0.87180939  0.12768221  0.74900022  1
  Zn  Zn107  1  0.18634110  0.19785627  0.19154244  1
  Zn  Zn108  1  0.18567561  0.19022057  0.68877284  1
  Zn  Zn109  1  0.13449717  0.74020462  0.14740043  1
  Zn  Zn110  1  0.18646901  0.68440351  0.68388615  1
  Zn  Zn111  1  0.68797548  0.18094018  0.18525936  1
  Zn  Zn112  1  0.68598638  0.18293099  0.68581919  1
  Zn  Zn113  1  0.69149132  0.68528914  0.19343163  1
  Zn  Zn114  1  0.69626358  0.68340410  0.69496556  1
  Zn  Zn115  1  0.30853838  0.31332259  0.31235731  1
  Zn  Zn116  1  0.31027022  0.31039946  0.81332461  1
  Zn  Zn117  1  0.31349738  0.81246313  0.30512192  1
  Zn  Zn118  1  0.31079447  0.81346623  0.81066844  1
  Zn  Zn119  1  0.81600128  0.31459786  0.31687254  1
  Zn  Zn120  1  0.81265639  0.31370210  0.81601575  1
  Zn  Zn121  1  0.80998582  0.80814921  0.31241521  1
  Zn  Zn122  1  0.82130964  0.80814818  0.80584586  1
  Zn  Zn123  1  0.18115898  0.43781518  0.43154893  1
  Zn  Zn124  1  0.19040832  0.43430289  0.93312045  1
  Zn  Zn125  1  0.18650182  0.94077599  0.43695632  1
  Zn  Zn126  1  0.19055425  0.92911539  0.92981941  1
  Zn  Zn127  1  0.68861019  0.43280461  0.44371582  1
  Zn  Zn128  1  0.68411303  0.42777039  0.94325381  1
  Zn  Zn129  1  0.70180520  0.92079261  0.41250771  1
  Zn  Zn130  1  0.68973956  0.93404993  0.94153732  1
  Zn  Zn131  1  0.19135213  0.06485473  0.06413729  1
  Zn  Zn132  1  0.31265471  0.06378614  0.56105022  1
  Zn  Zn133  1  0.31237075  0.56281306  0.06185006  1
  Zn  Zn134  1  0.31258614  0.56336222  0.55966371  1
  Zn  Zn135  1  0.81039128  0.06108142  0.06283517  1
  Zn  Zn136  1  0.81026557  0.05808528  0.55875937  1
  Zn  Zn137  1  0.81388841  0.56432676  0.07605126  1
  Zn  Zn138  1  0.81908658  0.56807808  0.57547031  1
  Zn  Zn139  1  0.43868321  0.43733032  0.18915459  1
  Zn  Zn140  1  0.44266805  0.43500090  0.68498959  1
  Zn  Zn141  1  0.43973250  0.93935115  0.18462023  1
  Zn  Zn142  1  0.43950710  0.93667716  0.68855609  1
  Zn  Zn143  1  0.93834422  0.45282805  0.18814731  1
  Zn  Zn144  1  0.93468263  0.44097960  0.68562152  1
  Zn  Zn145  1  0.93821034  0.94035898  0.18277108  1
  Zn  Zn146  1  0.93537270  0.94045580  0.68659860  1
  Zn  Zn147  1  0.05984900  0.06533676  0.31006616  1
  Zn  Zn148  1  0.05792419  0.06475294  0.81174952  1
  Zn  Zn149  1  0.06349508  0.56338940  0.31006001  1
  Zn  Zn150  1  0.06107678  0.56528658  0.81375394  1
  Zn  Zn151  1  0.56441874  0.06163169  0.30954728  1
  Zn  Zn152  1  0.55983430  0.06164014  0.81039958  1
  Zn  Zn153  1  0.58614736  0.54742225  0.32608141  1
  Zn  Zn154  1  0.60029822  0.54323496  0.82951546  1
  Zn  Zn155  1  0.43485386  0.18409993  0.43567810  1
  Zn  Zn156  1  0.43207519  0.18542338  0.93473486  1
  Zn  Zn157  1  0.43805587  0.68743117  0.43670706  1
  Zn  Zn158  1  0.44289698  0.68886085  0.93789935  1
  Zn  Zn159  1  0.93676324  0.19120771  0.43621712  1
  Zn  Zn160  1  0.93717052  0.18586983  0.93507188  1
  Zn  Zn161  1  0.93503757  0.69063303  0.42226557  1
  Zn  Zn162  1  0.93608419  0.68697053  0.93261360  1
  Zn  Zn163  1  0.06103373  0.31406682  0.06405391  1
  Zn  Zn164  1  0.05866351  0.31624579  0.56149032  1
  Zn  Zn165  1  -0.02560250  0.80979579  0.06433284  1
  Zn  Zn166  1  0.07034199  0.81777556  0.54796758  1
  Zn  Zn167  1  0.55895051  0.30858689  0.06190286  1
  Zn  Zn168  1  0.56303031  0.31149472  0.56227616  1
  Zn  Zn169  1  0.56662328  0.81064405  0.06247318  1
  Zn  Zn170  1  0.56312945  0.81711943  0.56234258  1
  O  O171  1  0.12737194  0.13143938  0.12599418  1
  O  O172  1  0.11986305  0.12244478  0.61781723  1
  O  O173  1  0.14180486  0.62461453  0.10521417  1
  O  O174  1  0.13337371  0.61466050  0.61156998  1
  O  O175  1  0.61987460  0.12001401  0.11500226  1
  O  O176  1  0.62748439  0.11424551  0.61185995  1
  O  O177  1  0.62011342  0.61602015  0.11866175  1
  O  O178  1  0.62046647  0.60928505  0.63619606  1
  O  O179  1  0.37851977  0.37974329  0.37995513  1
  O  O180  1  0.38125873  0.37842283  0.87891310  1
  O  O181  1  0.38321994  0.88127291  0.37541557  1
  O  O182  1  0.37432851  0.88044792  0.88119826  1
  O  O183  1  0.88995195  0.36998638  0.38528039  1
  O  O184  1  0.88322412  0.36967304  0.88613267  1
  O  O185  1  0.88854839  0.88139395  0.38104715  1
  O  O186  1  0.89127212  0.88441355  0.86402822  1
  O  O187  1  0.25572962  0.00580742  0.36878238  1
  O  O188  1  0.26055747  -0.00080551  0.86952148  1
  O  O189  1  0.25803368  0.50592815  0.37348276  1
  O  O190  1  0.25915307  0.50432583  0.86482714  1
  O  O191  1  0.76970940  0.00975483  0.38341121  1
  O  O192  1  0.75767239  -0.00315428  0.86698758  1
  O  O193  1  0.70069570  0.51080595  0.36563435  1
  O  O194  1  0.70351694  0.50150663  0.86560083  1
  O  O195  1  0.26117534  0.49896553  0.14092127  1
  O  O196  1  0.24597278  0.49346159  0.62750411  1
  O  O197  1  0.24866646  0.98836532  0.13010208  1
  O  O198  1  0.24450973  0.99376754  0.62504144  1
  O  O199  1  0.74040502  0.48480942  0.12471510  1
  O  O200  1  0.73683695  0.50115582  0.62496584  1
  O  O201  1  0.73389668  1.00720447  0.12693753  1
  O  O202  1  0.74396644  0.99151757  0.62899145  1
  O  O203  1  0.00478328  0.37436112  0.25972688  1
  O  O204  1  0.00293810  0.37060754  0.75581444  1
  O  O205  1  0.00144003  0.88332306  0.26213864  1
  O  O206  1  0.01241158  0.88495800  0.75536460  1
  O  O207  1  0.49928315  0.36030483  0.25754916  1
  O  O208  1  0.50168681  0.36025151  0.75366801  1
  O  O209  1  0.50186920  0.86838111  0.25664833  1
  O  O210  1  0.50404857  0.86098324  0.74779454  1
  O  O211  1  0.48934280  0.13529307  0.25504041  1
  O  O212  1  0.48748893  0.13604175  0.75207003  1
  O  O213  1  0.50203792  0.63028287  0.24072851  1
  O  O214  1  0.49481785  0.63767118  0.73849430  1
  O  O215  1  0.99177954  0.13446214  0.24654976  1
  O  O216  1  0.99859064  0.13509842  0.73989184  1
  O  O217  1  0.98602365  0.62124635  0.25557452  1
  O  O218  1  0.98921166  0.62399035  0.75366020  1
  O  O219  1  0.37000045  0.25533286  0.00744982  1
  O  O220  1  0.36571052  0.25039495  0.50619338  1
  O  O221  1  0.36706515  0.76008547  -0.00643843  1
  O  O222  1  0.36484687  0.75212577  0.50441765  1
  O  O223  1  0.86745718  0.25253822  0.00680567  1
  O  O224  1  0.86263089  0.25323252  0.49881193  1
  O  O225  1  0.88101759  0.75366506  0.00995370  1
  O  O226  1  0.87062799  0.76089795  0.49493469  1
  O  O227  1  0.13618677  0.24760683  0.50434618  1
  O  O228  1  0.13392807  0.26177722  0.99105892  1
  O  O229  1  0.13881837  0.74400982  0.48958088  1
  O  O230  1  0.14371250  0.73807533  0.98759852  1
  O  O231  1  0.63225664  0.24294024  0.49545832  1
  O  O232  1  0.63100262  0.24357688  0.99443124  1
  O  O233  1  0.63444109  0.75753654  0.49520739  1
  O  O234  1  0.62338902  0.74235721  0.98898580  1
  O  O235  1  0.49014696  0.24581605  0.13351500  1
  O  O236  1  0.48890095  0.25198041  0.63055624  1
  O  O237  1  0.50961678  0.73983604  0.13426635  1
  O  O238  1  0.49769895  0.74572401  0.62951388  1
  O  O239  1  0.99157184  0.25127473  0.13444691  1
  O  O240  1  1.00684691  0.24244544  0.63425071  1
  O  O241  1  1.02510944  0.73518607  0.12584043  1
  O  O242  1  1.05410707  0.77075784  0.64965912  1
  O  O243  1  -0.00316743  0.25634861  0.36251589  1
  O  O244  1  0.00612384  0.25783339  0.86893053  1
  O  O245  1  0.01106079  0.76581688  0.37658552  1
  O  O246  1  0.01244308  0.76204823  0.88495260  1
  O  O247  1  0.50450748  0.25145608  0.36958533  1
  O  O248  1  0.50210266  0.25242904  0.86564679  1
  O  O249  1  0.50130017  0.75921887  0.37218976  1
  O  O250  1  0.50636225  0.75292543  0.86553069  1
  O  O251  1  0.24544496  0.13230258  0.49216071  1
  O  O252  1  0.25217989  0.14034220  0.99695173  1
  O  O253  1  0.24604670  0.63251690  0.48929604  1
  O  O254  1  0.25321970  0.63151069  0.99153966  1
  O  O255  1  0.74439762  0.13521508  0.49884200  1
  O  O256  1  0.74140686  0.13526203  0.99967704  1
  O  O257  1  0.75677253  0.63866845  0.50561323  1
  O  O258  1  0.73952305  0.61362106  0.99731043  1
  O  O259  1  0.26437276  0.36636034  -0.00696585  1
  O  O260  1  0.25366083  0.36792941  0.50064662  1
  O  O261  1  0.25835652  0.86954797  0.00693838  1
  O  O262  1  0.24997820  0.86893902  0.50866645  1
  O  O263  1  0.75397305  0.36195364  0.00682705  1
  O  O264  1  0.76336288  0.36255818  0.49589656  1
  O  O265  1  0.76148064  0.87235442  0.00432682  1
  O  O266  1  0.76053612  0.86921554  0.50373748  1
  O  O267  1  0.13444427  0.48903846  0.25793171  1
  O  O268  1  0.13057854  0.49609575  0.74018668  1
  O  O269  1  0.13720028  1.00192423  0.25458886  1
  O  O270  1  0.12747760  1.00747729  0.73680245  1
  O  O271  1  0.61508699  0.48933941  0.23151080  1
  O  O272  1  0.61251594  0.47893358  0.73480375  1
  O  O273  1  0.62978180  1.00217361  0.23775266  1
  O  O274  1  0.63107394  0.99904998  0.74114732  1
  O  O275  1  0.36860078  0.00860707  0.25296072  1
  O  O276  1  0.37166762  0.00703111  0.75184966  1
  O  O277  1  0.36978412  0.49677338  0.26284647  1
  O  O278  1  0.37355749  0.50315798  0.75321224  1
  O  O279  1  0.87617166  0.00838168  0.25485923  1
  O  O280  1  0.86759378  0.00328489  0.75673744  1
  O  O281  1  0.86866192  0.50967774  0.25423101  1
  O  O282  1  0.87502906  0.50807841  0.75104692  1
  O  O283  1  0.10600424  0.37386242  0.37187022  1
  O  O284  1  0.11951980  0.36641202  0.86716844  1
  O  O285  1  0.11424629  0.87003159  0.38131989  1
  O  O286  1  0.11910957  0.86437687  0.86253456  1
  O  O287  1  0.61703757  0.35884309  0.37657771  1
  O  O288  1  0.61531844  0.36228826  0.86288303  1
  O  O289  1  0.60668182  0.86667336  0.37987734  1
  O  O290  1  0.62204642  0.86452160  0.87597625  1
  O  O291  1  0.37633821  0.13481064  0.13910512  1
  O  O292  1  0.36999768  0.13643245  0.63072192  1
  O  O293  1  0.39074127  0.62002976  0.12515578  1
  O  O294  1  0.38062264  0.63099902  0.62934428  1
  O  O295  1  0.87673241  0.13617443  0.12956004  1
  O  O296  1  0.88661793  0.11972099  0.62371171  1
  O  O297  1  0.87261587  0.62703419  0.14508677  1
  O  O298  1  0.88633612  0.62723270  0.64157646  1
  O  O299  1  0.26205235  0.25283929  0.11896957  1
  O  O300  1  0.25568128  0.25614183  0.61715112  1
  O  O301  1  0.24854758  0.76402268  0.11564788  1
  O  O302  1  0.25357605  0.75647128  0.61556364  1
  O  O303  1  0.75445104  0.25611621  0.11960620  1
  O  O304  1  0.74572984  0.24808749  0.61130011  1
  O  O305  1  0.74263701  0.75588087  0.11939271  1
  O  O306  1  0.73992167  0.76441931  0.62036473  1
  O  O307  1  0.25499034  0.23988787  0.38414710  1
  O  O308  1  0.24130069  0.24931730  0.88291892  1
  O  O309  1  0.25030147  0.74469546  0.38010184  1
  O  O310  1  0.24969133  0.74433522  0.88185597  1
  O  O311  1  0.74179222  0.24771074  0.38206863  1
  O  O312  1  0.74199053  0.24687411  0.88317142  1
  O  O313  1  0.73704248  0.74618239  0.38779619  1
  O  O314  1  0.73815134  0.75641052  0.87204742  1
  O  O315  1  0.00022273  0.11040138  -0.00215483  1
  O  O316  1  0.00503927  0.12412422  0.50487783  1
  O  O317  1  0.02031953  0.62258208  -0.00707206  1
  O  O318  1  0.01278506  0.63171435  0.49395042  1
  O  O319  1  0.51151141  0.13125953  -0.00198746  1
  O  O320  1  0.50699119  0.11281440  0.49396703  1
  O  O321  1  0.50758616  0.61982737  0.00721901  1
  O  O322  1  0.49582691  0.62642646  0.51597663  1
  O  O323  1  0.49031265  0.37047416  0.49254123  1
  O  O324  1  0.49048739  0.37645260  0.99197566  1
  O  O325  1  0.49583456  0.88838175  0.49383588  1
  O  O326  1  0.48545784  0.86740285  0.99995702  1
  O  O327  1  0.98972455  0.37443839  0.49030163  1
  O  O328  1  0.98931087  0.37397879  0.99362672  1
  O  O329  1  0.99443718  0.88261836  0.49480058  1
  O  O330  1  1.00300326  0.89272881  0.98773278  1
  O  O331  1  0.49514533  0.49037583  0.37811052  1
  O  O332  1  0.49967184  0.49208340  0.87973490  1
  O  O333  1  0.49473269  0.99502423  0.37861841  1
  O  O334  1  0.48522314  0.99405896  0.86517807  1
  O  O335  1  1.00287946  0.49077029  0.38260662  1
  O  O336  1  1.01112448  0.48379351  0.88196445  1
  O  O337  1  0.99501081  0.99369462  0.37918084  1
  O  O338  1  0.99651134  0.99687195  0.88194925  1
  O  O339  1  -0.00068633  0.00227912  0.10632840  1
  O  O340  1  0.00806623  0.00996052  0.62054928  1
  O  O341  1  0.00007814  0.51076746  0.11716933  1
  O  O342  1  0.01302364  0.49438387  0.61619571  1
  O  O343  1  0.51557647  0.00618945  0.12955571  1
  O  O344  1  0.50991295  -0.00469761  0.61593946  1
  O  O345  1  0.50404317  0.50406315  0.11779924  1
  O  O346  1  0.50289210  0.50995869  0.62305681  1
  O  O347  1  0.23372168  0.38145650  0.25917305  1
  O  O348  1  0.24484233  0.37939870  0.74339958  1
  O  O349  1  0.25703831  0.88296875  0.23377485  1
  O  O350  1  0.23476552  0.87004923  0.73409701  1
  O  O351  1  0.74709392  0.37349843  0.24270775  1
  O  O352  1  0.73412400  0.36474119  0.75007894  1
  O  O353  1  0.73683720  0.88875122  0.28993893  1
  O  O354  1  0.75054956  0.88395580  0.74062632  1
  O  O355  1  0.25439402  0.12107166  0.25620008  1
  O  O356  1  0.26172777  0.12672123  0.75110829  1
  O  O357  1  0.25527655  0.61351922  0.26445277  1
  O  O358  1  0.25966716  0.61861550  0.75239075  1
  O  O359  1  0.76530837  0.12571691  0.25271955  1
  O  O360  1  0.75030637  0.11166188  0.74858798  1
  O  O361  1  0.75383074  0.61836827  0.25842245  1
  O  O362  1  0.76778479  0.62595827  0.75875196  1
  O  O363  1  0.36386414  0.12113986  0.36515843  1
  O  O364  1  0.37124613  0.11565006  0.86641887  1
  O  O365  1  0.36992575  0.61510217  0.37563162  1
  O  O366  1  0.37325672  0.61912362  0.86854708  1
  O  O367  1  0.88066560  0.11729098  0.36583644  1
  O  O368  1  0.87134313  0.11562840  0.87024365  1
  O  O369  1  0.86976918  0.61759752  0.36970543  1
  O  O370  1  0.87756089  0.61850091  0.86749512  1
  O  O371  1  0.11957836  0.37595790  0.14269968  1
  O  O372  1  0.13091779  0.38310583  0.62802532  1
  O  O373  1  0.13876710  0.87188320  0.12126957  1
  O  O374  1  0.13255026  0.89058084  0.62392182  1
  O  O375  1  0.63219369  0.37668477  0.12309351  1
  O  O376  1  0.62138484  0.37870832  0.63566435  1
  O  O377  1  0.62232071  0.88871779  0.12594903  1
  O  O378  1  0.63364387  0.88712021  0.62519087  1
  O  O379  1  0.11702068  0.26648390  0.25290019  1
  O  O380  1  0.11666746  0.25814391  0.75579622  1
  O  O381  1  0.14021594  0.74984086  0.26359357  1
  O  O382  1  0.13831710  0.74528840  0.76885473  1
  O  O383  1  0.61676746  0.24486403  0.25754247  1
  O  O384  1  0.61611143  0.25269099  0.74923803  1
  O  O385  1  0.61535080  0.75117790  0.26197127  1
  O  O386  1  0.62096637  0.74966312  0.76172538  1
  O  O387  1  0.37789217  0.24687021  0.24446131  1
  O  O388  1  0.37882564  0.24416555  0.74199460  1
  O  O389  1  0.39155715  0.74494323  0.25548511  1
  O  O390  1  0.38195186  0.74605616  0.74371751  1
  O  O391  1  0.88140268  0.24613892  0.24303737  1
  O  O392  1  0.88692273  0.24924292  0.75382122  1
  O  O393  1  0.87118084  0.73115355  0.26388179  1
  O  O394  1  0.88222531  0.73627718  0.74991999  1
  O  O395  1  0.37652110  0.49338364  0.48968472  1
  O  O396  1  0.37885281  0.49203659  0.99229199  1
  O  O397  1  0.38231515  1.00227706  0.49239137  1
  O  O398  1  0.37432482  0.98393158  0.99011499  1
  O  O399  1  0.87012102  0.48725168  0.50509362  1
  O  O400  1  0.86855133  0.48680132  1.00404128  1
  O  O401  1  0.88376939  0.99369153  0.49274875  1
  O  O402  1  0.87893152  1.00490839  0.98786236  1
  O  O403  1  0.12102848  0.00159926  -0.00789691  1
  O  O404  1  0.12060375  0.00848583  0.50923490  1
  O  O405  1  0.13523105  0.51272956  -0.00538502  1
  O  O406  1  0.12638737  0.51140519  0.50485168  1
  O  O407  1  0.62850403  0.00749322  0.00911597  1
  O  O408  1  0.61953316  0.00685361  0.50358480  1
  O  O409  1  0.61630872  0.50297732  0.01129773  1
  O  O410  1  0.61951136  0.48728333  0.52093751  1
  O  O411  1  0.38251146  0.36708552  0.11480300  1
  O  O412  1  0.36958524  0.36490169  0.61916498  1
  O  O413  1  0.37042820  0.88010866  0.11186385  1
  O  O414  1  0.36637465  0.86969249  0.62378564  1
  O  O415  1  0.86660597  0.36471540  0.11946644  1
  O  O416  1  0.88507271  0.37031985  0.60755872  1
  O  O417  1  0.87831988  0.86281109  0.12553237  1
  O  O418  1  0.86762967  0.88069070  0.61378111  1
  O  O419  1  0.13592939  0.12146064  0.38018845  1
  O  O420  1  0.12599998  0.14043486  0.86801202  1
  O  O421  1  0.13350341  0.63201409  0.38006885  1
  O  O422  1  0.13736159  0.62896495  0.87870945  1
  O  O423  1  0.62585009  0.13225291  0.38476485  1
  O  O424  1  0.62690650  0.12695625  0.88067848  1
  O  O425  1  0.60961432  0.64175001  0.38464284  1
  O  O426  1  0.61945294  0.64162403  0.88625190  1
