# generated using pymatgen
data_V85Zn86O256
_symmetry_space_group_name_H-M   'P 1'
_cell_length_a   16.94678277
_cell_length_b   16.94370476
_cell_length_c   16.94567238
_cell_angle_alpha   89.97404367
_cell_angle_beta   90.02161825
_cell_angle_gamma   90.06300602
_symmetry_Int_Tables_number   1
_chemical_formula_structural   V85Zn86O256
_chemical_formula_sum   'V85 Zn86 O256'
_cell_volume   4865.79833873
_cell_formula_units_Z   1
loop_
 _symmetry_equiv_pos_site_id
 _symmetry_equiv_pos_as_xyz
  1  'x, y, z'
loop_
 _atom_site_type_symbol
 _atom_site_label
 _atom_site_symmetry_multiplicity
 _atom_site_fract_x
 _atom_site_fract_y
 _atom_site_fract_z
 _atom_site_occupancy
  V  V0  1  0.12599017  0.87666305  0.74509491  1
  V  V1  1  0.87814204  -0.00151301  0.38039719  1
  V  V2  1  0.13249937  0.38466109  0.25868401  1
  V  V3  1  0.49779939  0.63576298  0.62782261  1
  V  V4  1  0.37547930  0.74457240  0.12940492  1
  V  V5  1  0.00254568  -0.00535755  0.50395368  1
  V  V6  1  0.85864000  0.37950862  0.00588760  1
  V  V7  1  0.62526778  0.01409191  0.11964429  1
  V  V8  1  -0.00757183  0.24776111  0.75583506  1
  V  V9  1  0.37614642  0.00136464  0.38303677  1
  V  V10  1  -0.00215944  0.12279490  0.62909185  1
  V  V11  1  0.60797124  0.87935602  0.75029481  1
  V  V12  1  0.25459113  0.38083958  0.13054045  1
  V  V13  1  0.37778094  0.85943724  0.50460295  1
  V  V14  1  0.86106629  0.25415125  0.12240309  1
  V  V15  1  0.12642791  0.25406005  0.37578220  1
  V  V16  1  0.37801257  -0.00732636  0.87115345  1
  V  V17  1  0.60693699  0.75502481  0.86899418  1
  V  V18  1  0.75162219  0.12663691  0.37691782  1
  V  V19  1  0.36313821  0.61408411  0.25200270  1
  V  V20  1  0.50108679  0.74176806  0.25082480  1
  V  V21  1  0.81416501  0.56870164  0.20175159  1
  V  V22  1  0.24978628  0.87622944  0.12422216  1
  V  V23  1  0.25707635  0.00198734  0.25006283  1
  V  V24  1  -0.00348328  0.74603078  0.74954696  1
  V  V25  1  0.75339853  0.87851438  0.62959602  1
  V  V26  1  -0.00369659  0.62258678  0.62790977  1
  V  V27  1  0.62424624  0.62626832  0.49969771  1
  V  V28  1  0.12188530  0.49947424  0.12541432  1
  V  V29  1  0.25319859  0.37104754  0.62902292  1
  V  V30  1  0.25009655  0.24898700  -0.00005653  1
  V  V31  1  0.38974127  0.87325038  0.00057324  1
  V  V32  1  0.63030425  0.24716724  0.89629239  1
  V  V33  1  0.87618800  0.87444902  -0.00264216  1
  V  V34  1  0.87598589  0.75012236  0.62201872  1
  V  V35  1  0.87373540  0.49952509  0.37962935  1
  V  V36  1  0.24925895  0.74991128  0.00244245  1
  V  V37  1  -0.00288030  0.49791795  0.50360331  1
  V  V38  1  0.62889535  0.37263992  0.74627786  1
  V  V39  1  0.00107844  0.12835188  0.12672312  1
  V  V40  1  0.24842676  -0.00141286  0.73588154  1
  V  V41  1  0.75489456  0.25274229  0.49936326  1
  V  V42  1  0.37799502  0.50246352  0.87390913  1
  V  V43  1  0.24835840  0.85623883  0.61699766  1
  V  V44  1  0.48876173  0.12251075  0.12534897  1
  V  V45  1  0.12140580  0.24774857  0.87664917  1
  V  V46  1  0.12495269  0.74839058  0.87543196  1
  V  V47  1  -0.00056301  0.37767116  0.88904957  1
  V  V48  1  0.11643163  0.62080618  0.00248423  1
  V  V49  1  0.87713981  0.00674933  0.86296104  1
  V  V50  1  0.36651135  0.49849247  0.37224336  1
  V  V51  1  0.50569500  0.00919318  -0.00730833  1
  V  V52  1  0.12451544  0.49911198  0.62696425  1
  V  V53  1  0.87451879  0.25189425  0.62528906  1
  V  V54  1  0.12312863  0.37329595  0.75300583  1
  V  V55  1  0.87477074  0.75586324  0.13044671  1
  V  V56  1  0.87817650  0.12799280  0.25062786  1
  V  V57  1  -0.00310057  0.37406934  0.38184443  1
  V  V58  1  0.75302228  0.37942041  0.61509870  1
  V  V59  1  0.13751045  0.74323240  0.37871751  1
  V  V60  1  0.25351574  0.12665402  0.37100927  1
  V  V61  1  0.00011680  -0.00067739  0.00015037  1
  V  V62  1  -0.00266046  0.73981760  0.25476482  1
  V  V63  1  0.50501344  0.37836994  0.87182576  1
  V  V64  1  0.50003398  0.88070068  0.37785840  1
  V  V65  1  0.37704502  0.37470705  0.00079336  1
  V  V66  1  0.62017749  0.11842552  0.50531400  1
  V  V67  1  0.75730789  0.63072100  0.37662870  1
  V  V68  1  0.50597974  0.50946117  0.01108258  1
  V  V69  1  0.12545812  0.12077335  0.50429347  1
  V  V70  1  0.87616501  0.50289890  0.87051275  1
  V  V71  1  0.24991972  0.62427244  0.87638273  1
  V  V72  1  0.49286152  0.23660140  0.25699603  1
  V  V73  1  0.25442445  0.25011688  0.50676463  1
  V  V74  1  0.12593326  0.00017088  0.12730954  1
  V  V75  1  0.62253578  0.87941528  0.24649398  1
  V  V76  1  0.24644174  0.11733633  0.87465667  1
  V  V77  1  0.38037882  0.37412483  0.51004329  1
  V  V78  1  0.25256389  0.49924482  0.75185491  1
  V  V79  1  0.75495021  0.75807907  0.50042333  1
  V  V80  1  0.75420951  0.63498194  0.86505337  1
  V  V81  1  0.75075580  0.00450124  0.24839645  1
  V  V82  1  0.37814992  0.63887648  0.74655560  1
  V  V83  1  0.50160777  0.37499540  0.37222295  1
  V  V84  1  -0.00136161  0.87169463  0.37590994  1
  Zn  Zn85  1  0.12256556  0.12564929  0.00128300  1
  Zn  Zn86  1  0.62464733  0.62522191  0.00785492  1
  Zn  Zn87  1  0.37118126  0.24628388  0.13192401  1
  Zn  Zn88  1  0.74927206  0.75209529  -0.00188439  1
  Zn  Zn89  1  0.75088547  0.01070605  0.74469104  1
  Zn  Zn90  1  0.62520300  0.50118471  0.62455974  1
  Zn  Zn91  1  0.74550575  0.13200490  0.87395031  1
  Zn  Zn92  1  0.62670227  0.75451887  0.37662915  1
  Zn  Zn93  1  0.00238407  0.87249445  0.87311304  1
  Zn  Zn94  1  0.62611832  0.24913276  0.37429126  1
  Zn  Zn95  1  0.75128001  0.50350856  0.74636655  1
  Zn  Zn96  1  0.61576839  -0.00081161  0.62267150  1
  Zn  Zn97  1  0.48355700  0.12555733  0.62282975  1
  Zn  Zn98  1  0.13968887  0.63327386  0.50373012  1
  Zn  Zn99  1  -0.00548715  0.61842617  0.12672363  1
  Zn  Zn100  1  0.49508788  0.24979033  0.73736481  1
  Zn  Zn101  1  0.65839465  0.41075771  0.21229804  1
  Zn  Zn102  1  0.50050013  0.50163175  0.50035008  1
  Zn  Zn103  1  0.00182275  0.25220647  0.25015335  1
  Zn  Zn104  1  0.74970456  0.88056166  0.12266517  1
  Zn  Zn105  1  0.12633804  0.87272466  0.25210078  1
  Zn  Zn106  1  0.37294806  0.13145344  0.74001411  1
  Zn  Zn107  1  0.18870610  0.19095331  0.18931277  1
  Zn  Zn108  1  0.18569357  0.18520802  0.68821707  1
  Zn  Zn109  1  0.18730241  0.68617328  0.19265446  1
  Zn  Zn110  1  0.18511833  0.68427621  0.68945891  1
  Zn  Zn111  1  0.69779138  0.22411155  0.20303718  1
  Zn  Zn112  1  0.68755583  0.18855578  0.69369330  1
  Zn  Zn113  1  0.68274711  0.69632783  0.18346483  1
  Zn  Zn114  1  0.68336266  0.69219394  0.68856399  1
  Zn  Zn115  1  0.31715945  0.31435307  0.31561700  1
  Zn  Zn116  1  0.31139967  0.31316748  0.81541714  1
  Zn  Zn117  1  0.31511430  0.81428231  0.31144690  1
  Zn  Zn118  1  0.31171272  0.81508890  0.81306890  1
  Zn  Zn119  1  0.81223048  0.31827879  0.30893224  1
  Zn  Zn120  1  0.81003245  0.31532295  0.81233529  1
  Zn  Zn121  1  0.81385642  0.81744908  0.31134032  1
  Zn  Zn122  1  0.81674349  0.81812099  0.80826779  1
  Zn  Zn123  1  0.20545700  0.46827277  0.45458512  1
  Zn  Zn124  1  0.18722222  0.43792073  0.94082907  1
  Zn  Zn125  1  0.18607887  0.93407793  0.43876072  1
  Zn  Zn126  1  0.18696737  0.93434480  0.93702994  1
  Zn  Zn127  1  0.66875778  0.45908822  0.39877188  1
  Zn  Zn128  1  0.68492606  0.44493527  0.93611279  1
  Zn  Zn129  1  0.69018831  0.93796762  0.43714871  1
  Zn  Zn130  1  0.68972122  0.93600486  0.93327562  1
  Zn  Zn131  1  0.31415307  0.06010252  0.05635883  1
  Zn  Zn132  1  0.31358897  0.05701940  0.56008631  1
  Zn  Zn133  1  0.31352852  0.56142487  0.06485694  1
  Zn  Zn134  1  0.31691432  0.56397316  0.56393015  1
  Zn  Zn135  1  0.80928984  0.06819017  0.05808104  1
  Zn  Zn136  1  0.81557776  0.06449650  0.56402950  1
  Zn  Zn137  1  0.80852628  0.56204699  0.03867744  1
  Zn  Zn138  1  0.81351075  0.56543869  0.56131537  1
  Zn  Zn139  1  0.46785309  0.42933556  0.17753247  1
  Zn  Zn140  1  0.44418497  0.44492474  0.68647802  1
  Zn  Zn141  1  0.43761979  0.93751083  0.18781520  1
  Zn  Zn142  1  0.43560059  0.94672470  0.67754089  1
  Zn  Zn143  1  0.94373005  0.43020814  0.18855393  1
  Zn  Zn144  1  0.93489655  0.43245529  0.69214625  1
  Zn  Zn145  1  0.93993400  0.93654064  0.19180488  1
  Zn  Zn146  1  0.94021334  0.93149802  0.68196792  1
  Zn  Zn147  1  0.06729845  0.06241338  0.31314800  1
  Zn  Zn148  1  0.06071665  0.05905206  0.81196326  1
  Zn  Zn149  1  0.06466843  0.56228996  0.31428953  1
  Zn  Zn150  1  0.06017869  0.56048942  0.81355230  1
  Zn  Zn151  1  0.56323226  0.06463870  0.31323904  1
  Zn  Zn152  1  0.56324691  0.06683822  0.80866991  1
  Zn  Zn153  1  0.56398069  0.56249491  0.30877787  1
  Zn  Zn154  1  0.56633560  0.56471871  0.80998034  1
  Zn  Zn155  1  0.43454478  0.18744845  0.44405774  1
  Zn  Zn156  1  0.42412125  0.20057402  0.90300763  1
  Zn  Zn157  1  0.43772851  0.68638369  0.43238458  1
  Zn  Zn158  1  0.43461752  0.68878495  0.93630532  1
  Zn  Zn159  1  0.93798225  0.18770091  0.44146175  1
  Zn  Zn160  1  0.90663389  0.17629831  0.95097774  1
  Zn  Zn161  1  0.93969513  0.68479359  0.44221877  1
  Zn  Zn162  1  0.93636744  0.68758157  0.93775081  1
  Zn  Zn163  1  0.06457191  0.31177296  0.06549148  1
  Zn  Zn164  1  0.06376795  0.31271780  0.56266197  1
  Zn  Zn165  1  0.06067190  0.81009707  0.06628412  1
  Zn  Zn166  1  0.06493351  0.81170046  0.56028631  1
  Zn  Zn167  1  0.56127088  0.31391652  0.06927069  1
  Zn  Zn168  1  0.56650677  0.30548291  0.56332153  1
  Zn  Zn169  1  0.57207484  0.79191615  0.07066319  1
  Zn  Zn170  1  0.56431247  0.81430152  0.56329617  1
  O  O171  1  0.11851794  0.11938652  0.12545669  1
  O  O172  1  0.11710947  0.13146162  0.61048992  1
  O  O173  1  0.12751712  0.61657332  0.12003320  1
  O  O174  1  0.11799099  0.61624560  0.62327736  1
  O  O175  1  0.61145984  0.11421006  0.12758088  1
  O  O176  1  0.63499697  0.12367170  0.60933035  1
  O  O177  1  0.60905168  0.68376439  0.10306963  1
  O  O178  1  0.61709557  0.62579743  0.61870631  1
  O  O179  1  0.38455928  0.37608016  0.38816891  1
  O  O180  1  0.38168015  0.38463522  0.88278045  1
  O  O181  1  0.38042390  0.87926924  0.38350861  1
  O  O182  1  0.36871170  0.88394895  0.88589860  1
  O  O183  1  0.88447956  0.38601162  0.36751414  1
  O  O184  1  0.88018040  0.37892509  0.88689091  1
  O  O185  1  0.88863727  0.88471944  0.37228924  1
  O  O186  1  0.88236179  0.88032004  0.88287126  1
  O  O187  1  0.25312033  0.00618261  0.36903773  1
  O  O188  1  0.25231229  0.00204459  0.86715988  1
  O  O189  1  0.26957955  0.47712556  0.35949407  1
  O  O190  1  0.25658835  0.50479398  0.87141632  1
  O  O191  1  0.76115021  0.00632996  0.37171418  1
  O  O192  1  0.76980427  -0.00016524  0.87443430  1
  O  O193  1  0.76896990  0.51263353  0.38745160  1
  O  O194  1  0.75621753  0.51409234  0.87452846  1
  O  O195  1  0.24282790  0.48637803  0.12219940  1
  O  O196  1  0.24580354  0.48943308  0.63622205  1
  O  O197  1  0.24766110  0.99718477  0.13132014  1
  O  O198  1  0.24886713  0.98848633  0.63405121  1
  O  O199  1  0.75787264  0.51650201  0.13822418  1
  O  O200  1  0.75050477  0.49339494  0.62451755  1
  O  O201  1  0.74297901  1.00460721  0.12763277  1
  O  O202  1  0.75329165  0.99010097  0.62420809  1
  O  O203  1  0.01250345  0.37346184  0.26375184  1
  O  O204  1  0.00502941  0.36518549  0.75968680  1
  O  O205  1  0.00427008  0.86579453  0.25929540  1
  O  O206  1  0.01134768  0.86526199  0.74661941  1
  O  O207  1  0.48834282  0.36130768  0.26981292  1
  O  O208  1  0.50618930  0.37513536  0.75757062  1
  O  O209  1  0.50543255  0.87156623  0.25769247  1
  O  O210  1  0.50990064  0.87858023  0.74278992  1
  O  O211  1  0.49398335  0.12811587  0.24446671  1
  O  O212  1  0.49274009  0.12987690  0.74966825  1
  O  O213  1  0.49754186  0.63880102  0.25596759  1
  O  O214  1  0.49341543  0.62213743  0.73718724  1
  O  O215  1  0.99825054  0.12587530  0.24377060  1
  O  O216  1  1.01207868  0.13226692  0.73577511  1
  O  O217  1  1.00126345  0.63612308  0.24925086  1
  O  O218  1  1.00705091  0.63157542  0.73740055  1
  O  O219  1  0.36875034  0.26171323  -0.00654123  1
  O  O220  1  0.36018065  0.25793944  0.49744937  1
  O  O221  1  0.37091281  0.75416833  0.00911951  1
  O  O222  1  0.37054578  0.76131162  0.49140743  1
  O  O223  1  0.88626316  0.27306769  0.01012386  1
  O  O224  1  0.86434857  0.24637485  0.50855384  1
  O  O225  1  0.87772199  0.75847175  0.00901523  1
  O  O226  1  0.86751551  0.74744697  0.50863771  1
  O  O227  1  0.13378387  0.24684612  0.49114173  1
  O  O228  1  0.13195343  0.24856246  0.99433386  1
  O  O229  1  0.12391519  0.74866710  0.48489580  1
  O  O230  1  0.13021868  0.74306922  0.99759711  1
  O  O231  1  0.64146895  0.23744488  0.49735812  1
  O  O232  1  0.62657810  0.25851314  0.99531875  1
  O  O233  1  0.63408248  0.74318467  0.49840565  1
  O  O234  1  0.63266135  0.77070369  0.97173531  1
  O  O235  1  0.49465631  0.23787829  0.13604807  1
  O  O236  1  0.49977242  0.24112710  0.62330958  1
  O  O237  1  0.47955765  0.76720625  0.13967394  1
  O  O238  1  0.50233991  0.73520244  0.62153509  1
  O  O239  1  0.99887266  0.23849177  0.12673130  1
  O  O240  1  0.99439731  0.24526386  0.63083943  1
  O  O241  1  0.99045984  0.74475759  0.13407906  1
  O  O242  1  0.99606843  0.74281603  0.62777476  1
  O  O243  1  0.00817961  0.25696679  0.37752757  1
  O  O244  1  0.00347809  0.25511047  0.86963559  1
  O  O245  1  0.00045630  0.75615690  0.37116383  1
  O  O246  1  0.00620043  0.74804360  0.86572789  1
  O  O247  1  0.49561668  0.25263524  0.37021356  1
  O  O248  1  0.51556195  0.26967007  0.88395116  1
  O  O249  1  0.50051125  0.76343976  0.36679937  1
  O  O250  1  0.50847382  0.75157637  0.87345618  1
  O  O251  1  0.24174323  0.13136568  0.49276777  1
  O  O252  1  0.24575298  0.12838903  0.99267788  1
  O  O253  1  0.23561252  0.57669214  0.49155040  1
  O  O254  1  0.24405104  0.63150540  0.99592884  1
  O  O255  1  0.75002344  0.12960688  0.48948854  1
  O  O256  1  0.79858643  0.13659321  0.97364536  1
  O  O257  1  0.74580511  0.63718574  0.49438280  1
  O  O258  1  0.74123245  0.63284053  0.98323964  1
  O  O259  1  0.25872774  0.37060350  0.00608968  1
  O  O260  1  0.25676763  0.36948232  0.50940319  1
  O  O261  1  0.25629402  0.86845993  0.00698074  1
  O  O262  1  0.25499137  0.87455248  0.51164484  1
  O  O263  1  0.76020559  0.38259899  0.00178593  1
  O  O264  1  0.74680386  0.36593702  0.51153500  1
  O  O265  1  0.76555070  0.87658232  0.00176546  1
  O  O266  1  0.74381676  0.86441890  0.50966519  1
  O  O267  1  0.12687848  0.49026065  0.24736385  1
  O  O268  1  0.13099487  0.49363540  0.74680477  1
  O  O269  1  0.13752592  0.99737426  0.24567761  1
  O  O270  1  0.13187449  0.98382363  0.75467438  1
  O  O271  1  0.64524403  0.49171527  0.28803590  1
  O  O272  1  0.62870593  0.48764898  0.74928898  1
  O  O273  1  0.63073256  0.99756538  0.24227012  1
  O  O274  1  0.62857372  0.98854124  0.74943679  1
  O  O275  1  0.36266208  -0.00629014  0.26150528  1
  O  O276  1  0.36292169  -0.00578399  0.75765545  1
  O  O277  1  0.38800224  0.51226636  0.25160528  1
  O  O278  1  0.37089720  0.50575975  0.75865945  1
  O  O279  1  0.87129509  0.00672737  0.25920799  1
  O  O280  1  0.87874317  -0.01280957  0.76185409  1
  O  O281  1  0.87580366  0.50367313  0.25492681  1
  O  O282  1  0.87078397  0.49273776  0.76604944  1
  O  O283  1  0.12140531  0.37005914  0.37217599  1
  O  O284  1  0.11862364  0.37056164  0.87214949  1
  O  O285  1  0.11448115  0.86579510  0.37484687  1
  O  O286  1  0.12536871  0.86453658  0.86594431  1
  O  O287  1  0.60453941  0.36422614  0.39014240  1
  O  O288  1  0.61993031  0.37479487  0.86927327  1
  O  O289  1  0.61717915  0.87975239  0.36647690  1
  O  O290  1  0.62912642  0.86972016  0.85711763  1
  O  O291  1  0.38420835  0.12350671  0.12147943  1
  O  O292  1  0.36450206  0.12672614  0.62651449  1
  O  O293  1  0.36980273  0.63434114  0.13675128  1
  O  O294  1  0.38706274  0.62149591  0.63182728  1
  O  O295  1  0.88591566  0.12891026  0.13255142  1
  O  O296  1  0.88627320  0.13778605  0.62263056  1
  O  O297  1  0.87062465  0.62594845  0.13035497  1
  O  O298  1  0.88369930  0.63636053  0.62371257  1
  O  O299  1  0.25203575  0.25843620  0.11753657  1
  O  O300  1  0.24150934  0.25904552  0.61815644  1
  O  O301  1  0.25721200  0.75633956  0.12459374  1
  O  O302  1  0.24924425  0.75741762  0.62549017  1
  O  O303  1  0.76575686  0.22805781  0.11135515  1
  O  O304  1  0.75825304  0.25455107  0.61964236  1
  O  O305  1  0.76571284  0.75723110  0.12453817  1
  O  O306  1  0.75798830  0.75409583  0.62005209  1
  O  O307  1  0.24495463  0.24397618  0.38202264  1
  O  O308  1  0.24052096  0.23923918  0.88061848  1
  O  O309  1  0.23534231  0.75443275  0.36891372  1
  O  O310  1  0.24404616  0.74392004  0.88111925  1
  O  O311  1  0.75368804  0.24294684  0.38307332  1
  O  O312  1  0.73198183  0.25908825  0.87465436  1
  O  O313  1  0.75340130  0.74835736  0.38292172  1
  O  O314  1  0.75766598  0.74101713  0.87166260  1
  O  O315  1  -0.00116602  0.11610088  0.00945412  1
  O  O316  1  0.00718336  0.11825069  0.50714723  1
  O  O317  1  0.01300407  0.62927855  0.00477452  1
  O  O318  1  0.00587648  0.61577769  0.51251534  1
  O  O319  1  0.49494866  0.11087295  0.00704736  1
  O  O320  1  0.51898359  0.12855182  0.49366956  1
  O  O321  1  0.50147853  0.61062118  -0.01595338  1
  O  O322  1  0.50734229  0.62761424  0.50563190  1
  O  O323  1  0.49200610  0.37184707  0.49459990  1
  O  O324  1  0.49075363  0.38929889  0.99369195  1
  O  O325  1  0.48761234  0.86956049  0.49359891  1
  O  O326  1  0.49047337  0.87929816  1.00892335  1
  O  O327  1  0.99940761  0.37759284  0.48883551  1
  O  O328  1  1.00467602  0.37619371  0.99018142  1
  O  O329  1  1.00496654  0.88730233  0.49489574  1
  O  O330  1  0.99297410  0.88079235  1.00158365  1
  O  O331  1  0.49296973  0.48581643  0.37681555  1
  O  O332  1  0.49641045  0.49317893  0.87713317  1
  O  O333  1  0.49067748  0.98977657  0.36924372  1
  O  O334  1  0.49060710  1.00242687  0.88134409  1
  O  O335  1  0.99371134  0.49610566  0.38317831  1
  O  O336  1  0.99125326  0.48956604  0.87055839  1
  O  O337  1  0.99697634  0.99334194  0.37975122  1
  O  O338  1  0.99800143  0.99229000  0.88394428  1
  O  O339  1  0.00434596  0.00766337  0.12086858  1
  O  O340  1  -0.00632840  0.00874662  0.61522838  1
  O  O341  1  0.01629608  0.50076413  0.13177136  1
  O  O342  1  -0.00072759  0.50421945  0.62339372  1
  O  O343  1  0.50462653  0.00464363  0.11933932  1
  O  O344  1  0.50250908  0.01135620  0.61901897  1
  O  O345  1  0.48262984  0.51967849  0.10645830  1
  O  O346  1  0.50618571  0.51283816  0.61803822  1
  O  O347  1  0.24406578  0.36555502  0.24085467  1
  O  O348  1  0.24520379  0.37719339  0.74831531  1
  O  O349  1  0.24909592  0.88317056  0.24228641  1
  O  O350  1  0.24549518  0.87640234  0.73774921  1
  O  O351  1  0.73704388  0.33373080  0.22911603  1
  O  O352  1  0.74455844  0.37623440  0.73706398  1
  O  O353  1  0.74128453  0.88669482  0.24966271  1
  O  O354  1  0.74734214  0.87739997  0.73735121  1
  O  O355  1  0.24511207  0.11946118  0.26302524  1
  O  O356  1  0.24638764  0.11382383  0.75712533  1
  O  O357  1  0.26413121  0.62126981  0.25077670  1
  O  O358  1  0.25623991  0.61882451  0.75537199  1
  O  O359  1  0.75494892  0.12554752  0.26237298  1
  O  O360  1  0.74817047  0.12300772  0.75995897  1
  O  O361  1  0.75164421  0.63346897  0.25528226  1
  O  O362  1  0.74611215  0.62405734  0.76082912  1
  O  O363  1  0.36378867  0.11566829  0.38471659  1
  O  O364  1  0.35801536  0.10635780  0.88032130  1
  O  O365  1  0.37961828  0.61354780  0.36306896  1
  O  O366  1  0.36912385  0.62036284  0.86779726  1
  O  O367  1  0.87248461  0.11983924  0.37001698  1
  O  O368  1  0.90073569  0.10458840  0.85901371  1
  O  O369  1  0.86580153  0.62118652  0.37736585  1
  O  O370  1  0.86499793  0.61766066  0.88031552  1
  O  O371  1  0.13281428  0.38015772  0.13453474  1
  O  O372  1  0.12960210  0.37895956  0.63433438  1
  O  O373  1  0.13285813  0.88081710  0.12651647  1
  O  O374  1  0.13840030  0.86887701  0.63028142  1
  O  O375  1  0.57570917  0.39680191  0.14012667  1
  O  O376  1  0.63455144  0.37749889  0.62903903  1
  O  O377  1  0.62557833  0.88207974  0.13690495  1
  O  O378  1  0.63261666  0.87594690  0.63499750  1
  O  O379  1  0.12564291  0.25781454  0.26376375  1
  O  O380  1  0.11575999  0.25376732  0.75718079  1
  O  O381  1  0.11665424  0.75101310  0.26016560  1
  O  O382  1  0.11731788  0.75566354  0.75388891  1
  O  O383  1  0.60032880  0.24191273  0.25827982  1
  O  O384  1  0.62103877  0.26511977  0.75463106  1
  O  O385  1  0.61702118  0.76323142  0.25555825  1
  O  O386  1  0.62663344  0.76488306  0.75925821  1
  O  O387  1  0.38595660  0.24845431  0.25010225  1
  O  O388  1  0.38783000  0.23753246  0.79087115  1
  O  O389  1  0.37927568  0.73969274  0.24779552  1
  O  O390  1  0.37108390  0.73776666  0.75461110  1
  O  O391  1  0.88187403  0.24516242  0.24006964  1
  O  O392  1  0.88715830  0.25404430  0.74608593  1
  O  O393  1  0.88429834  0.75683016  0.24279709  1
  O  O394  1  0.89108279  0.75371559  0.74328419  1
  O  O395  1  0.37909778  0.48934002  0.49056648  1
  O  O396  1  0.37774342  0.49483569  0.99078833  1
  O  O397  1  0.36595688  0.98498946  0.48599988  1
  O  O398  1  0.38260753  0.98977540  0.99262476  1
  O  O399  1  0.88835084  0.50291866  0.49493414  1
  O  O400  1  0.87841311  0.48712583  0.99039878  1
  O  O401  1  0.88607531  1.00730040  0.48698506  1
  O  O402  1  0.88818950  0.99257263  0.99323166  1
  O  O403  1  0.11420440  -0.00144008  0.00625159  1
  O  O404  1  0.11637858  0.01053957  0.49302328  1
  O  O405  1  0.13094191  0.50967269  0.01092850  1
  O  O406  1  0.10630018  0.48638798  0.51256828  1
  O  O407  1  0.61670629  -0.00895059  0.00661219  1
  O  O408  1  0.63381567  0.01513654  0.49957355  1
  O  O409  1  0.61151473  0.50499791  0.00254910  1
  O  O410  1  0.62551954  0.51740937  0.49481399  1
  O  O411  1  0.37150205  0.37419319  0.11642937  1
  O  O412  1  0.37088360  0.38136050  0.61707833  1
  O  O413  1  0.36577184  0.87158274  0.11854895  1
  O  O414  1  0.36511161  0.87456662  0.61132093  1
  O  O415  1  0.87823659  0.37141878  0.11468898  1
  O  O416  1  0.86954940  0.36153800  0.62802470  1
  O  O417  1  0.87700763  0.87031186  0.11861064  1
  O  O418  1  0.86886894  0.86042946  0.62553052  1
  O  O419  1  0.13020517  0.13433493  0.38386195  1
  O  O420  1  0.13259212  0.12541823  0.87744585  1
  O  O421  1  0.12054704  0.63990896  0.37719567  1
  O  O422  1  0.12958042  0.62734814  0.88318141  1
  O  O423  1  0.63675435  0.12440121  0.38297494  1
  O  O424  1  0.62225680  0.14402382  0.88042931  1
  O  O425  1  0.63930686  0.63239457  0.38182688  1
  O  O426  1  0.63206466  0.64423664  0.87039718  1
