# generated using pymatgen
data_V85Zn86O256
_symmetry_space_group_name_H-M   'P 1'
_cell_length_a   16.97583973
_cell_length_b   16.96941302
_cell_length_c   16.96530079
_cell_angle_alpha   90.02882797
_cell_angle_beta   90.05993698
_cell_angle_gamma   90.04704144
_symmetry_Int_Tables_number   1
_chemical_formula_structural   V85Zn86O256
_chemical_formula_sum   'V85 Zn86 O256'
_cell_volume   4887.18985944
_cell_formula_units_Z   1
loop_
 _symmetry_equiv_pos_site_id
 _symmetry_equiv_pos_as_xyz
  1  'x, y, z'
loop_
 _atom_site_type_symbol
 _atom_site_label
 _atom_site_symmetry_multiplicity
 _atom_site_fract_x
 _atom_site_fract_y
 _atom_site_fract_z
 _atom_site_occupancy
  V  V0  1  0.62219342  0.12921582  -0.00092655  1
  V  V1  1  0.37663098  0.24895552  0.63985164  1
  V  V2  1  0.49614780  0.49863845  -0.01290039  1
  V  V3  1  0.87677214  0.37030496  0.49937684  1
  V  V4  1  0.87545729  0.75053478  0.12631987  1
  V  V5  1  0.87831378  -0.00348762  0.87560470  1
  V  V6  1  0.12739510  0.50397983  0.63059733  1
  V  V7  1  0.63219705  0.24430409  0.38420927  1
  V  V8  1  0.87498938  0.25099242  0.12502325  1
  V  V9  1  0.00074094  0.61910032  0.11610033  1
  V  V10  1  0.62476778  0.37281707  0.25236361  1
  V  V11  1  0.74600532  0.11991093  0.87480457  1
  V  V12  1  0.74996184  0.74976671  -0.00110079  1
  V  V13  1  0.00375971  0.12369171  0.12404387  1
  V  V14  1  0.87088820  0.12736960  0.25205537  1
  V  V15  1  0.00915006  0.11591276  0.61435994  1
  V  V16  1  0.37302040  0.37600720  -0.00506172  1
  V  V17  1  0.00180059  0.49710063  0.49847174  1
  V  V18  1  0.24955315  0.11334830  0.86858610  1
  V  V19  1  0.50918743  0.00379551  0.50361633  1
  V  V20  1  0.49922339  -0.00312976  -0.00179083  1
  V  V21  1  0.12414582  0.74950477  0.37527113  1
  V  V22  1  0.62088467  0.49738541  0.12558986  1
  V  V23  1  0.50118916  0.87814545  0.87167004  1
  V  V24  1  0.24840640  0.74240738  -0.00134655  1
  V  V25  1  0.12460057  0.62457258  0.50163712  1
  V  V26  1  0.12179220  0.75485787  0.87249307  1
  V  V27  1  0.25158680  0.61256623  0.86387397  1
  V  V28  1  0.24946055  0.25219012  -0.01117143  1
  V  V29  1  0.74958960  0.50173786  0.25150607  1
  V  V30  1  0.35797466  0.24309662  0.14415601  1
  V  V31  1  0.37573728  0.87446546  -0.00498560  1
  V  V32  1  0.49860087  0.61764425  0.12539153  1
  V  V33  1  0.37461685  0.74593548  0.12514535  1
  V  V34  1  0.62656876  0.74932977  0.87338069  1
  V  V35  1  0.13308038  0.88018583  0.24595029  1
  V  V36  1  0.74464023  -0.00601067  0.73916791  1
  V  V37  1  0.50677467  0.35428116  0.87278700  1
  V  V38  1  0.24969054  0.62098725  0.37557570  1
  V  V39  1  0.37537506  0.02436805  0.36289681  1
  V  V40  1  0.24920880  0.23706060  0.50049413  1
  V  V41  1  0.25078480  0.75418125  0.50012230  1
  V  V42  1  0.74908704  0.50609963  0.73318613  1
  V  V43  1  0.37501800  0.61866267  0.24964151  1
  V  V44  1  0.62516069  0.87568667  0.73596597  1
  V  V45  1  0.38021436  0.10612041  0.75682556  1
  V  V46  1  0.75250168  0.87559470  0.12474389  1
  V  V47  1  0.88476798  0.87476751  -0.00063256  1
  V  V48  1  -0.01304520  0.25119375  0.74790430  1
  V  V49  1  0.24910885  0.37709482  0.62858478  1
  V  V50  1  0.74840555  0.00038323  0.25405608  1
  V  V51  1  0.37954578  0.87708718  0.49477030  1
  V  V52  1  0.50146392  0.74758861  0.25411632  1
  V  V53  1  0.62543978  0.62288712  -0.00056471  1
  V  V54  1  0.00078060  0.25515014  0.25555059  1
  V  V55  1  0.37211583  0.74783776  0.62551446  1
  V  V56  1  -0.00165411  0.62653796  0.63817590  1
  V  V57  1  0.62906991  0.62257814  0.50617959  1
  V  V58  1  0.50471762  0.12246652  0.63047612  1
  V  V59  1  0.12349401  0.37223162  0.74828078  1
  V  V60  1  0.74738314  0.24928236  -0.00210643  1
  V  V61  1  0.74842588  0.76107311  0.50239895  1
  V  V62  1  0.49977757  0.74693113  0.74866008  1
  V  V63  1  0.37386998  0.49364193  0.37679974  1
  V  V64  1  0.50044936  0.37360699  0.37772039  1
  V  V65  1  0.87569090  0.62525488  0.25158879  1
  V  V66  1  0.37260758  0.37249672  0.50277282  1
  V  V67  1  0.62419335  -0.00028313  0.12421651  1
  V  V68  1  0.74790576  0.37452962  0.12264207  1
  V  V69  1  0.88795072  0.87529493  0.49645392  1
  V  V70  1  0.12260160  0.37546530  0.25736430  1
  V  V71  1  0.24796025  0.49380728  0.24705402  1
  V  V72  1  0.74357432  0.36105278  0.61843102  1
  V  V73  1  0.00070992  0.76853839  0.75181177  1
  V  V74  1  0.49119938  0.12542735  0.12912255  1
  V  V75  1  0.87262797  0.75209528  0.63130026  1
  V  V76  1  0.87745697  0.49779212  0.87030578  1
  V  V77  1  0.37453998  0.61159316  0.75305300  1
  V  V78  1  0.88129674  0.37798115  -0.00415776  1
  V  V79  1  0.12710681  0.23823155  0.38074407  1
  V  V80  1  0.87986196  0.49750088  0.37495834  1
  V  V81  1  0.75553754  0.62204121  0.86986989  1
  V  V82  1  0.50584283  0.49774967  0.50996462  1
  V  V83  1  0.25363280  0.88143911  0.12307647  1
  V  V84  1  0.00278039  0.75107020  0.25215264  1
  Zn  Zn85  1  0.75361452  0.12594832  0.38564286  1
  Zn  Zn86  1  0.49859814  0.24073523  0.25405145  1
  Zn  Zn87  1  0.12409031  0.12641227  -0.00242156  1
  Zn  Zn88  1  0.87468687  0.24115741  0.61119302  1
  Zn  Zn89  1  0.13061903  0.00153179  0.11836926  1
  Zn  Zn90  1  0.74871743  0.62719083  0.37701187  1
  Zn  Zn91  1  0.62560449  0.75049436  0.37680225  1
  Zn  Zn92  1  0.62165609  0.37058058  0.74924629  1
  Zn  Zn93  1  0.00194448  0.00108510  -0.00192914  1
  Zn  Zn94  1  0.87195835  0.12097627  0.74613683  1
  Zn  Zn95  1  0.62612928  0.87108782  0.25192606  1
  Zn  Zn96  1  0.50373469  0.61680444  0.62978971  1
  Zn  Zn97  1  0.24263094  0.37808813  0.11565722  1
  Zn  Zn98  1  0.03810621  0.91892284  0.40380354  1
  Zn  Zn99  1  0.87701585  -0.00039914  0.38268701  1
  Zn  Zn100  1  0.11452200  0.49201953  0.11819010  1
  Zn  Zn101  1  0.12072345  0.61497495  -0.00771237  1
  Zn  Zn102  1  0.17819843  0.96024092  0.69942931  1
  Zn  Zn103  1  0.12146949  0.25112017  0.87233435  1
  Zn  Zn104  1  0.50216332  0.88115631  0.37154697  1
  Zn  Zn105  1  -0.00139510  0.37667780  0.87451968  1
  Zn  Zn106  1  0.64036276  0.12288222  0.52038548  1
  Zn  Zn107  1  0.18895302  0.19282821  0.18442667  1
  Zn  Zn108  1  0.18783613  0.18496254  0.68922263  1
  Zn  Zn109  1  0.18711400  0.68407419  0.18609122  1
  Zn  Zn110  1  0.18347919  0.79605248  0.67968515  1
  Zn  Zn111  1  0.68363505  0.18761926  0.18844313  1
  Zn  Zn112  1  0.68495758  0.19230167  0.69815955  1
  Zn  Zn113  1  0.68692967  0.68546741  0.18707644  1
  Zn  Zn114  1  0.68808649  0.68763266  0.68381749  1
  Zn  Zn115  1  0.30878611  0.29222297  0.30487583  1
  Zn  Zn116  1  0.31324068  0.32065650  0.81416174  1
  Zn  Zn117  1  0.31434129  0.81192813  0.31253974  1
  Zn  Zn118  1  0.31379080  0.80402420  0.81770700  1
  Zn  Zn119  1  0.81180672  0.31534997  0.31551839  1
  Zn  Zn120  1  0.78763557  0.30722141  0.80372855  1
  Zn  Zn121  1  0.81153022  0.81254813  0.31620588  1
  Zn  Zn122  1  0.81403739  0.81469267  0.81144331  1
  Zn  Zn123  1  0.18536216  0.42977237  0.43854798  1
  Zn  Zn124  1  0.18212626  0.44043650  0.93484865  1
  Zn  Zn125  1  0.20523031  0.94734164  0.43894697  1
  Zn  Zn126  1  0.15889318  0.95944741  0.90042014  1
  Zn  Zn127  1  0.68960984  0.43900802  0.43884402  1
  Zn  Zn128  1  0.68832346  0.43882271  0.93479593  1
  Zn  Zn129  1  0.68590379  0.93599202  0.43625192  1
  Zn  Zn130  1  0.68730935  0.93698021  0.93631342  1
  Zn  Zn131  1  0.31239980  0.06177008  0.05201558  1
  Zn  Zn132  1  0.31782322  0.06079505  0.56265873  1
  Zn  Zn133  1  0.31080395  0.55799819  0.05946973  1
  Zn  Zn134  1  0.31257943  0.56282536  0.56550590  1
  Zn  Zn135  1  0.81489636  0.06093805  0.06474316  1
  Zn  Zn136  1  0.81869919  0.06159199  0.56308090  1
  Zn  Zn137  1  0.81402195  0.56071833  0.06089708  1
  Zn  Zn138  1  0.81811046  0.56976002  0.55844351  1
  Zn  Zn139  1  0.43183462  0.42158343  0.18744842  1
  Zn  Zn140  1  0.43982377  0.43052589  0.69257720  1
  Zn  Zn141  1  0.43704962  0.93563988  0.18739162  1
  Zn  Zn142  1  0.33545410  0.92855586  0.68530628  1
  Zn  Zn143  1  0.93544665  0.43515383  0.18776654  1
  Zn  Zn144  1  0.93163353  0.43852209  0.68606546  1
  Zn  Zn145  1  0.95443636  0.95218158  0.21875480  1
  Zn  Zn146  1  0.93034114  0.93724392  0.68518480  1
  Zn  Zn147  1  0.06501783  0.06474966  0.31155423  1
  Zn  Zn148  1  0.05841896  0.07079291  0.80604082  1
  Zn  Zn149  1  0.06111214  0.56277923  0.31096764  1
  Zn  Zn150  1  0.06488193  0.56146693  0.81332058  1
  Zn  Zn151  1  0.56011657  0.06075026  0.31312688  1
  Zn  Zn152  1  0.56244937  0.06132748  0.81124598  1
  Zn  Zn153  1  0.56377331  0.56202740  0.31961456  1
  Zn  Zn154  1  0.57041847  0.55857569  0.80860270  1
  Zn  Zn155  1  0.44085677  0.18965066  0.44525219  1
  Zn  Zn156  1  0.43221059  0.18671120  0.94160960  1
  Zn  Zn157  1  0.43826637  0.68099622  0.43812084  1
  Zn  Zn158  1  0.43647404  0.68496306  0.93500433  1
  Zn  Zn159  1  0.94278911  0.18516758  0.43498433  1
  Zn  Zn160  1  0.93381260  0.18810262  0.93427138  1
  Zn  Zn161  1  0.93828628  0.68725800  0.44075235  1
  Zn  Zn162  1  0.93483682  0.68893996  0.93312332  1
  Zn  Zn163  1  0.06414976  0.30963503  0.06336139  1
  Zn  Zn164  1  0.06023639  0.30986642  0.56266679  1
  Zn  Zn165  1  0.06723014  0.80627664  0.06189290  1
  Zn  Zn166  1  0.07145389  0.94311781  0.56504142  1
  Zn  Zn167  1  0.55618565  0.30891565  0.06264118  1
  Zn  Zn168  1  0.56033129  0.30654390  0.56464939  1
  Zn  Zn169  1  0.56284424  0.80900740  0.06604362  1
  Zn  Zn170  1  0.55809062  0.81016911  0.56140772  1
  O  O171  1  0.11862711  0.12440452  0.12594676  1
  O  O172  1  0.10871539  0.12550746  0.63280871  1
  O  O173  1  0.10742017  0.62315029  0.12708011  1
  O  O174  1  0.11588090  0.61448080  0.61597825  1
  O  O175  1  0.61783527  0.11879993  0.11710558  1
  O  O176  1  0.61142906  0.13718740  0.63351892  1
  O  O177  1  0.61829892  0.61733703  0.11911548  1
  O  O178  1  0.62102594  0.62639488  0.61186444  1
  O  O179  1  0.38428686  0.37555518  0.38185856  1
  O  O180  1  0.39050671  0.37002964  0.88528371  1
  O  O181  1  0.38307571  0.86690687  0.38720223  1
  O  O182  1  0.38873528  0.86173790  0.88579527  1
  O  O183  1  0.86893387  0.39002993  0.38149636  1
  O  O184  1  0.86795765  0.38111635  0.88064469  1
  O  O185  1  0.87380607  0.87255822  0.39117904  1
  O  O186  1  0.86718424  0.88243124  0.88924364  1
  O  O187  1  0.27715547  0.00152301  0.37347389  1
  O  O188  1  0.26281698  0.01760028  0.88809434  1
  O  O189  1  0.25237014  0.50083812  0.36686279  1
  O  O190  1  0.24956419  0.51404339  0.87401902  1
  O  O191  1  0.75357227  0.00099899  0.36469277  1
  O  O192  1  0.75668131  0.00562237  0.87412827  1
  O  O193  1  0.75689584  0.50354612  0.36657680  1
  O  O194  1  0.75596794  0.50564619  0.86675309  1
  O  O195  1  0.24910070  0.49884430  0.13814303  1
  O  O196  1  0.23846049  0.49067449  0.61814981  1
  O  O197  1  0.25307600  0.98461936  0.11668358  1
  O  O198  1  0.26242460  0.99657762  0.63172024  1
  O  O199  1  0.74285393  0.49347535  0.13078885  1
  O  O200  1  0.75364644  0.50811880  0.63210353  1
  O  O201  1  0.74380855  0.99186136  0.12852239  1
  O  O202  1  0.75269930  1.00017585  0.64177323  1
  O  O203  1  0.00324621  0.36232735  0.24618708  1
  O  O204  1  0.00360911  0.36519423  0.74580710  1
  O  O205  1  0.01486102  0.85621931  0.23682825  1
  O  O206  1  -0.00654834  0.86622537  0.75430324  1
  O  O207  1  0.51802300  0.38912519  0.26224686  1
  O  O208  1  0.50386602  0.37331372  0.76713455  1
  O  O209  1  0.50188345  0.86043590  0.24740290  1
  O  O210  1  0.50930661  0.86285732  0.76096340  1
  O  O211  1  0.50508713  0.12465154  0.23294260  1
  O  O212  1  0.48876822  0.12282719  0.74775269  1
  O  O213  1  0.49391016  0.62449258  0.24555162  1
  O  O214  1  0.49660191  0.62940933  0.75170222  1
  O  O215  1  0.99226705  0.13797765  0.24390590  1
  O  O216  1  0.99329055  0.13896634  0.74516390  1
  O  O217  1  0.99396952  0.63376628  0.24256183  1
  O  O218  1  1.00055599  0.62230183  0.73906483  1
  O  O219  1  0.36562039  0.25655625  0.00570174  1
  O  O220  1  0.36691467  0.25675847  0.50842725  1
  O  O221  1  0.37324955  0.75339196  0.00715878  1
  O  O222  1  0.37064820  0.74933811  0.50489016  1
  O  O223  1  0.86635641  0.25553093  0.00805229  1
  O  O224  1  0.88269125  0.26718688  0.49100051  1
  O  O225  1  0.86873432  0.75620176  0.00466884  1
  O  O226  1  0.86849176  0.75677521  0.50499263  1
  O  O227  1  0.13027021  0.25427476  0.48761170  1
  O  O228  1  0.13325583  0.24979214  0.99250579  1
  O  O229  1  0.13662085  0.74191803  0.48716737  1
  O  O230  1  0.13397660  0.73527441  0.99688140  1
  O  O231  1  0.62235911  0.24715875  0.48605410  1
  O  O232  1  0.63140500  0.23681634  1.00840106  1
  O  O233  1  0.63262287  0.74368008  0.50173517  1
  O  O234  1  0.62999950  0.74222270  0.99533308  1
  O  O235  1  0.48736161  0.23844638  0.12378742  1
  O  O236  1  0.48584662  0.23950756  0.61943910  1
  O  O237  1  0.49478919  0.73859069  0.13317540  1
  O  O238  1  0.49513373  0.74432290  0.63711939  1
  O  O239  1  0.99429856  0.24207348  0.13283197  1
  O  O240  1  0.99562229  0.24462357  0.63418339  1
  O  O241  1  0.99350487  0.73861824  0.13059480  1
  O  O242  1  0.99385105  0.74250699  0.64344118  1
  O  O243  1  0.01430411  0.24736518  0.36772263  1
  O  O244  1  -0.00130589  0.25330247  0.86165489  1
  O  O245  1  0.01209523  0.74204959  0.36597380  1
  O  O246  1  0.00535640  0.73886160  0.85947864  1
  O  O247  1  0.50854809  0.26166068  0.37428130  1
  O  O248  1  0.50455870  0.25606678  0.88247753  1
  O  O249  1  0.49797960  0.74336193  0.36067432  1
  O  O250  1  0.50668248  0.75145845  0.86596062  1
  O  O251  1  0.25741582  0.13827072  0.50364297  1
  O  O252  1  0.25254587  0.13536286  0.98540780  1
  O  O253  1  0.24630866  0.62950889  0.49257911  1
  O  O254  1  0.25685537  0.63257379  0.98963417  1
  O  O255  1  0.74936708  0.11845382  0.49784858  1
  O  O256  1  0.74164863  0.12849168  0.99923014  1
  O  O257  1  0.74304708  0.63328607  0.49859772  1
  O  O258  1  0.74440382  0.63015060  0.99453603  1
  O  O259  1  0.25738268  0.37058488  -0.00905265  1
  O  O260  1  0.25377424  0.36859459  0.51212066  1
  O  O261  1  0.26235260  0.85615413  0.00765830  1
  O  O262  1  0.26150810  0.86007200  0.49188030  1
  O  O263  1  0.75187614  0.36559053  0.00420454  1
  O  O264  1  0.75942842  0.38583070  0.51368611  1
  O  O265  1  0.75399722  0.86795846  0.00771793  1
  O  O266  1  0.75337193  0.86357890  0.50032200  1
  O  O267  1  0.13042086  0.49267016  0.24881827  1
  O  O268  1  0.11784387  0.49106918  0.73603912  1
  O  O269  1  0.12633783  0.98297866  0.24435938  1
  O  O270  1  0.13438635  0.99400778  0.79412651  1
  O  O271  1  0.63244497  0.49593489  0.24720090  1
  O  O272  1  0.64474518  0.49028824  0.75301349  1
  O  O273  1  0.63458377  0.99986686  0.24327918  1
  O  O274  1  0.63609792  0.98974366  0.75571846  1
  O  O275  1  0.38716877  0.00051847  0.26496623  1
  O  O276  1  0.38374231  0.00813347  0.75759592  1
  O  O277  1  0.36696123  0.49689864  0.25614102  1
  O  O278  1  0.37957445  0.51267387  0.74384363  1
  O  O279  1  0.85835665  0.01213579  0.24131445  1
  O  O280  1  0.86044072  -0.00459652  0.75874975  1
  O  O281  1  0.87010878  0.50312795  0.25679692  1
  O  O282  1  0.86081385  0.50093748  0.75707199  1
  O  O283  1  0.12449916  0.36715267  0.36256141  1
  O  O284  1  0.12079928  0.37696403  0.85862388  1
  O  O285  1  0.13314066  0.85986455  0.36149644  1
  O  O286  1  0.12270972  0.85154424  0.89459265  1
  O  O287  1  0.62198602  0.36700158  0.37145377  1
  O  O288  1  0.60721624  0.37727991  0.88336244  1
  O  O289  1  0.61930912  0.86939303  0.36987837  1
  O  O290  1  0.61790594  0.86482591  0.87422636  1
  O  O291  1  0.38110432  0.13357952  0.11387767  1
  O  O292  1  0.37991589  0.13155865  0.64210754  1
  O  O293  1  0.38006297  0.62547770  0.13058329  1
  O  O294  1  0.37924003  0.63236357  0.63144142  1
  O  O295  1  0.87912038  0.13231863  0.13520155  1
  O  O296  1  0.88721025  0.12628054  0.62921116  1
  O  O297  1  0.88142260  0.62935576  0.13074904  1
  O  O298  1  0.88825404  0.63996634  0.61630851  1
  O  O299  1  0.24959461  0.25701217  0.10195429  1
  O  O300  1  0.25494644  0.25554797  0.61925922  1
  O  O301  1  0.25723968  0.74740040  0.11679691  1
  O  O302  1  0.25949695  0.74136470  0.61078596  1
  O  O303  1  0.75396430  0.25454231  0.11860264  1
  O  O304  1  0.75634927  0.25986575  0.62030262  1
  O  O305  1  0.75567389  0.75566898  0.12106672  1
  O  O306  1  0.76195022  0.74394174  0.61700064  1
  O  O307  1  0.23702163  0.25850531  0.38678094  1
  O  O308  1  0.25099596  0.24724074  0.87964024  1
  O  O309  1  0.24578920  0.73928459  0.37796989  1
  O  O310  1  0.24182473  0.74016488  0.88292383  1
  O  O311  1  0.73498147  0.24997540  0.37059353  1
  O  O312  1  0.76023756  0.23606404  0.89470014  1
  O  O313  1  0.74870219  0.74642967  0.38632306  1
  O  O314  1  0.74691510  0.74129883  0.87808438  1
  O  O315  1  -0.00190416  0.12851964  0.01116874  1
  O  O316  1  -0.00034555  0.12849208  0.51523362  1
  O  O317  1  -0.00453834  0.62938295  0.01397760  1
  O  O318  1  0.00635768  0.61599664  0.50614934  1
  O  O319  1  0.50605217  0.11848246  0.00492204  1
  O  O320  1  0.50550023  0.12013790  0.51047106  1
  O  O321  1  0.50379292  0.61663992  0.00445279  1
  O  O322  1  0.50643623  0.61322389  0.50238759  1
  O  O323  1  0.49621500  0.37892653  0.49488656  1
  O  O324  1  0.49382782  0.37986294  0.99330030  1
  O  O325  1  0.49561741  0.88414255  0.49896875  1
  O  O326  1  0.49541761  0.87440260  0.99475401  1
  O  O327  1  0.99309197  0.38961455  0.50649190  1
  O  O328  1  0.98443537  0.36683421  0.99745029  1
  O  O329  1  0.98917372  0.86637498  0.49745871  1
  O  O330  1  0.98695025  0.87348221  1.01106387  1
  O  O331  1  0.49640062  0.48843104  0.38530941  1
  O  O332  1  0.50414366  0.50109999  0.88626985  1
  O  O333  1  0.49215165  1.00207730  0.38458603  1
  O  O334  1  0.50723927  0.98491859  0.88201242  1
  O  O335  1  0.99178453  0.50486761  0.38367266  1
  O  O336  1  0.98247348  0.49798662  0.86679868  1
  O  O337  1  0.98366162  0.98887496  0.33317879  1
  O  O338  1  0.98031806  1.01073198  0.87664814  1
  O  O339  1  0.00012770  0.01585721  0.13010006  1
  O  O340  1  -0.00160619  0.01071491  0.62976847  1
  O  O341  1  -0.00536825  0.51580941  0.13184391  1
  O  O342  1  0.00337096  0.50703365  0.61840968  1
  O  O343  1  0.50481606  0.00383151  0.11777745  1
  O  O344  1  0.49191065  0.01837983  0.61411404  1
  O  O345  1  0.50434092  0.49962124  0.11899478  1
  O  O346  1  0.49691494  0.49462920  0.61338061  1
  O  O347  1  0.24064185  0.38118590  0.24897987  1
  O  O348  1  0.24075950  0.37026438  0.73709374  1
  O  O349  1  0.24473388  0.86128456  0.23474407  1
  O  O350  1  0.25860495  0.86301797  0.74194436  1
  O  O351  1  0.74027301  0.38034324  0.24503449  1
  O  O352  1  0.76237828  0.39197714  0.72343404  1
  O  O353  1  0.75095287  0.88251007  0.24205258  1
  O  O354  1  0.73921856  0.88552743  0.75654169  1
  O  O355  1  0.29434306  0.20070637  0.22589403  1
  O  O356  1  0.26331518  0.12841717  0.76115410  1
  O  O357  1  0.25500874  0.61459317  0.25530089  1
  O  O358  1  0.26089567  0.62696840  0.76216619  1
  O  O359  1  0.75596569  0.12013566  0.25117920  1
  O  O360  1  0.74902187  0.11079175  0.75978244  1
  O  O361  1  0.75887895  0.61943394  0.24962588  1
  O  O362  1  0.74502283  0.61545338  0.75688983  1
  O  O363  1  0.38312131  0.12492009  0.37042963  1
  O  O364  1  0.36953902  0.13122195  0.86157598  1
  O  O365  1  0.36977241  0.61292895  0.36906438  1
  O  O366  1  0.36376543  0.62995400  0.86548154  1
  O  O367  1  0.87513579  0.12388783  0.36234214  1
  O  O368  1  0.86093257  0.11620696  0.87469642  1
  O  O369  1  0.87475498  0.61512472  0.36924770  1
  O  O370  1  0.86090647  0.61628995  0.88223146  1
  O  O371  1  0.12393231  0.37467090  0.13841797  1
  O  O372  1  0.12993999  0.37987387  0.63095426  1
  O  O373  1  0.13804836  0.87132296  0.12768259  1
  O  O374  1  0.12386100  0.88059299  0.63673594  1
  O  O375  1  0.62649072  0.37703166  0.13318996  1
  O  O376  1  0.63965939  0.36812126  0.62354873  1
  O  O377  1  0.63641488  0.87880106  0.12583886  1
  O  O378  1  0.62049417  0.87034734  0.63738176  1
  O  O379  1  0.11854918  0.25612306  0.25780085  1
  O  O380  1  0.11356199  0.25844240  0.74874048  1
  O  O381  1  0.12021560  0.74979504  0.25566662  1
  O  O382  1  0.10923371  0.75054978  0.75817152  1
  O  O383  1  0.61947116  0.25955342  0.25643294  1
  O  O384  1  0.67771399  0.27442178  0.77031875  1
  O  O385  1  0.61474029  0.74722357  0.24965971  1
  O  O386  1  0.61997110  0.75394037  0.75415722  1
  O  O387  1  0.39969854  0.29756560  0.23386051  1
  O  O388  1  0.37234136  0.25237537  0.74059641  1
  O  O389  1  0.38139845  0.73980301  0.24349124  1
  O  O390  1  0.38448137  0.74052412  0.74216457  1
  O  O391  1  0.87973943  0.24739254  0.24748592  1
  O  O392  1  0.88212571  0.25261558  0.74966142  1
  O  O393  1  0.88307866  0.74683376  0.24666135  1
  O  O394  1  0.88372262  0.75385064  0.74349511  1
  O  O395  1  0.38080405  0.49246032  0.49510819  1
  O  O396  1  0.38509474  0.48959748  1.00391188  1
  O  O397  1  0.38564546  0.99179614  0.49110894  1
  O  O398  1  0.38351945  0.98160736  1.00451776  1
  O  O399  1  0.88296082  0.49634616  0.49243701  1
  O  O400  1  0.86487193  0.48731293  0.98890313  1
  O  O401  1  0.87402701  0.97969643  0.50101197  1
  O  O402  1  0.87624582  0.99057886  0.99615504  1
  O  O403  1  0.11817863  0.00631448  -0.00054625  1
  O  O404  1  0.10731784  -0.01452714  0.46800743  1
  O  O405  1  0.12615087  0.50367399  0.00628357  1
  O  O406  1  0.11802129  0.50132018  0.50608851  1
  O  O407  1  0.62024913  0.00743880  0.00616019  1
  O  O408  1  0.61272341  0.00277918  0.49668006  1
  O  O409  1  0.61889721  0.50472756  0.00655963  1
  O  O410  1  0.61616205  0.50733846  0.49507199  1
  O  O411  1  0.36676574  0.36666951  0.10753386  1
  O  O412  1  0.36745604  0.36883010  0.62352832  1
  O  O413  1  0.37137706  0.86484151  0.11930834  1
  O  O414  1  0.38266653  0.85517462  0.60946382  1
  O  O415  1  0.86692747  0.37143990  0.11692416  1
  O  O416  1  0.86780677  0.37272826  0.61271368  1
  O  O417  1  0.86263827  0.87020751  0.11944959  1
  O  O418  1  0.87972297  0.86043111  0.61274290  1
  O  O419  1  0.13110233  0.13985187  0.36495802  1
  O  O420  1  0.14106645  0.13229288  0.87340822  1
  O  O421  1  0.13126432  0.62921034  0.37870173  1
  O  O422  1  0.13707245  0.62963863  0.87239706  1
  O  O423  1  0.62384247  0.14076103  0.36968067  1
  O  O424  1  0.63582188  0.11794137  0.88530662  1
  O  O425  1  0.62608101  0.62882496  0.38884206  1
  O  O426  1  0.63597972  0.62846400  0.88004378  1
