# generated using pymatgen
data_V85Zn86O256
_symmetry_space_group_name_H-M   'P 1'
_cell_length_a   16.92212693
_cell_length_b   16.93488029
_cell_length_c   16.92833713
_cell_angle_alpha   89.95434748
_cell_angle_beta   90.03911969
_cell_angle_gamma   90.05583561
_symmetry_Int_Tables_number   1
_chemical_formula_structural   V85Zn86O256
_chemical_formula_sum   'V85 Zn86 O256'
_cell_volume   4851.21959370
_cell_formula_units_Z   1
loop_
 _symmetry_equiv_pos_site_id
 _symmetry_equiv_pos_as_xyz
  1  'x, y, z'
loop_
 _atom_site_type_symbol
 _atom_site_label
 _atom_site_symmetry_multiplicity
 _atom_site_fract_x
 _atom_site_fract_y
 _atom_site_fract_z
 _atom_site_occupancy
  V  V0  1  0.36977780  0.38239327  -0.00377269  1
  V  V1  1  0.49810283  0.00203119  0.00245127  1
  V  V2  1  0.12444190  0.24268480  0.37961981  1
  V  V3  1  0.61898305  0.00684329  0.12648235  1
  V  V4  1  0.62718888  0.62422759  0.50670115  1
  V  V5  1  -0.00211595  0.49043432  0.50411831  1
  V  V6  1  0.74574875  0.50370855  0.74957752  1
  V  V7  1  0.86996348  0.50346447  0.87686814  1
  V  V8  1  0.74738737  0.12673858  0.87053983  1
  V  V9  1  0.87631364  0.24386818  0.12828721  1
  V  V10  1  0.24955963  0.74853771  0.49795682  1
  V  V11  1  0.74880137  0.62731915  0.37519092  1
  V  V12  1  0.13057048  0.74624652  0.87568024  1
  V  V13  1  0.50293778  0.36311050  0.37635988  1
  V  V14  1  0.00683653  0.37905695  0.87218561  1
  V  V15  1  0.62928047  -0.00063566  0.62697082  1
  V  V16  1  0.37721404  0.25144835  0.62507500  1
  V  V17  1  0.25128300  0.13666238  0.87854269  1
  V  V18  1  0.74947196  0.37377529  0.12598723  1
  V  V19  1  0.50120863  -0.00040394  0.50067919  1
  V  V20  1  0.50018944  0.87250744  0.87501214  1
  V  V21  1  0.00463915  0.74890150  0.74791171  1
  V  V22  1  0.12379621  0.50008373  0.63616512  1
  V  V23  1  0.61910574  0.12695633  -0.00012028  1
  V  V24  1  0.49887676  0.87236039  0.37515110  1
  V  V25  1  0.50543044  0.25156970  0.75078764  1
  V  V26  1  0.00853704  0.25638267  0.75119464  1
  V  V27  1  0.87111178  0.62958666  0.75225219  1
  V  V28  1  -0.00247462  0.24986981  0.25243040  1
  V  V29  1  -0.00790618  0.86851258  0.38210455  1
  V  V30  1  0.13261884  0.37925586  0.25346237  1
  V  V31  1  0.76073599  0.75836613  0.51514753  1
  V  V32  1  0.87462410  0.49355270  0.37963545  1
  V  V33  1  0.87477897  0.26126139  0.62123680  1
  V  V34  1  0.11838917  0.74634170  0.36635886  1
  V  V35  1  0.37439812  0.62098829  0.24975233  1
  V  V36  1  0.49852500  0.62133830  0.63209480  1
  V  V37  1  0.00930732  0.87908078  0.87277557  1
  V  V38  1  0.13449462  0.62577723  0.00049361  1
  V  V39  1  0.26437406  0.62545063  0.87294985  1
  V  V40  1  0.11281359  0.87467015  0.24355563  1
  V  V41  1  0.80374964  -0.05182564  0.69242918  1
  V  V42  1  0.36864138  0.24337645  0.11727107  1
  V  V43  1  0.64009844  0.74814096  0.88328226  1
  V  V44  1  0.00318597  0.50023366  0.00491883  1
  V  V45  1  0.74280295  0.38242948  0.62131447  1
  V  V46  1  0.00294574  0.63382257  0.12892020  1
  V  V47  1  0.84828296  0.72801816  0.10530226  1
  V  V48  1  0.62452690  0.87495988  0.74566394  1
  V  V49  1  0.37556398  0.12226732  0.74255956  1
  V  V50  1  0.62426185  0.37108777  0.25339707  1
  V  V51  1  0.87985795  0.62898584  0.25164479  1
  V  V52  1  0.50537672  0.49915297  0.50105102  1
  V  V53  1  0.12674726  0.13565218  0.00376166  1
  V  V54  1  0.49974014  0.74854647  0.25110304  1
  V  V55  1  0.74842386  0.12891983  0.37255468  1
  V  V56  1  0.24558040  0.37691222  0.62857827  1
  V  V57  1  0.37419820  0.00291885  0.87075715  1
  V  V58  1  0.37190462  0.49596022  0.37017127  1
  V  V59  1  0.26840967  0.50369275  0.75341669  1
  V  V60  1  0.23579541  0.87889776  0.63181108  1
  V  V61  1  0.86955547  0.00057529  0.87675803  1
  V  V62  1  0.24183324  0.87683651  0.12087282  1
  V  V63  1  0.87246004  -0.00340348  0.38257109  1
  V  V64  1  0.62387201  0.87704335  0.24876882  1
  V  V65  1  0.36117902  0.87445421  -0.00348056  1
  V  V66  1  0.87229468  0.86912803  -0.00172509  1
  V  V67  1  0.87415014  0.13374387  0.74955120  1
  V  V68  1  0.37485102  0.74620875  0.63200482  1
  V  V69  1  0.24570559  0.23749989  0.50406385  1
  V  V70  1  0.75962496  0.00503914  0.24687560  1
  V  V71  1  0.37004227  0.75037861  0.11909675  1
  V  V72  1  0.37264152  0.37397767  0.49914963  1
  V  V73  1  0.24903670  0.61934916  0.36997594  1
  V  V74  1  0.50171043  0.62276365  0.12102277  1
  V  V75  1  0.74824829  0.25571910  0.49544825  1
  V  V76  1  0.74739978  0.87509269  0.12009475  1
  V  V77  1  0.37466751  0.87669130  0.50063621  1
  V  V78  1  0.00491944  0.00265557  0.00458230  1
  V  V79  1  -0.00421829  0.62811198  0.62367116  1
  V  V80  1  0.50476390  0.50308703  -0.00864441  1
  V  V81  1  0.75003154  0.25027297  0.00030422  1
  V  V82  1  0.49953392  0.24144608  0.24355343  1
  V  V83  1  0.24643223  0.00130057  0.24613152  1
  V  V84  1  0.00207974  0.11933539  0.13443564  1
  Zn  Zn85  1  0.13336601  0.50386642  0.13384856  1
  Zn  Zn86  1  0.62313567  0.38415036  0.75098269  1
  Zn  Zn87  1  0.37512741  0.00088455  0.37032154  1
  Zn  Zn88  1  0.13301191  0.26184779  0.87950258  1
  Zn  Zn89  1  0.62693401  0.12798287  0.49957364  1
  Zn  Zn90  1  0.25277011  0.38062300  0.12772835  1
  Zn  Zn91  1  0.01396633  0.00243145  0.50315777  1
  Zn  Zn92  1  0.37695184  0.12125495  0.24711451  1
  Zn  Zn93  1  0.50135768  0.37966515  0.87386487  1
  Zn  Zn94  1  0.65879148  0.63494090  0.00732163  1
  Zn  Zn95  1  0.50321170  0.12566219  0.62256748  1
  Zn  Zn96  1  0.22205581  0.00602644  0.74088146  1
  Zn  Zn97  1  0.74976290  0.49805764  0.25198571  1
  Zn  Zn98  1  0.01568605  0.12634398  0.62025449  1
  Zn  Zn99  1  0.62560199  0.25665654  0.87488247  1
  Zn  Zn100  1  0.62372582  0.49832914  0.12432904  1
  Zn  Zn101  1  -0.00329951  0.37146545  0.37989874  1
  Zn  Zn102  1  0.12383144  0.62117781  0.49860885  1
  Zn  Zn103  1  0.49942977  0.74479853  0.75269589  1
  Zn  Zn104  1  0.87695972  0.37388166  0.00121409  1
  Zn  Zn105  1  0.24711991  0.11435572  0.38110567  1
  Zn  Zn106  1  0.62704940  0.75036153  0.37792871  1
  Zn  Zn107  1  0.18537235  0.19032824  0.18629509  1
  Zn  Zn108  1  0.19148205  0.19433190  0.69672975  1
  Zn  Zn109  1  0.19041753  0.68873448  0.18753402  1
  Zn  Zn110  1  0.18646839  0.68487607  0.68817980  1
  Zn  Zn111  1  0.68510224  0.18797563  0.18973068  1
  Zn  Zn112  1  0.68913132  0.18796348  0.68221057  1
  Zn  Zn113  1  0.68660628  0.68431570  0.18966933  1
  Zn  Zn114  1  0.68576420  0.68886303  0.68903236  1
  Zn  Zn115  1  0.31352089  0.30347731  0.31402653  1
  Zn  Zn116  1  0.31844911  0.31783045  0.81092082  1
  Zn  Zn117  1  0.30984949  0.81340087  0.30870340  1
  Zn  Zn118  1  0.31093562  0.81159851  0.81020263  1
  Zn  Zn119  1  0.81428136  0.31091255  0.31122916  1
  Zn  Zn120  1  0.81407385  0.31872247  0.81342112  1
  Zn  Zn121  1  0.81163763  0.80891933  0.30597969  1
  Zn  Zn122  1  0.81862919  0.80982407  0.81193424  1
  Zn  Zn123  1  0.18355169  0.43402168  0.44054505  1
  Zn  Zn124  1  0.19103075  0.44417568  0.93720379  1
  Zn  Zn125  1  0.18745510  0.92909323  0.42895122  1
  Zn  Zn126  1  0.17041289  0.95783788  0.90456840  1
  Zn  Zn127  1  0.68682746  0.43751815  0.43752836  1
  Zn  Zn128  1  0.68462698  0.43936648  0.93848113  1
  Zn  Zn129  1  0.68877161  0.93584677  0.43722614  1
  Zn  Zn130  1  0.68690670  0.93837664  0.93612645  1
  Zn  Zn131  1  0.30816605  0.06132273  0.06150102  1
  Zn  Zn132  1  0.17410741  0.05819813  0.56158039  1
  Zn  Zn133  1  0.31161311  0.55684422  0.06358311  1
  Zn  Zn134  1  0.31424450  0.56204350  0.55992716  1
  Zn  Zn135  1  0.81267888  0.06339687  0.06077500  1
  Zn  Zn136  1  0.84456742  0.08189731  0.54514094  1
  Zn  Zn137  1  0.81496660  0.55468737  0.06423281  1
  Zn  Zn138  1  0.81401891  0.56556254  0.56324344  1
  Zn  Zn139  1  0.43684125  0.43415117  0.18467501  1
  Zn  Zn140  1  0.43969205  0.43626914  0.68480867  1
  Zn  Zn141  1  0.43490053  0.93717553  0.18474821  1
  Zn  Zn142  1  0.43613587  0.93510523  0.68449125  1
  Zn  Zn143  1  0.93999258  0.43783999  0.19052660  1
  Zn  Zn144  1  0.93388733  0.43913059  0.69030220  1
  Zn  Zn145  1  0.93410619  0.93054822  0.18412338  1
  Zn  Zn146  1  0.98022930  0.93322193  0.68112901  1
  Zn  Zn147  1  0.06464906  0.05555745  0.31834624  1
  Zn  Zn148  1  0.05990175  0.07118541  0.81278694  1
  Zn  Zn149  1  0.05786020  0.56122360  0.31417529  1
  Zn  Zn150  1  0.06369630  0.56287387  0.81373999  1
  Zn  Zn151  1  0.56566425  0.06227404  0.31645544  1
  Zn  Zn152  1  0.56201060  0.06236595  0.81002137  1
  Zn  Zn153  1  0.56326780  0.55751209  0.31441049  1
  Zn  Zn154  1  0.56872433  0.57105812  0.81881408  1
  Zn  Zn155  1  0.43038854  0.18066987  0.43647534  1
  Zn  Zn156  1  0.43813700  0.19187336  0.93622922  1
  Zn  Zn157  1  0.43664218  0.68590116  0.44041610  1
  Zn  Zn158  1  0.44121256  0.69129593  0.93978345  1
  Zn  Zn159  1  0.93270070  0.18565808  0.43613344  1
  Zn  Zn160  1  0.93945826  0.19054233  0.93931861  1
  Zn  Zn161  1  0.93578201  0.68431346  0.44060019  1
  Zn  Zn162  1  0.94169151  0.68472465  0.93524047  1
  Zn  Zn163  1  0.06349940  0.31473772  0.06696588  1
  Zn  Zn164  1  0.06501177  0.31023827  0.56636352  1
  Zn  Zn165  1  0.05902891  0.80776379  0.05714413  1
  Zn  Zn166  1  0.06045260  0.80623365  0.55524943  1
  Zn  Zn167  1  0.55889917  0.31294030  0.06414045  1
  Zn  Zn168  1  0.56732343  0.31269984  0.56377712  1
  Zn  Zn169  1  0.55881249  0.81524525  0.06124743  1
  Zn  Zn170  1  0.56666124  0.80803372  0.56292728  1
  O  O171  1  0.11460531  0.12877191  0.11697944  1
  O  O172  1  0.12922856  0.13705942  0.62568227  1
  O  O173  1  0.12087178  0.62717592  0.11965798  1
  O  O174  1  0.11515584  0.61748046  0.62321088  1
  O  O175  1  0.63113930  0.11443205  0.11555204  1
  O  O176  1  0.62446823  0.11353246  0.62147455  1
  O  O177  1  0.61099867  0.62682171  0.12428715  1
  O  O178  1  0.61632211  0.62840839  0.61393235  1
  O  O179  1  0.37996774  0.37923383  0.37888328  1
  O  O180  1  0.38220473  0.36868363  0.89256777  1
  O  O181  1  0.38190899  0.87220422  0.38128287  1
  O  O182  1  0.37914428  0.88126027  0.87819646  1
  O  O183  1  0.87588507  0.38978871  0.37016120  1
  O  O184  1  0.88625842  0.38617042  0.87898836  1
  O  O185  1  0.88252475  0.88259754  0.35894272  1
  O  O186  1  0.88204103  0.88354472  0.87965880  1
  O  O187  1  0.25468953  -0.00608383  0.35951107  1
  O  O188  1  0.26770080  0.01238360  0.87660682  1
  O  O189  1  0.25738059  0.50849776  0.38294206  1
  O  O190  1  0.25106329  0.50747993  0.86020150  1
  O  O191  1  0.75640704  0.00086722  0.36495251  1
  O  O192  1  0.76151431  0.00990328  0.88123040  1
  O  O193  1  0.75740960  0.51026265  0.37714714  1
  O  O194  1  0.76364825  0.49648676  0.87073894  1
  O  O195  1  0.24686854  0.49576303  0.12949455  1
  O  O196  1  0.24555398  0.49788051  0.63276990  1
  O  O197  1  0.25138813  0.98367973  0.12766019  1
  O  O198  1  0.24254985  0.98438117  0.62617220  1
  O  O199  1  0.75128449  0.48299237  0.12940137  1
  O  O200  1  0.75929776  0.49318038  0.63493777  1
  O  O201  1  0.74407354  0.99502867  0.12941020  1
  O  O202  1  0.74788152  1.00120778  0.62426871  1
  O  O203  1  0.00787570  0.36478387  0.25408893  1
  O  O204  1  -0.00439994  0.37032167  0.76029022  1
  O  O205  1  0.00862891  0.87461900  0.25197641  1
  O  O206  1  -0.00189905  0.86362458  0.76433252  1
  O  O207  1  0.50485425  0.36689470  0.25760291  1
  O  O208  1  0.50194145  0.36792206  0.75042175  1
  O  O209  1  0.50267383  0.86740042  0.25333999  1
  O  O210  1  0.50745510  0.87354869  0.75781264  1
  O  O211  1  0.50254999  0.13823281  0.25728371  1
  O  O212  1  0.49294721  0.13225814  0.74794172  1
  O  O213  1  0.49517561  0.63068793  0.24520898  1
  O  O214  1  0.50694195  0.62390504  0.73599660  1
  O  O215  1  1.00696592  0.12958803  0.23984099  1
  O  O216  1  0.98993365  0.13772805  0.75158040  1
  O  O217  1  0.99405523  0.62500068  0.24201260  1
  O  O218  1  0.99432443  0.62948228  0.74451337  1
  O  O219  1  0.38301854  0.26041618  0.01224351  1
  O  O220  1  0.36749689  0.25468957  0.50653583  1
  O  O221  1  0.37958311  0.76210306  0.00832538  1
  O  O222  1  0.36848221  0.75777694  0.50520834  1
  O  O223  1  0.86873403  0.25209310  0.00923877  1
  O  O224  1  0.86394676  0.25137530  0.51103194  1
  O  O225  1  0.87897472  0.76379000  -0.00636380  1
  O  O226  1  0.86011476  0.74443661  0.49970964  1
  O  O227  1  0.13307232  0.25581277  0.49203408  1
  O  O228  1  0.11885849  0.24054755  0.99823635  1
  O  O229  1  0.13349774  0.74568558  0.48589062  1
  O  O230  1  0.12014375  0.73282687  0.99222246  1
  O  O231  1  0.64171522  0.24706764  0.50521383  1
  O  O232  1  0.63000409  0.24148378  1.00146300  1
  O  O233  1  0.63230805  0.73887107  0.49673097  1
  O  O234  1  0.62263039  0.75518684  0.98742337  1
  O  O235  1  0.48738754  0.25361503  0.13471690  1
  O  O236  1  0.49377012  0.24932922  0.62945549  1
  O  O237  1  0.49073839  0.74619673  0.13100955  1
  O  O238  1  0.49223674  0.74064410  0.62457878  1
  O  O239  1  0.99370516  0.24370406  0.13288189  1
  O  O240  1  0.99156048  0.25202253  0.63364573  1
  O  O241  1  0.98383865  0.73404891  0.11168359  1
  O  O242  1  1.00555180  0.74154217  0.63375782  1
  O  O243  1  0.00322747  0.24855069  0.37043583  1
  O  O244  1  -0.00179703  0.26229106  0.86937186  1
  O  O245  1  0.00644780  0.75340561  0.37740152  1
  O  O246  1  0.00985651  0.75481374  0.86959955  1
  O  O247  1  0.49174315  0.25991846  0.37015409  1
  O  O248  1  0.50413538  0.25182661  0.86399717  1
  O  O249  1  0.49990389  0.75293514  0.36684473  1
  O  O250  1  0.50589929  0.76223887  0.87331191  1
  O  O251  1  0.25391388  0.13634356  0.50329932  1
  O  O252  1  0.23898852  0.12197747  0.99263089  1
  O  O253  1  0.25060661  0.63503762  0.49052780  1
  O  O254  1  0.24431059  0.61796379  0.98874153  1
  O  O255  1  0.75422906  0.13516526  0.49106371  1
  O  O256  1  0.74181368  0.12953158  0.99117970  1
  O  O257  1  0.74285078  0.62989206  0.49519049  1
  O  O258  1  0.76699437  0.65358317  1.04743930  1
  O  O259  1  0.26592005  0.38057913  -0.00091755  1
  O  O260  1  0.25546443  0.36974800  0.50901543  1
  O  O261  1  0.25856192  0.88165673  0.00241781  1
  O  O262  1  0.25606494  0.86410629  0.50399023  1
  O  O263  1  0.75120324  0.36838772  0.00929816  1
  O  O264  1  0.74798465  0.37075091  0.50756046  1
  O  O265  1  0.75934661  0.88428370  0.00790167  1
  O  O266  1  0.74402847  0.85569696  0.49496871  1
  O  O267  1  0.11803877  0.48238265  0.25540807  1
  O  O268  1  0.12987184  0.50253063  0.73887697  1
  O  O269  1  0.13120021  0.98483793  0.25255988  1
  O  O270  1  0.12616903  0.98396786  0.79615063  1
  O  O271  1  0.62509529  0.48600410  0.24662715  1
  O  O272  1  0.64227655  0.50792676  0.75642149  1
  O  O273  1  0.62961616  0.99721047  0.24111345  1
  O  O274  1  0.62195606  0.99310334  0.73693843  1
  O  O275  1  0.36465514  0.00026126  0.24681955  1
  O  O276  1  0.37923042  0.00779773  0.75639527  1
  O  O277  1  0.38286640  0.50320807  0.26339432  1
  O  O278  1  0.36686197  0.50438409  0.74496628  1
  O  O279  1  0.86236146  -0.00393427  0.24974828  1
  O  O280  1  0.86700527  0.01046164  0.75561919  1
  O  O281  1  0.87548088  0.50959231  0.25963927  1
  O  O282  1  0.86919581  0.50890831  0.75906635  1
  O  O283  1  0.12080691  0.36426013  0.36823858  1
  O  O284  1  0.11228215  0.37916764  0.88241575  1
  O  O285  1  0.11335468  0.86364522  0.36362066  1
  O  O286  1  0.11303180  0.85836613  0.89626885  1
  O  O287  1  0.61436126  0.37783544  0.36764412  1
  O  O288  1  0.62139633  0.37410714  0.86978063  1
  O  O289  1  0.61675945  0.87284725  0.36645717  1
  O  O290  1  0.61823128  0.87374596  0.86675086  1
  O  O291  1  0.37128247  0.13869829  0.12306928  1
  O  O292  1  0.37661034  0.13147748  0.63860772  1
  O  O293  1  0.38236620  0.63253043  0.12889266  1
  O  O294  1  0.38523194  0.63488062  0.61437198  1
  O  O295  1  0.88196036  0.13686409  0.12069138  1
  O  O296  1  0.86331797  0.14160032  0.64348835  1
  O  O297  1  0.88733465  0.61732571  0.13499036  1
  O  O298  1  0.88909448  0.61946764  0.63575648  1
  O  O299  1  0.26531609  0.25691165  0.13044703  1
  O  O300  1  0.25693100  0.26102027  0.62339061  1
  O  O301  1  0.26268887  0.75921774  0.12818061  1
  O  O302  1  0.25552741  0.75174973  0.61679186  1
  O  O303  1  0.75728648  0.25556083  0.12337264  1
  O  O304  1  0.75618624  0.26146457  0.61980311  1
  O  O305  1  0.74017280  0.77173393  0.13495721  1
  O  O306  1  0.74888806  0.74874591  0.61516635  1
  O  O307  1  0.24220944  0.24787634  0.38760632  1
  O  O308  1  0.25320095  0.24090563  0.86895728  1
  O  O309  1  0.24457020  0.74382368  0.38037589  1
  O  O310  1  0.23815588  0.74281821  0.86695103  1
  O  O311  1  0.75866180  0.24114375  0.38177155  1
  O  O312  1  0.75028627  0.24469538  0.88270098  1
  O  O313  1  0.74925805  0.73659710  0.37477911  1
  O  O314  1  0.73827147  0.76115170  0.87723277  1
  O  O315  1  0.00397479  0.12057934  0.00911496  1
  O  O316  1  -0.03967136  0.11080997  0.51507720  1
  O  O317  1  0.00717178  0.61447412  0.00585363  1
  O  O318  1  0.00193881  0.61634945  0.50945016  1
  O  O319  1  0.51257942  0.12026299  -0.00723161  1
  O  O320  1  0.50186533  0.11263381  0.50019500  1
  O  O321  1  0.49586799  0.61861219  0.00934686  1
  O  O322  1  0.50780293  0.61754179  0.50399708  1
  O  O323  1  0.49691626  0.37965228  0.49441803  1
  O  O324  1  0.49604663  0.38736622  1.00063093  1
  O  O325  1  0.49510463  0.87567922  0.49521328  1
  O  O326  1  0.49079298  0.88245569  0.99131030  1
  O  O327  1  1.00188452  0.38635364  0.50232277  1
  O  O328  1  1.00014399  0.38717130  0.99872472  1
  O  O329  1  1.00086171  0.87652495  0.48530869  1
  O  O330  1  0.99216304  0.88418314  0.99544941  1
  O  O331  1  0.49235937  0.49144580  0.38430497  1
  O  O332  1  0.50383844  0.50547935  0.88751189  1
  O  O333  1  0.50064779  0.99143355  0.38514245  1
  O  O334  1  0.49239432  0.99201342  0.87887384  1
  O  O335  1  0.99275462  0.49917140  0.38710426  1
  O  O336  1  0.99420899  0.49722733  0.88294389  1
  O  O337  1  0.98424664  0.99211929  0.37366687  1
  O  O338  1  0.98642380  0.99550231  0.88199365  1
  O  O339  1  -0.00918559  0.00794709  0.11681365  1
  O  O340  1  0.01859626  0.00911712  0.61897863  1
  O  O341  1  0.00625869  0.50755125  0.11899593  1
  O  O342  1  0.00581886  0.50427420  0.62289238  1
  O  O343  1  0.50874828  -0.00320026  0.11773965  1
  O  O344  1  0.50786852  -0.00217656  0.61442700  1
  O  O345  1  0.50055903  0.50892940  0.11854433  1
  O  O346  1  0.49289808  0.50647685  0.61005973  1
  O  O347  1  0.23491077  0.36829420  0.25666479  1
  O  O348  1  0.25681434  0.39031914  0.74284268  1
  O  O349  1  0.24119649  0.87980463  0.23893381  1
  O  O350  1  0.25229226  0.87537144  0.73380878  1
  O  O351  1  0.74158677  0.37276692  0.24495038  1
  O  O352  1  0.74992413  0.38651200  0.74335701  1
  O  O353  1  0.74155046  0.88541168  0.24342197  1
  O  O354  1  0.74642504  0.88292024  0.75179140  1
  O  O355  1  0.24436563  0.10784035  0.24228422  1
  O  O356  1  0.25851245  0.12061405  0.75919631  1
  O  O357  1  0.25848740  0.63010986  0.26243628  1
  O  O358  1  0.24809847  0.61233805  0.75569733  1
  O  O359  1  0.74527405  0.11653534  0.25653536  1
  O  O360  1  0.75488639  0.13448308  0.76438593  1
  O  O361  1  0.75386769  0.61853022  0.25839181  1
  O  O362  1  0.76327921  0.62155028  0.74403517  1
  O  O363  1  0.36560128  0.11968423  0.36663408  1
  O  O364  1  0.37224813  0.12098670  0.86828488  1
  O  O365  1  0.36894122  0.61672061  0.37157712  1
  O  O366  1  0.36337985  0.63822922  0.87540327  1
  O  O367  1  0.86389724  0.10568872  0.37251850  1
  O  O368  1  0.87057987  0.12069544  0.86841210  1
  O  O369  1  0.86914827  0.61824818  0.36858113  1
  O  O370  1  0.88101135  0.61552656  0.86619458  1
  O  O371  1  0.12780712  0.37335298  0.14180571  1
  O  O372  1  0.13862606  0.38253521  0.62352039  1
  O  O373  1  0.13082988  0.86257988  0.12929688  1
  O  O374  1  0.13787720  0.86309125  0.62041252  1
  O  O375  1  0.63352966  0.37417585  0.13181605  1
  O  O376  1  0.63806809  0.37718309  0.63027914  1
  O  O377  1  0.62793996  0.88744388  0.12663091  1
  O  O378  1  0.62212939  0.87800990  0.63876003  1
  O  O379  1  0.11564744  0.25744493  0.25654537  1
  O  O380  1  0.11205522  0.25369516  0.75769530  1
  O  O381  1  0.13035755  0.75675285  0.26012995  1
  O  O382  1  0.11389563  0.74193926  0.76015324  1
  O  O383  1  0.61513950  0.26137526  0.24463919  1
  O  O384  1  0.61306524  0.24850943  0.74716374  1
  O  O385  1  0.61165491  0.75452701  0.25075950  1
  O  O386  1  0.62384634  0.75786847  0.76225542  1
  O  O387  1  0.38218656  0.24806059  0.23868448  1
  O  O388  1  0.38505064  0.24513533  0.74481896  1
  O  O389  1  0.38401508  0.74574679  0.24267397  1
  O  O390  1  0.37833712  0.75330464  0.73583183  1
  O  O391  1  0.88873629  0.25037752  0.24477977  1
  O  O392  1  0.88285916  0.24847188  0.74756178  1
  O  O393  1  0.86213225  0.73189916  0.23314598  1
  O  O394  1  0.88941908  0.73960886  0.75765110  1
  O  O395  1  0.38108035  0.49400472  0.48896127  1
  O  O396  1  0.38596298  0.48817470  1.00336728  1
  O  O397  1  0.38544617  0.98247931  0.49808417  1
  O  O398  1  0.38067159  0.99518180  0.99306880  1
  O  O399  1  0.88457032  0.50721315  0.49158854  1
  O  O400  1  0.88422702  0.49806951  0.99352938  1
  O  O401  1  0.86200673  0.98427560  0.48101679  1
  O  O402  1  0.88206381  0.99459700  0.99358295  1
  O  O403  1  0.10900300  0.01183201  -0.00828296  1
  O  O404  1  0.12530980  0.00886019  0.47422677  1
  O  O405  1  0.11899700  0.51050232  0.00192488  1
  O  O406  1  0.11760808  0.50132232  0.51172777  1
  O  O407  1  0.61921962  0.00661832  0.00571839  1
  O  O408  1  0.61958933  -0.00528463  0.51176520  1
  O  O409  1  0.62216972  0.51300201  0.00457916  1
  O  O410  1  0.61504917  0.50846464  0.49564052  1
  O  O411  1  0.37493134  0.36687489  0.11418864  1
  O  O412  1  0.36614271  0.37224832  0.61831482  1
  O  O413  1  0.36779318  0.86824185  0.11564794  1
  O  O414  1  0.36680018  0.86665082  0.61650891  1
  O  O415  1  0.86946556  0.36338363  0.12715974  1
  O  O416  1  0.86541894  0.36630577  0.63136672  1
  O  O417  1  0.86456476  0.86425271  0.11520121  1
  O  O418  1  0.87051781  0.89249310  0.64635309  1
  O  O419  1  0.12861151  0.13887495  0.36665301  1
  O  O420  1  0.13430534  0.13437217  0.88387513  1
  O  O421  1  0.13213816  0.62858703  0.37401649  1
  O  O422  1  0.13275875  0.62891834  0.88216523  1
  O  O423  1  0.64327069  0.11565796  0.38196989  1
  O  O424  1  0.63311063  0.12490084  0.88092195  1
  O  O425  1  0.63261600  0.62404138  0.38330106  1
  O  O426  1  0.63106664  0.64357462  0.88438439  1
