# generated using pymatgen
data_V85Zn86O256
_symmetry_space_group_name_H-M   'P 1'
_cell_length_a   16.92162988
_cell_length_b   16.92783420
_cell_length_c   16.91928201
_cell_angle_alpha   90.06432553
_cell_angle_beta   89.97608450
_cell_angle_gamma   89.93738037
_symmetry_Int_Tables_number   1
_chemical_formula_structural   V85Zn86O256
_chemical_formula_sum   'V85 Zn86 O256'
_cell_volume   4846.46350138
_cell_formula_units_Z   1
loop_
 _symmetry_equiv_pos_site_id
 _symmetry_equiv_pos_as_xyz
  1  'x, y, z'
loop_
 _atom_site_type_symbol
 _atom_site_label
 _atom_site_symmetry_multiplicity
 _atom_site_fract_x
 _atom_site_fract_y
 _atom_site_fract_z
 _atom_site_occupancy
  V  V0  1  0.75581898  0.75090443  0.50039336  1
  V  V1  1  -0.00133861  0.75542483  0.73714065  1
  V  V2  1  0.25245667  0.75207440  0.01163635  1
  V  V3  1  0.61810304  0.50324508  0.62663926  1
  V  V4  1  0.50158513  0.86369750  0.37400341  1
  V  V5  1  0.50258237  0.37314420  0.37727399  1
  V  V6  1  0.49408828  0.50783890  0.50225254  1
  V  V7  1  0.50151158  0.12565047  0.12464886  1
  V  V8  1  0.76014484  0.87257693  0.62627200  1
  V  V9  1  0.12491638  0.00260683  0.63110147  1
  V  V10  1  0.74484466  0.49950403  0.74791361  1
  V  V11  1  0.13318685  0.38040757  0.25096147  1
  V  V12  1  0.62802729  0.00021543  0.62236409  1
  V  V13  1  0.62688135  0.87594357  0.74997358  1
  V  V14  1  0.87785243  0.25793147  0.63430197  1
  V  V15  1  0.48781702  0.87627044  0.87377526  1
  V  V16  1  -0.00421623  0.50037765  0.00102146  1
  V  V17  1  0.26581505  0.00346386  0.75477725  1
  V  V18  1  0.75062017  0.01056251  0.75451632  1
  V  V19  1  0.25148412  0.24372777  0.49493302  1
  V  V20  1  0.75081222  0.62939345  0.87086691  1
  V  V21  1  0.49762334  0.00021645  -0.00542784  1
  V  V22  1  0.74985190  0.24083014  -0.00326851  1
  V  V23  1  0.62980658  0.14002726  0.49473281  1
  V  V24  1  0.00673166  -0.00292405  -0.00329948  1
  V  V25  1  0.37738576  0.74367534  0.62241260  1
  V  V26  1  0.74799468  0.00317444  0.25504764  1
  V  V27  1  0.74825703  0.50497509  0.24828953  1
  V  V28  1  0.37651980  0.50321592  0.87533837  1
  V  V29  1  0.12948870  0.87039914  0.24644650  1
  V  V30  1  0.37408350  0.87348879  0.49819467  1
  V  V31  1  0.13037425  0.13235078  0.00152432  1
  V  V32  1  0.11803647  0.50695265  0.62347720  1
  V  V33  1  0.62171764  0.75280206  0.87425782  1
  V  V34  1  0.37866711  0.62394829  0.74809334  1
  V  V35  1  0.37083993  0.36685691  -0.00450123  1
  V  V36  1  0.37157563  0.87402400  0.01875440  1
  V  V37  1  0.75243195  0.87801915  0.12652674  1
  V  V38  1  0.86990830  0.50428287  0.37943301  1
  V  V39  1  0.11509318  0.75764240  0.87644532  1
  V  V40  1  0.37215264  0.50220423  0.36246837  1
  V  V41  1  0.12091304  0.62551286  -0.00156944  1
  V  V42  1  0.50629718  0.50277631  0.01177167  1
  V  V43  1  0.24985250  0.87512987  0.62665635  1
  V  V44  1  0.74732688  0.37302325  0.62832345  1
  V  V45  1  0.00205510  0.74572311  0.25831572  1
  V  V46  1  0.00212014  0.37276003  0.38345263  1
  V  V47  1  0.87589631  0.75142545  0.13262451  1
  V  V48  1  0.87456211  0.50306595  0.87419860  1
  V  V49  1  0.87750502  0.12316571  0.25131821  1
  V  V50  1  0.61828319  0.63516941  0.49941621  1
  V  V51  1  0.25037146  0.62797747  0.87581322  1
  V  V52  1  0.49798287  0.74029427  0.23469977  1
  V  V53  1  0.74586175  0.63184188  0.37174920  1
  V  V54  1  0.50898191  0.37858510  0.86933930  1
  V  V55  1  -0.00016204  0.13230244  0.63386110  1
  V  V56  1  0.49919760  0.74855495  0.74698857  1
  V  V57  1  0.61909791  0.37983422  0.24507738  1
  V  V58  1  0.00404359  0.87415694  0.37547217  1
  V  V59  1  0.62636965  0.86989616  0.25467899  1
  V  V60  1  0.87439702  0.00884958  0.87732695  1
  V  V61  1  0.81450912  0.31570996  0.45443416  1
  V  V62  1  -0.00071621  0.00095362  0.50225083  1
  V  V63  1  0.36742495  0.12788814  0.25440335  1
  V  V64  1  0.75028778  0.75220714  -0.00061766  1
  V  V65  1  0.50483373  0.24759749  0.25392222  1
  V  V66  1  0.00421451  0.24972684  0.24860668  1
  V  V67  1  0.50620562  0.25409768  0.74647743  1
  V  V68  1  0.36932554  0.00233541  0.37626632  1
  V  V69  1  0.88222702  0.87473008  -0.00705532  1
  V  V70  1  0.24138740  0.62209035  0.36690039  1
  V  V71  1  0.74226670  0.37684600  0.12040630  1
  V  V72  1  0.24926776  0.37612679  0.62840629  1
  V  V73  1  0.12605416  0.24724104  0.86716011  1
  V  V74  1  -0.00947212  0.62265551  0.13019547  1
  V  V75  1  0.00108472  0.36954172  0.86957264  1
  V  V76  1  0.24243833  0.74713701  0.49395967  1
  V  V77  1  0.50240276  -0.00005910  0.49680323  1
  V  V78  1  0.87471463  0.37564340  0.00251639  1
  V  V79  1  0.62971657  0.24355596  0.87005034  1
  V  V80  1  0.26466185  0.12731752  0.87602909  1
  V  V81  1  0.37433712  0.24801414  0.63081386  1
  V  V82  1  0.25153751  -0.00532461  0.24332280  1
  V  V83  1  0.88270729  0.62803142  0.73552881  1
  V  V84  1  0.49883936  0.12393135  0.62898919  1
  Zn  Zn85  1  0.12164641  0.87975063  0.75704376  1
  Zn  Zn86  1  0.24639998  0.36939437  0.11949756  1
  Zn  Zn87  1  0.24685675  0.49908705  0.75142118  1
  Zn  Zn88  1  0.74937060  0.13508509  0.37864584  1
  Zn  Zn89  1  0.12117590  0.37422420  0.74914038  1
  Zn  Zn90  1  0.36815044  0.62580064  0.23574373  1
  Zn  Zn91  1  0.12513824  0.50207226  0.13230013  1
  Zn  Zn92  1  0.37099363  0.24756630  0.12000635  1
  Zn  Zn93  1  0.87589290  0.13340985  0.75689549  1
  Zn  Zn94  1  0.62510057  0.00126242  0.12467233  1
  Zn  Zn95  1  0.61522422  0.62718811  0.00802125  1
  Zn  Zn96  1  0.62870674  0.12011281  -0.00345172  1
  Zn  Zn97  1  0.13000586  0.12242186  0.49784649  1
  Zn  Zn98  1  0.11471243  0.62987491  0.49907332  1
  Zn  Zn99  1  0.37496373  0.37670278  0.50026228  1
  Zn  Zn100  1  0.87918861  0.87131326  0.50234794  1
  Zn  Zn101  1  0.13073333  -0.00303430  0.12171453  1
  Zn  Zn102  1  0.87497259  0.00013253  0.37821753  1
  Zn  Zn103  1  0.00522820  0.12175823  0.12670785  1
  Zn  Zn104  1  0.13305552  0.24310179  0.37216019  1
  Zn  Zn105  1  -0.01096406  0.50285463  0.50717241  1
  Zn  Zn106  1  0.87727915  0.24630566  0.12182993  1
  Zn  Zn107  1  0.19132779  0.19073690  0.18418344  1
  Zn  Zn108  1  0.18989286  0.18510954  0.69006462  1
  Zn  Zn109  1  0.17958185  0.68398663  0.18777700  1
  Zn  Zn110  1  0.18783019  0.68830023  0.68894868  1
  Zn  Zn111  1  0.68614010  0.19029444  0.18681703  1
  Zn  Zn112  1  0.68701128  0.18959427  0.68244919  1
  Zn  Zn113  1  0.68166798  0.68953985  0.18693197  1
  Zn  Zn114  1  0.68786236  0.68658730  0.68357960  1
  Zn  Zn115  1  0.31760346  0.31426948  0.31165995  1
  Zn  Zn116  1  0.31586616  0.30971016  0.81218244  1
  Zn  Zn117  1  0.31477228  0.80805680  0.30986427  1
  Zn  Zn118  1  0.30786733  0.81055664  0.81392501  1
  Zn  Zn119  1  0.81461853  0.31571634  0.29276695  1
  Zn  Zn120  1  0.81053283  0.31605409  0.81353468  1
  Zn  Zn121  1  0.81553280  0.81372808  0.31755173  1
  Zn  Zn122  1  0.81732774  0.81595498  0.80993019  1
  Zn  Zn123  1  0.18860592  0.43599597  0.44083036  1
  Zn  Zn124  1  0.18702232  0.43974480  0.94247186  1
  Zn  Zn125  1  0.18559173  0.93746249  0.43553120  1
  Zn  Zn126  1  0.19364193  0.93881196  0.93660408  1
  Zn  Zn127  1  0.67688362  0.44491021  0.43482936  1
  Zn  Zn128  1  0.68588905  0.43575628  0.93401960  1
  Zn  Zn129  1  0.68755840  0.93718300  0.43682876  1
  Zn  Zn130  1  0.68793154  0.93848158  0.93663917  1
  Zn  Zn131  1  0.31651508  0.06203397  0.06112270  1
  Zn  Zn132  1  0.31526273  0.06292282  0.56623441  1
  Zn  Zn133  1  0.30611441  0.55223775  0.06384378  1
  Zn  Zn134  1  0.30685819  0.56279828  0.56024722  1
  Zn  Zn135  1  0.81682969  0.06086308  0.06714290  1
  Zn  Zn136  1  0.81400920  0.06681773  0.56525156  1
  Zn  Zn137  1  0.78482791  0.57917461  0.07652726  1
  Zn  Zn138  1  0.80781630  0.56180671  0.55873427  1
  Zn  Zn139  1  0.43500325  0.43709271  0.18210251  1
  Zn  Zn140  1  0.43674557  0.43672601  0.68757410  1
  Zn  Zn141  1  0.44233423  0.94076912  0.19007557  1
  Zn  Zn142  1  0.43919116  0.93474118  0.68402628  1
  Zn  Zn143  1  0.93499851  0.43593937  0.19123629  1
  Zn  Zn144  1  0.93345926  0.43758257  0.68698265  1
  Zn  Zn145  1  0.94115428  0.93830917  0.18573880  1
  Zn  Zn146  1  0.93820188  0.93958007  0.69161374  1
  Zn  Zn147  1  0.06909277  0.06218319  0.31612367  1
  Zn  Zn148  1  0.06306542  0.06270116  0.81603538  1
  Zn  Zn149  1  0.05619823  0.56049877  0.31728357  1
  Zn  Zn150  1  0.06214111  0.56262042  0.81009118  1
  Zn  Zn151  1  0.56197056  0.06114516  0.31599388  1
  Zn  Zn152  1  0.56051266  0.06277667  0.81188514  1
  Zn  Zn153  1  0.56380393  0.56197227  0.31425957  1
  Zn  Zn154  1  0.56219841  0.56709931  0.81550066  1
  Zn  Zn155  1  0.43813840  0.18808273  0.44003989  1
  Zn  Zn156  1  0.44469607  0.18703412  0.93276742  1
  Zn  Zn157  1  0.43131659  0.68548554  0.43172370  1
  Zn  Zn158  1  0.43246274  0.68347090  1.05863495  1
  Zn  Zn159  1  0.94695685  0.18030982  0.43523089  1
  Zn  Zn160  1  0.94252161  0.18688796  0.93952498  1
  Zn  Zn161  1  0.93409355  0.68309804  0.43875692  1
  Zn  Zn162  1  0.93466042  0.68729081  0.93518648  1
  Zn  Zn163  1  0.06405576  0.30942979  0.06240441  1
  Zn  Zn164  1  0.06543819  0.31378772  0.56412793  1
  Zn  Zn165  1  0.06330640  0.81225933  0.06608010  1
  Zn  Zn166  1  0.06497540  0.81626699  0.56499258  1
  Zn  Zn167  1  0.55975627  0.31155289  0.05916883  1
  Zn  Zn168  1  0.56340112  0.31912783  0.56364682  1
  Zn  Zn169  1  0.56677824  0.81880177  0.06202272  1
  Zn  Zn170  1  0.56370261  0.81292999  0.56378226  1
  O  O171  1  0.12798280  0.12030252  0.11520724  1
  O  O172  1  0.11944777  0.11912676  0.62332389  1
  O  O173  1  0.10826102  0.62230988  0.11737355  1
  O  O174  1  0.13223574  0.60984840  0.62407611  1
  O  O175  1  0.61304164  0.12511859  0.12301394  1
  O  O176  1  0.62022257  0.11949266  0.61464501  1
  O  O177  1  0.67710606  0.62118086  0.10085314  1
  O  O178  1  0.62958081  0.61311407  0.61428450  1
  O  O179  1  0.38411923  0.38464551  0.37728385  1
  O  O180  1  0.38656220  0.38010419  0.87758552  1
  O  O181  1  0.38233509  0.87973124  0.38004975  1
  O  O182  1  0.38645726  0.86909122  0.87737816  1
  O  O183  1  0.87353142  0.37252648  0.38527727  1
  O  O184  1  0.87966930  0.38098082  0.88524748  1
  O  O185  1  0.88856524  0.87982885  0.37867715  1
  O  O186  1  0.87131505  0.88409129  0.88783181  1
  O  O187  1  0.26372498  -0.00468333  0.36886451  1
  O  O188  1  0.24920459  0.00902917  0.86158742  1
  O  O189  1  0.25913229  0.51154139  0.38285469  1
  O  O190  1  0.25701988  0.50818645  0.87495798  1
  O  O191  1  0.75267119  0.00115420  0.36428901  1
  O  O192  1  0.75853500  -0.00275133  0.86623913  1
  O  O193  1  0.75108527  0.50518091  0.36837649  1
  O  O194  1  0.75267980  0.50815084  0.86658719  1
  O  O195  1  0.23112291  0.48013545  0.09800258  1
  O  O196  1  0.24307077  0.49131530  0.62724947  1
  O  O197  1  0.25456348  1.00086376  0.13975586  1
  O  O198  1  0.24505453  0.99867144  0.63517976  1
  O  O199  1  0.76076280  0.48306697  0.13522708  1
  O  O200  1  0.74352487  0.49335658  0.62992003  1
  O  O201  1  0.74947271  0.99569293  0.13729994  1
  O  O202  1  0.74627901  0.99338076  0.63174081  1
  O  O203  1  0.00322686  0.36631650  0.26040751  1
  O  O204  1  -0.00317218  0.38062508  0.76661359  1
  O  O205  1  0.00565490  0.86907405  0.25679314  1
  O  O206  1  -0.00008911  0.86025822  0.74981070  1
  O  O207  1  0.50264493  0.36937620  0.25318678  1
  O  O208  1  0.49891465  0.36664623  0.75614248  1
  O  O209  1  0.50743687  0.86668175  0.25377149  1
  O  O210  1  0.50499324  0.87100900  0.75610805  1
  O  O211  1  0.49652324  0.13073712  0.24502988  1
  O  O212  1  0.50629276  0.13192229  0.73586975  1
  O  O213  1  0.50410764  0.63923745  0.25250601  1
  O  O214  1  0.48633690  0.63238609  0.75520020  1
  O  O215  1  0.99464377  0.13059314  0.25065786  1
  O  O216  1  0.99750087  0.11933440  0.73775098  1
  O  O217  1  1.00146532  0.63267706  0.24332519  1
  O  O218  1  0.98811804  0.63136641  0.74928370  1
  O  O219  1  0.38777372  0.26461005  -0.00377191  1
  O  O220  1  0.36833346  0.25178383  0.51143690  1
  O  O221  1  0.36802190  0.76370801  0.00173871  1
  O  O222  1  0.36696873  0.75207226  0.50645730  1
  O  O223  1  0.86831020  0.25760304  -0.00114690  1
  O  O224  1  0.87395554  0.25055416  0.50685948  1
  O  O225  1  0.87300957  0.75897773  0.00681693  1
  O  O226  1  0.86025170  0.75116342  0.49898676  1
  O  O227  1  0.14318643  0.25103878  0.50262940  1
  O  O228  1  0.12407270  0.23800854  0.99132659  1
  O  O229  1  0.13890454  0.75024763  0.50563885  1
  O  O230  1  0.12734795  0.74482963  0.99321077  1
  O  O231  1  0.62224759  0.23847679  0.50426130  1
  O  O232  1  0.63269098  0.24854594  0.99050072  1
  O  O233  1  0.63074420  0.73978090  0.50469414  1
  O  O234  1  0.63188400  0.75195149  0.99014130  1
  O  O235  1  0.49549722  0.24248907  0.13174938  1
  O  O236  1  0.49666543  0.24634124  0.62884998  1
  O  O237  1  0.50555005  0.74629983  0.12953552  1
  O  O238  1  0.48559032  0.75582226  0.62980867  1
  O  O239  1  0.99950550  0.24655413  0.13682710  1
  O  O240  1  0.99153624  0.24508102  0.62113758  1
  O  O241  1  0.99340412  0.74296112  0.13340992  1
  O  O242  1  1.00483777  0.74926045  0.63803167  1
  O  O243  1  -0.00075463  0.25727742  0.36593465  1
  O  O244  1  0.01020912  0.25849335  0.88000299  1
  O  O245  1  -0.00865843  0.75617041  0.36422209  1
  O  O246  1  0.01058065  0.74249185  0.86737731  1
  O  O247  1  0.49384455  0.26048693  0.36751896  1
  O  O248  1  0.50726902  0.25661728  0.86440146  1
  O  O249  1  0.49667416  0.76097237  0.36885167  1
  O  O250  1  0.51367470  0.75990223  0.86680030  1
  O  O251  1  0.25232469  0.14002821  0.50793281  1
  O  O252  1  0.24560964  0.11453983  0.98436400  1
  O  O253  1  0.24660811  0.63272542  0.48953081  1
  O  O254  1  0.24452421  0.63215818  0.98930748  1
  O  O255  1  0.73496863  0.12166875  0.49924552  1
  O  O256  1  0.75076208  0.13761038  1.00769987  1
  O  O257  1  0.74128960  0.63341142  0.49399338  1
  O  O258  1  0.76902986  0.63755028  0.97637369  1
  O  O259  1  0.26983304  0.36954446  -0.01739445  1
  O  O260  1  0.25335200  0.36556030  0.51238555  1
  O  O261  1  0.26467326  0.86972163  -0.00238142  1
  O  O262  1  0.25535630  0.86883134  0.50330311  1
  O  O263  1  0.75566328  0.37084402  0.00378939  1
  O  O264  1  0.74608233  0.37572057  0.50450861  1
  O  O265  1  0.75739915  0.87049431  0.00596542  1
  O  O266  1  0.74970023  0.86858978  0.50719998  1
  O  O267  1  0.11692302  0.48403257  0.25133923  1
  O  O268  1  0.12703245  0.49748343  0.73979374  1
  O  O269  1  0.13569098  0.99243145  0.24920315  1
  O  O270  1  0.12996246  0.99990275  0.74187074  1
  O  O271  1  0.63135942  0.48821097  0.25179996  1
  O  O272  1  0.63532449  0.51238396  0.74223274  1
  O  O273  1  0.63220686  0.99409960  0.24894793  1
  O  O274  1  0.63245705  0.99630780  0.74532015  1
  O  O275  1  0.37161073  0.00489750  0.25757679  1
  O  O276  1  0.36429322  -0.00084814  0.74451184  1
  O  O277  1  0.37900413  0.50074280  0.25913279  1
  O  O278  1  0.37329113  0.50666228  0.75787206  1
  O  O279  1  0.86830515  0.00661398  0.25080232  1
  O  O280  1  0.86819170  0.00087357  0.76088372  1
  O  O281  1  0.85817555  0.48499529  0.26512537  1
  O  O282  1  0.86678080  0.51188971  0.75175596  1
  O  O283  1  0.11883033  0.37140615  0.36750302  1
  O  O284  1  0.11836532  0.36691990  0.87639291  1
  O  O285  1  0.11227189  0.87868666  0.36578523  1
  O  O286  1  0.13144978  0.86199001  0.87442202  1
  O  O287  1  0.60989408  0.37995870  0.36572155  1
  O  O288  1  0.61469904  0.36482104  0.87543193  1
  O  O289  1  0.61692685  0.87961288  0.36293386  1
  O  O290  1  0.61912700  0.86980156  0.86867613  1
  O  O291  1  0.38654773  0.12368202  0.13372594  1
  O  O292  1  0.38797498  0.13369168  0.62067575  1
  O  O293  1  0.37075548  0.61790594  0.12361379  1
  O  O294  1  0.36688468  0.63253380  0.63456940  1
  O  O295  1  0.87869840  0.12630078  0.13860127  1
  O  O296  1  0.88153816  0.13726691  0.62848258  1
  O  O297  1  0.88191625  0.63596342  0.12104375  1
  O  O298  1  0.86754996  0.62300426  0.63733545  1
  O  O299  1  0.25838459  0.25682358  0.12515977  1
  O  O300  1  0.25819374  0.25407900  0.62255607  1
  O  O301  1  0.24004652  0.74480822  0.11035499  1
  O  O302  1  0.25848079  0.75534090  0.62021779  1
  O  O303  1  0.75169710  0.26110787  0.11717454  1
  O  O304  1  0.75513623  0.26562581  0.62846114  1
  O  O305  1  0.76061148  0.76069961  0.12269703  1
  O  O306  1  0.74331380  0.76187178  0.61639740  1
  O  O307  1  0.25663889  0.25562538  0.39238521  1
  O  O308  1  0.24602092  0.23408439  0.86861171  1
  O  O309  1  0.25695860  0.73535212  0.38238422  1
  O  O310  1  0.24148014  0.74301207  0.88197913  1
  O  O311  1  0.76220935  0.26030800  0.38630761  1
  O  O312  1  0.74134160  0.25640764  0.88269631  1
  O  O313  1  0.75001228  0.74301465  0.38203806  1
  O  O314  1  0.74150580  0.74839118  0.87328532  1
  O  O315  1  0.01242532  0.11739910  0.00209392  1
  O  O316  1  0.00218189  0.11618626  0.51366761  1
  O  O317  1  -0.00202639  0.61775955  0.00668651  1
  O  O318  1  0.00314791  0.61509461  0.49014758  1
  O  O319  1  0.49936041  0.11618129  0.00616781  1
  O  O320  1  0.51015471  0.12097302  0.50769988  1
  O  O321  1  0.49965982  0.60885654  -0.00290742  1
  O  O322  1  0.50606294  0.62103690  0.49333352  1
  O  O323  1  0.49874652  0.38501110  0.49226325  1
  O  O324  1  0.49513662  0.38386433  0.98936308  1
  O  O325  1  0.49612406  0.87838054  0.49210427  1
  O  O326  1  0.49114971  0.87908963  0.99446742  1
  O  O327  1  1.00514748  0.37793356  0.48680951  1
  O  O328  1  0.99326028  0.38035478  0.99508626  1
  O  O329  1  1.00094251  0.88053173  0.49442260  1
  O  O330  1  0.99305537  0.88152318  1.00355208  1
  O  O331  1  0.49185831  0.49617472  0.38183529  1
  O  O332  1  0.49364453  0.49330487  0.87331723  1
  O  O333  1  0.49074266  0.98901210  0.37779308  1
  O  O334  1  0.50410718  0.99168884  0.88480106  1
  O  O335  1  0.98461640  0.48796748  0.37120593  1
  O  O336  1  0.99249223  0.49566799  0.88175878  1
  O  O337  1  1.00011952  0.99337634  0.38604186  1
  O  O338  1  0.99245598  1.00112703  0.88690854  1
  O  O339  1  0.00300810  0.00171456  0.11094208  1
  O  O340  1  0.00749742  0.00450421  0.62223082  1
  O  O341  1  -0.00433096  0.50651740  0.11979742  1
  O  O342  1  0.01329592  0.49264434  0.62495913  1
  O  O343  1  0.50227613  0.00732296  0.11597000  1
  O  O344  1  0.50555293  0.00712200  0.61938771  1
  O  O345  1  0.50434011  0.49518982  0.11064571  1
  O  O346  1  0.50603759  0.49711193  0.61678568  1
  O  O347  1  0.23560333  0.37338632  0.25406731  1
  O  O348  1  0.25095655  0.37458415  0.73949440  1
  O  O349  1  0.24218901  0.88077615  0.25739939  1
  O  O350  1  0.24934320  0.88722376  0.74651779  1
  O  O351  1  0.73737153  0.37913673  0.24086761  1
  O  O352  1  0.75313956  0.39029214  0.74345705  1
  O  O353  1  0.74427993  0.88127232  0.24915195  1
  O  O354  1  0.74623082  0.88182793  0.74323973  1
  O  O355  1  0.26347473  0.11823951  0.24958229  1
  O  O356  1  0.24984017  0.11262918  0.76014018  1
  O  O357  1  0.24834693  0.62890858  0.26230722  1
  O  O358  1  0.25842750  0.62680517  0.76094948  1
  O  O359  1  0.75476675  0.12107096  0.25414391  1
  O  O360  1  0.75179426  0.11350297  0.74363271  1
  O  O361  1  0.74151160  0.61327058  0.25718703  1
  O  O362  1  0.75910441  0.62376890  0.75580593  1
  O  O363  1  0.38473781  0.11446633  0.36672476  1
  O  O364  1  0.36392995  0.12719923  0.87698036  1
  O  O365  1  0.36502401  0.61721428  0.36699355  1
  O  O366  1  0.36622230  0.61544978  0.86722545  1
  O  O367  1  0.87185860  0.12271073  0.36504001  1
  O  O368  1  0.87766818  0.11413333  0.87593347  1
  O  O369  1  0.85785265  0.61635155  0.37405647  1
  O  O370  1  0.87042306  0.62034790  0.86157664  1
  O  O371  1  0.11843703  0.37343240  0.14205248  1
  O  O372  1  0.13275790  0.38187347  0.62964566  1
  O  O373  1  0.12139059  0.87814202  0.14078191  1
  O  O374  1  0.13326506  0.88465246  0.63108771  1
  O  O375  1  0.63073099  0.37205218  0.13040025  1
  O  O376  1  0.63321710  0.39104484  0.62091892  1
  O  O377  1  0.63332237  0.87793709  0.13657109  1
  O  O378  1  0.63077943  0.88274383  0.63147880  1
  O  O379  1  0.11924208  0.25772542  0.25335886  1
  O  O380  1  0.12675855  0.25136842  0.76250218  1
  O  O381  1  0.11350862  0.75686677  0.24922453  1
  O  O382  1  0.11303153  0.74908678  0.75659204  1
  O  O383  1  0.61264908  0.26008130  0.24778153  1
  O  O384  1  0.61603975  0.24821698  0.75340543  1
  O  O385  1  0.61303580  0.75813705  0.24718147  1
  O  O386  1  0.62061085  0.75406899  0.75359536  1
  O  O387  1  0.38572435  0.24243239  0.25029273  1
  O  O388  1  0.38774403  0.25157060  0.73838020  1
  O  O389  1  0.39380561  0.74902160  0.24832423  1
  O  O390  1  0.37709366  0.74366121  0.74296720  1
  O  O391  1  0.88475214  0.24166489  0.24585717  1
  O  O392  1  0.87185962  0.25156916  0.73979886  1
  O  O393  1  0.88226672  0.75817734  0.23817826  1
  O  O394  1  0.88774436  0.74066641  0.75350105  1
  O  O395  1  0.38446265  0.50292706  0.49474048  1
  O  O396  1  0.38610742  0.49061347  0.98712519  1
  O  O397  1  0.38081088  0.99547132  0.49459536  1
  O  O398  1  0.38335152  0.98506692  1.00202938  1
  O  O399  1  0.86944044  0.49776021  0.48620865  1
  O  O400  1  0.88182022  0.49392240  0.99589192  1
  O  O401  1  0.88841861  0.99905988  0.50329798  1
  O  O402  1  0.88139004  0.99487655  0.99508810  1
  O  O403  1  0.12132151  0.00587615  -0.00164579  1
  O  O404  1  0.11765868  -0.00193092  0.51329919  1
  O  O405  1  0.10619763  0.50672958  -0.00584040  1
  O  O406  1  0.12553909  0.49823204  0.51600249  1
  O  O407  1  0.61541033  0.00017049  0.00269472  1
  O  O408  1  0.61799328  0.00248681  0.50515073  1
  O  O409  1  0.60883875  0.50044482  -0.01062643  1
  O  O410  1  0.61215305  0.51066791  0.50546228  1
  O  O411  1  0.37602196  0.37588325  0.10488397  1
  O  O412  1  0.36860428  0.36742785  0.62272145  1
  O  O413  1  0.37931225  0.87505966  0.11699310  1
  O  O414  1  0.36933187  0.86804859  0.61730448  1
  O  O415  1  0.87059741  0.37145624  0.11342900  1
  O  O416  1  0.86509885  0.37042318  0.62251200  1
  O  O417  1  0.87243818  0.87041420  0.11606108  1
  O  O418  1  0.86348783  0.87840508  0.62503379  1
  O  O419  1  0.12152158  0.13108624  0.38503073  1
  O  O420  1  0.13246227  0.13106194  0.88060608  1
  O  O421  1  0.13824840  0.61729578  0.37624676  1
  O  O422  1  0.13133667  0.63081223  0.87906717  1
  O  O423  1  0.62582423  0.12459464  0.38966394  1
  O  O424  1  0.61951601  0.13875468  0.87737007  1
  O  O425  1  0.63584876  0.61922451  0.38594386  1
  O  O426  1  0.63431622  0.63561868  0.87793978  1
