# generated using pymatgen
data_V85Zn86O256
_symmetry_space_group_name_H-M   'P 1'
_cell_length_a   16.96224021
_cell_length_b   16.97019487
_cell_length_c   16.96943904
_cell_angle_alpha   89.89284992
_cell_angle_beta   89.89863755
_cell_angle_gamma   89.97843379
_symmetry_Int_Tables_number   1
_chemical_formula_structural   V85Zn86O256
_chemical_formula_sum   'V85 Zn86 O256'
_cell_volume   4884.67929437
_cell_formula_units_Z   1
loop_
 _symmetry_equiv_pos_site_id
 _symmetry_equiv_pos_as_xyz
  1  'x, y, z'
loop_
 _atom_site_type_symbol
 _atom_site_label
 _atom_site_symmetry_multiplicity
 _atom_site_fract_x
 _atom_site_fract_y
 _atom_site_fract_z
 _atom_site_occupancy
  V  V0  1  0.12559444  0.37956160  0.74620209  1
  V  V1  1  0.75290753  0.87461889  0.62555696  1
  V  V2  1  0.48965544  0.00298360  -0.00772318  1
  V  V3  1  0.62409226  0.62181602  0.49986352  1
  V  V4  1  0.24678894  0.75280287  0.49119022  1
  V  V5  1  0.49169476  0.49175878  0.50183067  1
  V  V6  1  0.37363763  0.12238369  0.25139251  1
  V  V7  1  0.51507268  0.01425232  0.50097544  1
  V  V8  1  0.74959686  0.62131249  0.37406242  1
  V  V9  1  0.62084768  0.87486318  0.24711841  1
  V  V10  1  0.88411753  -0.00129715  0.87561067  1
  V  V11  1  0.62433831  0.25296554  0.37948031  1
  V  V12  1  0.00635144  0.49626558  0.00097857  1
  V  V13  1  0.00385747  0.62566403  0.62281840  1
  V  V14  1  0.12616958  0.62863094  0.48951846  1
  V  V15  1  0.38174036  0.10517826  0.74864184  1
  V  V16  1  0.25272575  0.50368565  0.74565859  1
  V  V17  1  0.37761616  0.38111375  0.00132748  1
  V  V18  1  0.87215105  0.49562066  0.87848189  1
  V  V19  1  0.62665138  0.36364987  0.75493537  1
  V  V20  1  0.25327026  0.00154487  0.24490375  1
  V  V21  1  0.38188424  0.87342268  0.49930477  1
  V  V22  1  0.23871543  0.25537187  -0.01210115  1
  V  V23  1  0.74327691  0.24926356  0.00007968  1
  V  V24  1  0.50321860  0.75124456  0.74896423  1
  V  V25  1  0.61907417  0.48957943  0.12955967  1
  V  V26  1  0.37753970  0.50635479  0.87684341  1
  V  V27  1  0.00068862  0.48794725  0.50100665  1
  V  V28  1  0.88424062  0.24113662  0.12330755  1
  V  V29  1  0.87387062  0.48677228  0.38163723  1
  V  V30  1  0.50561136  0.25226055  0.24880872  1
  V  V31  1  0.01124253  0.12504102  0.61802880  1
  V  V32  1  0.74898995  0.87615158  0.12080964  1
  V  V33  1  0.62564541  0.49681051  0.62605261  1
  V  V34  1  0.87492908  0.75059186  0.12849994  1
  V  V35  1  0.25238061  -0.00595996  0.76074112  1
  V  V36  1  0.87923022  0.12605498  0.74423068  1
  V  V37  1  0.00400714  0.75666181  0.26486485  1
  V  V38  1  0.06757394  0.44016199  0.18453988  1
  V  V39  1  0.49008820  0.73833519  0.24529859  1
  V  V40  1  0.37188682  0.25166196  0.12348979  1
  V  V41  1  0.48621947  0.25096460  0.73960833  1
  V  V42  1  0.49508387  0.12466916  0.11893950  1
  V  V43  1  0.11812111  0.86932483  0.75949477  1
  V  V44  1  0.00440966  -0.00184187  0.49390748  1
  V  V45  1  0.25926917  0.35975078  0.62200151  1
  V  V46  1  0.50285161  0.62446919  0.62493133  1
  V  V47  1  0.62822080  0.74905992  0.87761068  1
  V  V48  1  0.25896498  0.50648293  0.24761140  1
  V  V49  1  0.75656869  -0.00171529  0.74987538  1
  V  V50  1  0.74764333  0.62288937  0.87956262  1
  V  V51  1  0.74813246  0.74891833  0.49699569  1
  V  V52  1  0.49978674  0.88629299  0.87140639  1
  V  V53  1  0.37424713  0.87370204  -0.00437354  1
  V  V54  1  0.61925777  0.62139388  0.01012746  1
  V  V55  1  0.50304013  0.37448487  0.87831834  1
  V  V56  1  0.88840404  0.12474099  0.24629432  1
  V  V57  1  0.24528575  0.37549746  0.13104683  1
  V  V58  1  0.11480501  0.63951650  -0.01268959  1
  V  V59  1  0.75695716  0.37431310  0.61895431  1
  V  V60  1  0.13300491  -0.00170077  0.62488549  1
  V  V61  1  0.12473825  0.87457161  0.26756237  1
  V  V62  1  0.35007585  0.01910612  0.40304508  1
  V  V63  1  0.74808277  0.49670462  0.75146014  1
  V  V64  1  0.00451623  0.24823764  0.75078858  1
  V  V65  1  0.74884890  0.00339076  0.24724586  1
  V  V66  1  0.75091682  0.13017876  0.87330947  1
  V  V67  1  0.87754760  0.74830464  0.62358640  1
  V  V68  1  0.87201909  0.37155511  -0.00114244  1
  V  V69  1  0.00584238  0.62812927  0.13063966  1
  V  V70  1  0.61971550  0.12467224  -0.01171871  1
  V  V71  1  0.37720784  0.75010026  0.62406818  1
  V  V72  1  0.88782219  0.87690610  0.00121894  1
  V  V73  1  0.00891246  0.02064175  0.00141683  1
  V  V74  1  0.63350084  0.87371979  0.75145639  1
  V  V75  1  0.49067548  0.37192624  0.37717290  1
  V  V76  1  0.75498437  0.24679514  0.49980756  1
  V  V77  1  0.12606883  0.24120970  0.36798472  1
  V  V78  1  0.87532952  0.62572013  0.75143097  1
  V  V79  1  0.87430591  0.62615151  0.25217166  1
  V  V80  1  0.74383051  0.12126728  0.37859344  1
  V  V81  1  0.88036494  0.87442103  0.48981109  1
  V  V82  1  0.50033242  0.87970460  0.37324644  1
  V  V83  1  0.00723901  0.37122089  0.87456453  1
  V  V84  1  0.24694992  0.87143755  0.12184466  1
  Zn  Zn85  1  0.62081641  0.00067089  0.11934495  1
  Zn  Zn86  1  0.88607312  0.25801107  0.61382711  1
  Zn  Zn87  1  0.87954344  -0.00217658  0.37120156  1
  Zn  Zn88  1  0.01638208  0.74298186  0.77147923  1
  Zn  Zn89  1  0.25552436  0.63367722  0.36426102  1
  Zn  Zn90  1  0.24991539  0.25291350  0.48798657  1
  Zn  Zn91  1  0.23673118  0.63249326  0.86567492  1
  Zn  Zn92  1  0.74050589  0.49388719  0.25413946  1
  Zn  Zn93  1  0.25038042  0.87433564  0.62522253  1
  Zn  Zn94  1  0.63488535  0.01577093  0.61207655  1
  Zn  Zn95  1  0.24626806  0.12468597  0.87605107  1
  Zn  Zn96  1  0.37291619  0.73704570  0.12471074  1
  Zn  Zn97  1  0.74242128  0.36625495  0.13158837  1
  Zn  Zn98  1  0.62092012  0.74735644  0.37280978  1
  Zn  Zn99  1  0.36969022  0.50032419  0.37843183  1
  Zn  Zn100  1  0.74988455  0.75016839  0.00289290  1
  Zn  Zn101  1  0.13175543  0.50127337  0.61820380  1
  Zn  Zn102  1  0.37430259  0.62902824  0.75197375  1
  Zn  Zn103  1  0.45189476  0.56534739  0.06293775  1
  Zn  Zn104  1  0.24686636  0.75181914  -0.00654209  1
  Zn  Zn105  1  0.11447984  0.00958232  0.12883939  1
  Zn  Zn106  1  0.00317453  0.36378204  0.36601765  1
  Zn  Zn107  1  0.17721912  0.18888839  0.19660384  1
  Zn  Zn108  1  0.18257863  0.18011748  0.71678994  1
  Zn  Zn109  1  0.18484672  0.69083361  0.18375041  1
  Zn  Zn110  1  0.18969538  0.68974940  0.68069099  1
  Zn  Zn111  1  0.68339346  0.18364518  0.18218242  1
  Zn  Zn112  1  0.69019932  0.19105667  0.68331670  1
  Zn  Zn113  1  0.68404317  0.68812778  0.18954705  1
  Zn  Zn114  1  0.69130184  0.68688460  0.68757195  1
  Zn  Zn115  1  0.31021948  0.31179996  0.31076794  1
  Zn  Zn116  1  0.31682813  0.31980218  0.80932325  1
  Zn  Zn117  1  0.31611672  0.82082617  0.31258930  1
  Zn  Zn118  1  0.31177544  0.81199781  0.81381590  1
  Zn  Zn119  1  0.81456300  0.30439159  0.31404611  1
  Zn  Zn120  1  0.81652748  0.30979234  0.80981214  1
  Zn  Zn121  1  0.80864003  0.81146295  0.31040576  1
  Zn  Zn122  1  0.83978195  0.80030482  0.82519542  1
  Zn  Zn123  1  0.18401638  0.42926972  0.43474131  1
  Zn  Zn124  1  0.18951256  0.44105298  0.93570390  1
  Zn  Zn125  1  0.19750230  0.95318426  0.44696352  1
  Zn  Zn126  1  0.18411910  0.93473285  0.93649442  1
  Zn  Zn127  1  0.68223791  0.43188329  0.43796889  1
  Zn  Zn128  1  0.68223117  0.43789296  0.94292103  1
  Zn  Zn129  1  0.68983924  0.93422138  0.43312137  1
  Zn  Zn130  1  0.68837017  0.94251932  0.93534500  1
  Zn  Zn131  1  0.26847826  0.09019511  0.08247821  1
  Zn  Zn132  1  0.32554187  0.10356940  0.56227448  1
  Zn  Zn133  1  0.28764585  0.56337659  0.06560927  1
  Zn  Zn134  1  0.31229105  0.56585593  0.56066473  1
  Zn  Zn135  1  0.81239008  0.06159457  0.06121980  1
  Zn  Zn136  1  0.81828270  0.06243375  0.55984886  1
  Zn  Zn137  1  0.81014139  0.55823985  0.06719738  1
  Zn  Zn138  1  0.81370019  0.55998462  0.56081832  1
  Zn  Zn139  1  0.43755723  0.43268663  0.19192302  1
  Zn  Zn140  1  0.43579399  0.43577470  0.68859874  1
  Zn  Zn141  1  0.43269736  0.93800305  0.18071514  1
  Zn  Zn142  1  0.44471621  0.94048303  0.68059454  1
  Zn  Zn143  1  0.88877263  0.41769013  0.20674574  1
  Zn  Zn144  1  0.93735494  0.44084715  0.68655421  1
  Zn  Zn145  1  0.94083022  0.94063026  0.18574499  1
  Zn  Zn146  1  0.94360193  0.93611788  0.68381755  1
  Zn  Zn147  1  0.06894009  0.06197406  0.31602762  1
  Zn  Zn148  1  0.06961258  0.06216763  0.81510878  1
  Zn  Zn149  1  0.05937131  0.56559012  0.32107360  1
  Zn  Zn150  1  0.05834853  0.55730596  0.81023321  1
  Zn  Zn151  1  0.56157099  0.06378371  0.31187881  1
  Zn  Zn152  1  0.58298433  0.08144233  0.78023687  1
  Zn  Zn153  1  0.55974957  0.55834078  0.31339316  1
  Zn  Zn154  1  0.56162762  0.55982510  0.81314765  1
  Zn  Zn155  1  0.43326476  0.19174303  0.44322087  1
  Zn  Zn156  1  0.42789805  0.19218864  0.92722514  1
  Zn  Zn157  1  0.43589408  0.68468670  0.43037707  1
  Zn  Zn158  1  0.43604996  0.69582703  0.93215689  1
  Zn  Zn159  1  0.94026368  0.18542366  0.43332554  1
  Zn  Zn160  1  0.93577937  0.18917343  0.93418496  1
  Zn  Zn161  1  0.93574867  0.68237338  0.44013545  1
  Zn  Zn162  1  0.93270388  0.68679533  0.94214653  1
  Zn  Zn163  1  0.06003291  0.30219417  0.05882922  1
  Zn  Zn164  1  0.07800262  0.30716577  0.55690190  1
  Zn  Zn165  1  0.06198701  0.81594968  0.07089266  1
  Zn  Zn166  1  0.06454789  0.81466777  0.56438951  1
  Zn  Zn167  1  0.55962411  0.31095138  0.05785088  1
  Zn  Zn168  1  0.56877209  0.30972499  0.56134657  1
  Zn  Zn169  1  0.56001220  0.81083866  0.06216313  1
  Zn  Zn170  1  0.56735598  0.81387725  0.56207517  1
  O  O171  1  0.16118474  0.11175966  0.12178069  1
  O  O172  1  0.11603100  0.11544073  0.63571516  1
  O  O173  1  0.10903013  0.63141798  0.11281124  1
  O  O174  1  0.11682040  0.62355580  0.61669274  1
  O  O175  1  0.61380515  0.12405683  0.10723996  1
  O  O176  1  0.62173062  0.10726662  0.67348839  1
  O  O177  1  0.62718190  0.61955976  0.11387485  1
  O  O178  1  0.62244052  0.61795488  0.62061325  1
  O  O179  1  0.38680451  0.37734738  0.37406457  1
  O  O180  1  0.37924133  0.38869799  0.88251245  1
  O  O181  1  0.38260738  0.88985047  0.38342279  1
  O  O182  1  0.38947461  0.87162107  0.88111951  1
  O  O183  1  0.88327650  0.38332656  0.37164784  1
  O  O184  1  0.88265476  0.37809585  0.87949660  1
  O  O185  1  0.86817948  0.87477134  0.38682458  1
  O  O186  1  0.86159112  0.89350450  0.88943538  1
  O  O187  1  0.25748211  -0.01912823  0.35126578  1
  O  O188  1  0.24714000  0.00044707  0.86356901  1
  O  O189  1  0.24704566  0.49342404  0.35548178  1
  O  O190  1  0.25642148  0.50601675  0.86324873  1
  O  O191  1  0.75216962  0.00552190  0.36540752  1
  O  O192  1  0.76023533  0.01267742  0.87039056  1
  O  O193  1  0.75509081  0.50320468  0.37759844  1
  O  O194  1  0.75180507  0.50381661  0.87278697  1
  O  O195  1  0.23668882  0.49169517  0.13882470  1
  O  O196  1  0.25239447  0.49810807  0.63618206  1
  O  O197  1  0.25973697  0.98745151  0.13675729  1
  O  O198  1  0.23805004  0.99826646  0.63124737  1
  O  O199  1  0.73606435  0.49478833  0.12766860  1
  O  O200  1  0.74589162  0.49264781  0.62914998  1
  O  O201  1  0.74584455  0.99341594  0.13055811  1
  O  O202  1  0.75353525  0.99070539  0.63077568  1
  O  O203  1  -0.00135351  0.38845014  0.23847345  1
  O  O204  1  0.00426588  0.37309679  0.75523900  1
  O  O205  1  0.01489245  0.87160624  0.24667935  1
  O  O206  1  0.01438668  0.87060044  0.74589330  1
  O  O207  1  0.49751117  0.36240051  0.26028122  1
  O  O208  1  0.50685178  0.36765008  0.75419384  1
  O  O209  1  0.50541945  0.87797371  0.25725440  1
  O  O210  1  0.51355042  0.87186893  0.75380990  1
  O  O211  1  0.49181682  0.12832386  0.24111891  1
  O  O212  1  0.48874196  0.14481423  0.76885657  1
  O  O213  1  0.50376870  0.64052262  0.25524733  1
  O  O214  1  0.50183310  0.63261261  0.74244893  1
  O  O215  1  0.98581749  0.11159252  0.24916449  1
  O  O216  1  0.99535766  0.13289083  0.74417429  1
  O  O217  1  0.99741785  0.63334743  0.24574102  1
  O  O218  1  0.99327860  0.62633427  0.74146060  1
  O  O219  1  0.37086090  0.26745636  0.00359491  1
  O  O220  1  0.34811159  0.20532930  0.51160332  1
  O  O221  1  0.38159459  0.76580599  0.00350914  1
  O  O222  1  0.37552504  0.75950962  0.50408648  1
  O  O223  1  0.86253332  0.24853204  0.00423039  1
  O  O224  1  0.86125135  0.24399801  0.49873113  1
  O  O225  1  0.87003128  0.76041063  0.01121194  1
  O  O226  1  0.87037067  0.75444245  0.50738391  1
  O  O227  1  0.13589901  0.24292364  0.48860052  1
  O  O228  1  0.13959736  0.25551332  0.99563660  1
  O  O229  1  0.13627980  0.74453557  0.50652209  1
  O  O230  1  0.11305514  0.74091793  0.99689414  1
  O  O231  1  0.63781694  0.24741502  0.49119193  1
  O  O232  1  0.63504882  0.24214588  0.99911280  1
  O  O233  1  0.63082593  0.74073470  0.49611393  1
  O  O234  1  0.62872371  0.73924133  0.99747719  1
  O  O235  1  0.49336387  0.24598332  0.13103799  1
  O  O236  1  0.50915169  0.25445246  0.64266399  1
  O  O237  1  0.49806466  0.75578151  0.14174771  1
  O  O238  1  0.49825397  0.74636992  0.62930868  1
  O  O239  1  0.98405753  0.24325924  0.11652336  1
  O  O240  1  1.00236384  0.24155742  0.62893122  1
  O  O241  1  0.99320334  0.74421691  0.13517695  1
  O  O242  1  0.99124070  0.73923098  0.62392697  1
  O  O243  1  0.01181387  0.24928499  0.37789355  1
  O  O244  1  -0.00645224  0.26081701  0.86478864  1
  O  O245  1  -0.00656229  0.74598208  0.36346370  1
  O  O246  1  -0.05558317  0.75259783  0.85487194  1
  O  O247  1  0.50450688  0.25245759  0.37264553  1
  O  O248  1  0.49254229  0.26959316  0.86546853  1
  O  O249  1  0.49958451  0.76021800  0.36237809  1
  O  O250  1  0.51045984  0.75927011  0.86634722  1
  O  O251  1  0.27563717  0.05039046  0.47486560  1
  O  O252  1  0.26333360  0.15158960  0.98778332  1
  O  O253  1  0.24048362  0.63497856  0.50194492  1
  O  O254  1  0.22043076  0.62281951  0.99411357  1
  O  O255  1  0.75361472  0.12797429  0.48901389  1
  O  O256  1  0.74147782  0.12775865  0.99213643  1
  O  O257  1  0.74386602  0.62756558  0.49375402  1
  O  O258  1  0.74082285  0.62428753  0.99465655  1
  O  O259  1  0.25375794  0.37582129  0.00996876  1
  O  O260  1  0.24772409  0.37450576  0.51821495  1
  O  O261  1  0.25828785  0.87717020  0.00343377  1
  O  O262  1  0.26476642  0.87087018  0.50336601  1
  O  O263  1  0.75351235  0.36362116  -0.00296737  1
  O  O264  1  0.74579507  0.36520424  0.50965602  1
  O  O265  1  0.75410225  0.87913347  0.01202800  1
  O  O266  1  0.75704420  0.86983611  0.50672072  1
  O  O267  1  0.12141900  0.49640893  0.24900413  1
  O  O268  1  0.13130755  0.49406781  0.74702246  1
  O  O269  1  0.13180001  0.98887613  0.24786518  1
  O  O270  1  0.13246795  0.98603951  0.74437994  1
  O  O271  1  0.62437752  0.50460401  0.23396535  1
  O  O272  1  0.63076299  0.49212261  0.74356796  1
  O  O273  1  0.62987556  0.99052190  0.24570479  1
  O  O274  1  0.64064595  0.97979925  0.76229123  1
  O  O275  1  0.37144095  0.00768647  0.25120812  1
  O  O276  1  0.37432496  -0.00191648  0.75200728  1
  O  O277  1  0.36089434  0.50056280  0.24751907  1
  O  O278  1  0.36808761  0.50323031  0.75738049  1
  O  O279  1  0.86667541  0.00615897  0.24958208  1
  O  O280  1  0.87630728  0.00469129  0.75589574  1
  O  O281  1  0.87538014  0.51378296  0.26701828  1
  O  O282  1  0.86812527  0.50671291  0.75713505  1
  O  O283  1  0.11487009  0.36117856  0.38119369  1
  O  O284  1  0.11230996  0.38537162  0.86673850  1
  O  O285  1  0.13116369  0.87923584  0.36465238  1
  O  O286  1  0.12545915  0.87372871  0.85872146  1
  O  O287  1  0.61751813  0.35902844  0.37351370  1
  O  O288  1  0.61521766  0.38423717  0.86700379  1
  O  O289  1  0.61949870  0.87179469  0.36373656  1
  O  O290  1  0.62499730  0.86635482  0.87072144  1
  O  O291  1  0.37585739  0.13329855  0.13032925  1
  O  O292  1  0.39714665  0.11559240  0.64877936  1
  O  O293  1  0.36993095  0.62489670  0.10680327  1
  O  O294  1  0.38431201  0.63736915  0.62317509  1
  O  O295  1  0.86702596  0.12667062  0.13830575  1
  O  O296  1  0.88451089  0.12313239  0.63579143  1
  O  O297  1  0.88474353  0.62762978  0.13067860  1
  O  O298  1  0.88133231  0.63033723  0.62681453  1
  O  O299  1  0.25508161  0.26109453  0.11575875  1
  O  O300  1  0.24052273  0.26157062  0.63859838  1
  O  O301  1  0.24957219  0.75720904  0.11412851  1
  O  O302  1  0.26367018  0.75223089  0.61380132  1
  O  O303  1  0.75353693  0.24705262  0.11451523  1
  O  O304  1  0.75365186  0.25632386  0.61682276  1
  O  O305  1  0.75531687  0.75995406  0.12800499  1
  O  O306  1  0.75451052  0.75500455  0.61438056  1
  O  O307  1  0.23746642  0.25616635  0.37295085  1
  O  O308  1  0.25126449  0.27006863  0.88791885  1
  O  O309  1  0.25852598  0.75330176  0.38772910  1
  O  O310  1  0.26115987  0.74107933  0.88223715  1
  O  O311  1  0.74314484  0.24304070  0.37992067  1
  O  O312  1  0.75907875  0.23657717  0.88104764  1
  O  O313  1  0.74697886  0.74003137  0.37938676  1
  O  O314  1  0.74734679  0.73841865  0.87849194  1
  O  O315  1  0.00168232  0.11953433  -0.00318571  1
  O  O316  1  -0.01067919  0.11340971  0.51247543  1
  O  O317  1  0.00104208  0.61812168  0.00686581  1
  O  O318  1  0.00779523  0.62077116  0.50604391  1
  O  O319  1  0.50170348  0.12162904  -0.00642232  1
  O  O320  1  0.50612184  0.11204955  0.49667811  1
  O  O321  1  0.51672235  0.62811368  -0.01002385  1
  O  O322  1  0.50871814  0.61773581  0.50480516  1
  O  O323  1  0.50745029  0.38069234  0.49263656  1
  O  O324  1  0.49032550  0.37480364  0.99173010  1
  O  O325  1  0.50015119  0.86802008  0.48458614  1
  O  O326  1  0.49839967  0.88247233  0.99138562  1
  O  O327  1  1.00291973  0.38816687  0.51338920  1
  O  O328  1  0.99603246  0.37883406  0.99244975  1
  O  O329  1  0.98957321  0.88265855  0.50794613  1
  O  O330  1  0.98907939  0.87766946  1.00288281  1
  O  O331  1  0.50213971  0.48831728  0.38433088  1
  O  O332  1  0.48973420  0.48826355  0.86718391  1
  O  O333  1  0.50565506  0.99243652  0.38567935  1
  O  O334  1  0.51023924  0.98861571  0.87613250  1
  O  O335  1  0.99173966  0.49760531  0.38608660  1
  O  O336  1  0.99057451  0.49255000  0.88234393  1
  O  O337  1  0.99867011  1.00375179  0.38958947  1
  O  O338  1  0.99339247  1.00703121  0.88417278  1
  O  O339  1  -0.00080265  0.00106955  0.10616450  1
  O  O340  1  0.00936072  0.00673706  0.61945333  1
  O  O341  1  0.00722045  0.50319035  0.12250557  1
  O  O342  1  -0.00149532  0.51308944  0.61902140  1
  O  O343  1  0.49892024  0.00777122  0.11135478  1
  O  O344  1  0.51543883  -0.01331839  0.60389501  1
  O  O345  1  0.51194747  0.49430111  0.12721973  1
  O  O346  1  0.50616637  0.50196778  0.62085442  1
  O  O347  1  0.25429083  0.38321609  0.23570231  1
  O  O348  1  0.24118017  0.38429839  0.74557075  1
  O  O349  1  0.24018873  0.87465223  0.24058935  1
  O  O350  1  0.24600836  0.88049595  0.74571773  1
  O  O351  1  0.77676530  0.38296564  0.24166417  1
  O  O352  1  0.74414976  0.37793742  0.74727285  1
  O  O353  1  0.74346195  0.88370255  0.24160695  1
  O  O354  1  0.75151768  0.87462328  0.74276472  1
  O  O355  1  0.26601113  0.11604231  0.25079784  1
  O  O356  1  0.27126101  0.10579722  0.73616890  1
  O  O357  1  0.23809584  0.61053294  0.24755947  1
  O  O358  1  0.25204453  0.61835181  0.74811494  1
  O  O359  1  0.74783081  0.11212122  0.25206622  1
  O  O360  1  0.76408184  0.12340356  0.75675738  1
  O  O361  1  0.75380881  0.62353819  0.25910218  1
  O  O362  1  0.75285097  0.61662716  0.75926148  1
  O  O363  1  0.38834485  0.11158002  0.36535767  1
  O  O364  1  0.36301466  0.13563528  0.85291138  1
  O  O365  1  0.36599297  0.61406282  0.38371666  1
  O  O366  1  0.38025133  0.61375096  0.87472920  1
  O  O367  1  0.86283518  0.12320035  0.35932253  1
  O  O368  1  0.87226923  0.11724647  0.86494369  1
  O  O369  1  0.86211733  0.61926068  0.37459201  1
  O  O370  1  0.86068981  0.61347955  0.87618711  1
  O  O371  1  0.12455585  0.37491198  0.12625922  1
  O  O372  1  0.13187846  0.38268295  0.63357998  1
  O  O373  1  0.13791672  0.88305958  0.12403344  1
  O  O374  1  0.12823396  0.88311867  0.63274455  1
  O  O375  1  0.62535845  0.38592481  0.11802562  1
  O  O376  1  0.63673599  0.37861212  0.63459258  1
  O  O377  1  0.63148772  0.87719397  0.12987860  1
  O  O378  1  0.64156921  0.87237304  0.63277516  1
  O  O379  1  0.12448018  0.25579108  0.26392206  1
  O  O380  1  0.10991482  0.26932817  0.74453018  1
  O  O381  1  0.11821505  0.76531768  0.24708499  1
  O  O382  1  0.12648318  0.76280727  0.74356243  1
  O  O383  1  0.61100320  0.24130025  0.25463861  1
  O  O384  1  0.62345152  0.26229246  0.75464467  1
  O  O385  1  0.61612750  0.76198929  0.25015469  1
  O  O386  1  0.62642421  0.75818905  0.75534317  1
  O  O387  1  0.38419071  0.24202511  0.24607826  1
  O  O388  1  0.38453831  0.25386509  0.74395771  1
  O  O389  1  0.38647275  0.75444866  0.24788224  1
  O  O390  1  0.38407143  0.75077477  0.73925347  1
  O  O391  1  0.87224703  0.23216938  0.24039844  1
  O  O392  1  0.88704349  0.24267491  0.74398382  1
  O  O393  1  0.88115031  0.74664818  0.24642871  1
  O  O394  1  0.85714190  0.73929608  0.72781770  1
  O  O395  1  0.38941368  0.49932533  0.50517369  1
  O  O396  1  0.37071100  0.49403324  0.99537576  1
  O  O397  1  0.40202133  0.98406617  0.50097050  1
  O  O398  1  0.38851417  0.98947696  0.99600413  1
  O  O399  1  0.88540396  0.50560931  0.49063211  1
  O  O400  1  0.88423479  0.49294615  0.99918494  1
  O  O401  1  0.88288639  0.98904343  0.49793561  1
  O  O402  1  0.88523471  0.99852850  0.99360122  1
  O  O403  1  0.10975002  -0.00025735  -0.00481409  1
  O  O404  1  0.11462152  -0.00621985  0.51198870  1
  O  O405  1  0.10900933  0.50848698  -0.00717116  1
  O  O406  1  0.11789945  0.50992653  0.49922631  1
  O  O407  1  0.61448397  0.00906028  -0.00234561  1
  O  O408  1  0.62092848  -0.00181661  0.49733976  1
  O  O409  1  0.62571268  0.51246552  0.01244029  1
  O  O410  1  0.61829282  0.50326739  0.50789783  1
  O  O411  1  0.36669127  0.37336473  0.11822983  1
  O  O412  1  0.35794579  0.37354371  0.63342917  1
  O  O413  1  0.36444376  0.87119642  0.11516678  1
  O  O414  1  0.38112657  0.86423539  0.61680127  1
  O  O415  1  0.87175418  0.35881236  0.11118184  1
  O  O416  1  0.86110989  0.37460186  0.63221786  1
  O  O417  1  0.86757002  0.87372639  0.11938229  1
  O  O418  1  0.86844029  0.86705231  0.61918788  1
  O  O419  1  0.12736198  0.13761327  0.37182631  1
  O  O420  1  0.14708636  0.13967766  0.82513369  1
  O  O421  1  0.13043894  0.62803542  0.38637334  1
  O  O422  1  0.11106921  0.62874397  0.88362260  1
  O  O423  1  0.63719978  0.13408233  0.36761887  1
  O  O424  1  0.63566323  0.12178238  0.88032905  1
  O  O425  1  0.63544413  0.62191179  0.37979588  1
  O  O426  1  0.63392721  0.62539707  0.88254401  1
