# generated using pymatgen
data_V85Zn86O256
_symmetry_space_group_name_H-M   'P 1'
_cell_length_a   16.93569115
_cell_length_b   16.92910739
_cell_length_c   16.94361183
_cell_angle_alpha   89.99379130
_cell_angle_beta   89.94918269
_cell_angle_gamma   90.08440109
_symmetry_Int_Tables_number   1
_chemical_formula_structural   V85Zn86O256
_chemical_formula_sum   'V85 Zn86 O256'
_cell_volume   4857.83023795
_cell_formula_units_Z   1
loop_
 _symmetry_equiv_pos_site_id
 _symmetry_equiv_pos_as_xyz
  1  'x, y, z'
loop_
 _atom_site_type_symbol
 _atom_site_label
 _atom_site_symmetry_multiplicity
 _atom_site_fract_x
 _atom_site_fract_y
 _atom_site_fract_z
 _atom_site_occupancy
  V  V0  1  0.24707293  0.00815773  0.75519100  1
  V  V1  1  0.62388648  0.62671745  0.50151694  1
  V  V2  1  0.37228455  0.50440728  0.85933296  1
  V  V3  1  0.25012152  0.49193247  0.24754096  1
  V  V4  1  0.62479652  0.75261060  0.37382847  1
  V  V5  1  -0.00331006  0.62349489  0.62604570  1
  V  V6  1  0.00549102  0.01486744  0.49556589  1
  V  V7  1  0.25371676  0.24769956  -0.00249569  1
  V  V8  1  0.62287618  0.00792127  0.11015763  1
  V  V9  1  0.37370480  0.62648886  0.25360039  1
  V  V10  1  0.48830190  0.74798421  0.74830795  1
  V  V11  1  0.87206674  0.27240633  0.12607486  1
  V  V12  1  0.12280969  0.49088092  0.12414255  1
  V  V13  1  -0.00193359  0.13563918  0.13451874  1
  V  V14  1  0.12267194  0.62265833  0.00444260  1
  V  V15  1  0.88383468  0.62567238  0.24885942  1
  V  V16  1  0.25302614  0.62407099  0.86148242  1
  V  V17  1  0.62324772  0.37242615  0.75065521  1
  V  V18  1  0.12228816  -0.00117832  0.13170306  1
  V  V19  1  0.62619845  0.87729396  0.24909585  1
  V  V20  1  0.62893206  0.24588192  0.39169963  1
  V  V21  1  0.86945056  0.12293427  0.75042060  1
  V  V22  1  0.87888934  0.24483970  0.62275892  1
  V  V23  1  0.87253208  0.00099870  0.87156261  1
  V  V24  1  0.74759315  0.49758519  0.24634478  1
  V  V25  1  0.49185296  0.24601930  0.74790613  1
  V  V26  1  -0.00614947  0.49308032  0.50449854  1
  V  V27  1  0.75055944  0.74666084  0.00121280  1
  V  V28  1  0.87140856  0.48761949  0.87842199  1
  V  V29  1  -0.00155723  0.75092189  0.75224713  1
  V  V30  1  0.24396071  0.13256218  0.39623759  1
  V  V31  1  0.87088608  0.62110249  0.75385849  1
  V  V32  1  0.12558745  0.74886789  0.87448484  1
  V  V33  1  0.62382863  0.74890301  0.87386710  1
  V  V34  1  0.11888123  0.62253888  0.48619890  1
  V  V35  1  0.74775734  0.62531775  0.37468101  1
  V  V36  1  0.37215898  0.00812835  0.87720776  1
  V  V37  1  0.00249182  0.24467427  0.74617741  1
  V  V38  1  0.12625943  0.12424727  -0.00167340  1
  V  V39  1  0.13124657  0.37784599  0.74997175  1
  V  V40  1  0.01041577  0.76252075  0.26286267  1
  V  V41  1  0.87238987  0.75083928  0.62572547  1
  V  V42  1  0.49957565  0.87804491  0.37458305  1
  V  V43  1  0.88820047  0.87504562  0.49297408  1
  V  V44  1  0.24629552  0.87575334  0.13425782  1
  V  V45  1  0.13347608  0.50187495  0.63077294  1
  V  V46  1  0.75294328  0.88173323  0.62686652  1
  V  V47  1  0.49586086  0.49691858  0.49650957  1
  V  V48  1  0.22131849  0.77529204  0.47512924  1
  V  V49  1  0.75066153  0.12732685  0.38652764  1
  V  V50  1  0.49162154  0.37045268  0.37591502  1
  V  V51  1  0.25372553  0.01415614  0.24936723  1
  V  V52  1  0.62477883  0.36935465  0.25118073  1
  V  V53  1  0.62600733  0.49822850  0.12368492  1
  V  V54  1  0.38106363  0.87274047  0.50653908  1
  V  V55  1  0.75064082  0.75305973  0.49973429  1
  V  V56  1  0.88591254  0.74576057  0.12549834  1
  V  V57  1  0.62828845  0.87840621  0.74829106  1
  V  V58  1  0.49511424  0.49960108  -0.00090590  1
  V  V59  1  0.49851123  0.62674882  0.12488616  1
  V  V60  1  0.37593356  0.00657732  0.37242363  1
  V  V61  1  0.62334362  0.23670434  0.87946209  1
  V  V62  1  0.87084986  0.49637488  0.37658549  1
  V  V63  1  0.75505036  0.00553027  0.24924590  1
  V  V64  1  0.37017840  0.25109226  0.60469384  1
  V  V65  1  0.62950641  0.00815341  0.62385558  1
  V  V66  1  0.87179739  0.36629441  0.49764343  1
  V  V67  1  0.49690181  0.37538204  0.87369750  1
  V  V68  1  0.12888306  0.24557186  0.87366367  1
  V  V69  1  0.37668045  0.24705603  0.13346935  1
  V  V70  1  0.37343122  0.75296861  0.12862385  1
  V  V71  1  0.48648192  0.62473913  0.62594258  1
  V  V72  1  0.50740780  0.00764193  0.49980156  1
  V  V73  1  0.49889478  0.88013916  0.87853950  1
  V  V74  1  0.12410918  0.87586385  0.74806660  1
  V  V75  1  0.49614640  0.12585552  0.11698371  1
  V  V76  1  0.87948126  0.87556993  -0.00114074  1
  V  V77  1  0.24893840  0.74933285  0.00122293  1
  V  V78  1  -0.00424025  0.49657010  0.00138470  1
  V  V79  1  0.12104849  0.01396246  0.62344988  1
  V  V80  1  0.11908946  0.26367397  0.37911098  1
  V  V81  1  0.75080253  0.87592930  0.12557035  1
  V  V82  1  0.37660160  0.88091783  0.00237821  1
  V  V83  1  0.62376161  0.50024983  0.62513677  1
  V  V84  1  0.74679726  0.36679217  0.61912117  1
  Zn  Zn85  1  0.74762461  0.62106384  0.87588896  1
  Zn  Zn86  1  0.75951411  0.25176504  0.00343299  1
  Zn  Zn87  1  0.62385632  0.62552466  -0.00093191  1
  Zn  Zn88  1  0.25022133  0.37016537  0.12504646  1
  Zn  Zn89  1  0.36916531  0.49290483  0.37657724  1
  Zn  Zn90  1  -0.00086737  0.00304284  0.00206638  1
  Zn  Zn91  1  0.25248226  0.87473430  0.62843296  1
  Zn  Zn92  1  0.00159384  0.87681305  0.87625875  1
  Zn  Zn93  1  0.23833451  0.62276325  0.37197114  1
  Zn  Zn94  1  0.87820567  0.13953092  0.25254512  1
  Zn  Zn95  1  -0.00242858  0.37048211  0.87720266  1
  Zn  Zn96  1  0.25045826  0.36700109  0.61428988  1
  Zn  Zn97  1  -0.00879228  0.35745310  0.33973789  1
  Zn  Zn98  1  0.74775292  0.49718909  0.75189992  1
  Zn  Zn99  1  0.88500430  -0.00000749  0.36915568  1
  Zn  Zn100  1  0.37119391  0.12715366  0.74980364  1
  Zn  Zn101  1  0.50101437  0.12594800  0.62213495  1
  Zn  Zn102  1  0.49696412  0.75363331  0.25001596  1
  Zn  Zn103  1  0.37520631  0.37230067  0.00015359  1
  Zn  Zn104  1  0.36182043  0.74431685  0.62344206  1
  Zn  Zn105  1  0.50219009  0.23855014  0.25101120  1
  Zn  Zn106  1  0.74526159  0.11638115  0.88167328  1
  Zn  Zn107  1  0.18522458  0.19169967  0.19142114  1
  Zn  Zn108  1  0.19226075  0.18905261  0.68512875  1
  Zn  Zn109  1  0.18479300  0.68295500  0.18840490  1
  Zn  Zn110  1  0.18745159  0.68983152  0.67629760  1
  Zn  Zn111  1  0.69084897  0.18572252  0.18512531  1
  Zn  Zn112  1  0.68996852  0.18880277  0.69209817  1
  Zn  Zn113  1  0.68917396  0.68663053  0.18686025  1
  Zn  Zn114  1  0.68446937  0.68928425  0.68784029  1
  Zn  Zn115  1  0.30864532  0.30624534  0.31246904  1
  Zn  Zn116  1  0.30940661  0.31576877  0.81313487  1
  Zn  Zn117  1  0.29367812  0.81880055  0.32456599  1
  Zn  Zn118  1  0.30957634  0.81668233  0.81372999  1
  Zn  Zn119  1  0.80997344  0.30927452  0.30669737  1
  Zn  Zn120  1  0.80797088  0.30788525  0.80891335  1
  Zn  Zn121  1  0.81636386  0.81388488  0.31217856  1
  Zn  Zn122  1  0.81143421  0.81326118  0.81334137  1
  Zn  Zn123  1  0.18642980  0.43478281  0.43971680  1
  Zn  Zn124  1  0.19013719  0.43569053  0.93475390  1
  Zn  Zn125  1  0.18874580  0.94334375  0.43824669  1
  Zn  Zn126  1  0.18835782  0.93772686  0.94055844  1
  Zn  Zn127  1  0.68363499  0.43430522  0.43721404  1
  Zn  Zn128  1  0.68984644  0.43075476  0.93905458  1
  Zn  Zn129  1  0.69261123  0.94089621  0.43790740  1
  Zn  Zn130  1  0.69349714  0.93376547  0.93507749  1
  Zn  Zn131  1  0.31196060  0.06515461  0.06171837  1
  Zn  Zn132  1  0.31644840  0.05854082  0.56830230  1
  Zn  Zn133  1  0.31072226  0.56318084  0.06023259  1
  Zn  Zn134  1  0.29643792  0.53990980  0.55078689  1
  Zn  Zn135  1  0.81160781  0.06971185  0.05823625  1
  Zn  Zn136  1  0.81939649  0.06070052  0.56255595  1
  Zn  Zn137  1  0.81304830  0.56173832  0.06325578  1
  Zn  Zn138  1  0.80804690  0.55822911  0.56502671  1
  Zn  Zn139  1  0.43739091  0.43252942  0.18709792  1
  Zn  Zn140  1  0.43607410  0.43304794  0.68230262  1
  Zn  Zn141  1  0.43935931  0.94371609  0.18854521  1
  Zn  Zn142  1  0.43982805  0.93952840  0.69008820  1
  Zn  Zn143  1  0.93865254  0.44591665  0.18242122  1
  Zn  Zn144  1  0.93857134  0.43117743  0.69092236  1
  Zn  Zn145  1  0.93987103  0.93694047  0.18652867  1
  Zn  Zn146  1  0.94091954  0.94095048  0.68541448  1
  Zn  Zn147  1  0.06945971  0.06442045  0.31355086  1
  Zn  Zn148  1  0.05603714  0.06381323  0.81474172  1
  Zn  Zn149  1  0.05288483  0.53512192  0.30498539  1
  Zn  Zn150  1  0.06023245  0.56127180  0.81693388  1
  Zn  Zn151  1  0.56664395  0.06488099  0.30711344  1
  Zn  Zn152  1  0.55766765  0.05933411  0.80693056  1
  Zn  Zn153  1  0.55994464  0.56197625  0.31194268  1
  Zn  Zn154  1  0.55913178  0.56379565  0.81001930  1
  Zn  Zn155  1  0.44015259  0.18377148  0.43267769  1
  Zn  Zn156  1  0.44575765  0.18519492  0.94399509  1
  Zn  Zn157  1  0.43556641  0.68815039  0.43561062  1
  Zn  Zn158  1  0.43399161  0.68896243  0.93806118  1
  Zn  Zn159  1  0.93826538  0.18742330  0.43402373  1
  Zn  Zn160  1  0.93838863  0.18834715  0.94255124  1
  Zn  Zn161  1  0.93758382  0.68634456  0.43515612  1
  Zn  Zn162  1  0.93850587  0.68225760  0.93638043  1
  Zn  Zn163  1  0.06068886  0.31293942  0.06023427  1
  Zn  Zn164  1  0.06613605  0.30784637  0.55851231  1
  Zn  Zn165  1  0.06362202  0.81128627  0.06701998  1
  Zn  Zn166  1  0.06154804  0.81322294  0.56673857  1
  Zn  Zn167  1  0.59337307  0.32544018  0.04652279  1
  Zn  Zn168  1  0.55626895  0.31218059  0.56289286  1
  Zn  Zn169  1  0.56196696  0.81498122  0.06254942  1
  Zn  Zn170  1  0.56091486  0.81397705  0.56379832  1
  O  O171  1  0.11596783  0.12182480  0.12239657  1
  O  O172  1  0.12437936  0.11236597  0.63030956  1
  O  O173  1  0.13392053  0.61629014  0.10820650  1
  O  O174  1  0.10621579  0.62190488  0.62321130  1
  O  O175  1  0.62241600  0.11272592  0.12318699  1
  O  O176  1  0.62907055  0.11088400  0.63268364  1
  O  O177  1  0.61581788  0.61672608  0.12554203  1
  O  O178  1  0.62002704  0.61902637  0.61956828  1
  O  O179  1  0.38788241  0.37320343  0.36932046  1
  O  O180  1  0.37974184  0.38466792  0.87727856  1
  O  O181  1  0.37951533  0.88676197  0.38378618  1
  O  O182  1  0.38162701  0.87984216  0.88312789  1
  O  O183  1  0.87592760  0.37675355  0.38152385  1
  O  O184  1  0.87220261  0.38405071  0.86945640  1
  O  O185  1  0.86756298  0.88152204  0.38895651  1
  O  O186  1  0.87708459  0.87899212  0.88233268  1
  O  O187  1  0.25681653  0.00869294  0.36866660  1
  O  O188  1  0.25936017  -0.00717982  0.86764895  1
  O  O189  1  0.25093155  0.50334650  0.35975579  1
  O  O190  1  0.26016038  0.51045041  0.87770252  1
  O  O191  1  0.75061418  0.01145214  0.36619716  1
  O  O192  1  0.76591036  -0.00284606  0.87505644  1
  O  O193  1  0.75201171  0.50502676  0.36956479  1
  O  O194  1  0.75401194  0.50044692  0.87503361  1
  O  O195  1  0.24641196  0.49590244  0.12992072  1
  O  O196  1  0.22845388  0.52762693  0.64677176  1
  O  O197  1  0.24567720  0.99613612  0.13166689  1
  O  O198  1  0.23704024  0.99783338  0.63364913  1
  O  O199  1  0.73794694  0.50632783  0.13323082  1
  O  O200  1  0.74140675  0.48713058  0.62839095  1
  O  O201  1  0.74217951  0.99661897  0.12996246  1
  O  O202  1  0.74650515  0.98877511  0.62002747  1
  O  O203  1  0.01164868  0.43271114  0.26344417  1
  O  O204  1  0.00743202  0.36081951  0.75286745  1
  O  O205  1  -0.00081422  0.86218779  0.24870875  1
  O  O206  1  0.00630905  0.86875751  0.75170020  1
  O  O207  1  0.50883849  0.37223405  0.25967260  1
  O  O208  1  0.50779379  0.36796067  0.75172884  1
  O  O209  1  0.50982738  0.87699850  0.25574286  1
  O  O210  1  0.50760623  0.86669752  0.75684487  1
  O  O211  1  0.50851885  0.12377726  0.23091581  1
  O  O212  1  0.49463000  0.13258710  0.74403884  1
  O  O213  1  0.49544537  0.62615353  0.23730759  1
  O  O214  1  0.50430089  0.63594306  0.73875369  1
  O  O215  1  1.00140231  0.12083475  0.23755981  1
  O  O216  1  0.99086678  0.13809418  0.75287573  1
  O  O217  1  0.98503761  0.62612767  0.25566441  1
  O  O218  1  0.98774706  0.62831171  0.74552972  1
  O  O219  1  0.36733049  0.24696811  0.00448266  1
  O  O220  1  0.38167903  0.25037943  0.50669745  1
  O  O221  1  0.36881652  0.75980274  0.00729950  1
  O  O222  1  0.39273988  0.76767791  0.50608476  1
  O  O223  1  0.88100712  0.25288080  0.01875143  1
  O  O224  1  0.88025275  0.25855428  0.50654136  1
  O  O225  1  0.87045297  0.75157160  0.00599333  1
  O  O226  1  0.87153489  0.75702183  0.50607676  1
  O  O227  1  0.12909354  0.25187517  0.48297078  1
  O  O228  1  0.13012741  0.24431250  0.99312436  1
  O  O229  1  0.12114897  0.73829249  0.50146497  1
  O  O230  1  0.12767564  0.74249354  0.99547316  1
  O  O231  1  0.62392422  0.25206513  0.49083278  1
  O  O232  1  0.60227458  0.23346641  0.97713735  1
  O  O233  1  0.63054742  0.74738445  0.49487440  1
  O  O234  1  0.63253121  0.75135287  0.99257381  1
  O  O235  1  0.49482280  0.23656309  0.12212213  1
  O  O236  1  0.49020643  0.24704114  0.63055831  1
  O  O237  1  0.49438544  0.74337869  0.12693237  1
  O  O238  1  0.50126694  0.74153961  0.63375720  1
  O  O239  1  0.99558872  0.24121053  0.12544912  1
  O  O240  1  0.99058288  0.25504910  0.63257434  1
  O  O241  1  0.98867706  0.74958086  0.13153522  1
  O  O242  1  0.99120129  0.74230831  0.63203822  1
  O  O243  1  0.01136444  0.25107076  0.37256304  1
  O  O244  1  0.01147363  0.25091294  0.87007409  1
  O  O245  1  -0.00535366  0.75110375  0.36208268  1
  O  O246  1  0.00691593  0.74993252  0.86846369  1
  O  O247  1  0.50997641  0.25276743  0.37151852  1
  O  O248  1  0.50380331  0.25337525  0.86517244  1
  O  O249  1  0.50809340  0.75865089  0.37147327  1
  O  O250  1  0.50450045  0.75682390  0.86871799  1
  O  O251  1  0.25042169  0.11571548  0.49337433  1
  O  O252  1  0.23683474  0.13526934  1.00596112  1
  O  O253  1  0.22700753  0.62043892  0.49684674  1
  O  O254  1  0.24404848  0.63307338  0.99235506  1
  O  O255  1  0.75434702  0.11784065  0.48509946  1
  O  O256  1  0.75322392  0.13662088  0.99291474  1
  O  O257  1  0.74404361  0.63128029  0.49630290  1
  O  O258  1  0.74672974  0.63663036  0.99929237  1
  O  O259  1  0.25119524  0.36015753  0.00075359  1
  O  O260  1  0.25775307  0.43210924  0.52298436  1
  O  O261  1  0.25656143  0.86856150  0.01017420  1
  O  O262  1  0.26494788  0.87665781  0.50880963  1
  O  O263  1  0.70418788  0.35157409  0.01351771  1
  O  O264  1  0.75772711  0.37743058  0.50766494  1
  O  O265  1  0.76106901  0.86355239  0.00325724  1
  O  O266  1  0.75809266  0.87041184  0.50815904  1
  O  O267  1  0.14487100  0.51667110  0.23456905  1
  O  O268  1  0.10799631  0.48778631  0.74234624  1
  O  O269  1  0.13520015  1.00199457  0.23901055  1
  O  O270  1  0.12635426  0.99580349  0.74484149  1
  O  O271  1  0.62967409  0.49498005  0.24499973  1
  O  O272  1  0.62299618  0.49036056  0.74418566  1
  O  O273  1  0.63683707  0.99022060  0.24371194  1
  O  O274  1  0.62082716  0.98523794  0.74201307  1
  O  O275  1  0.36763212  -0.00447618  0.26147629  1
  O  O276  1  0.36552595  -0.00016596  0.75855020  1
  O  O277  1  0.36449410  0.50706456  0.24526716  1
  O  O278  1  0.38389280  0.49933226  0.76030686  1
  O  O279  1  0.86350026  -0.00365378  0.24995564  1
  O  O280  1  0.88346766  0.01034025  0.75670481  1
  O  O281  1  0.86226234  0.50898550  0.25317186  1
  O  O282  1  0.87232644  0.50504783  0.75734693  1
  O  O283  1  0.11871402  0.36914587  0.37915255  1
  O  O284  1  0.12410735  0.36683013  0.86638317  1
  O  O285  1  0.18548861  0.83908772  0.39283758  1
  O  O286  1  0.12407697  0.86945614  0.86598406  1
  O  O287  1  0.61958519  0.36458279  0.36838557  1
  O  O288  1  0.61552974  0.36606195  0.86371737  1
  O  O289  1  0.62297288  0.87338413  0.36690825  1
  O  O290  1  0.61956917  0.86775110  0.86966584  1
  O  O291  1  0.38674633  0.12900804  0.12206342  1
  O  O292  1  0.37732841  0.13734743  0.62720076  1
  O  O293  1  0.38039414  0.63117534  0.13171231  1
  O  O294  1  0.38533630  0.62495240  0.61561466  1
  O  O295  1  0.89254227  0.12202712  0.12823998  1
  O  O296  1  0.86944239  0.13726778  0.63183676  1
  O  O297  1  0.86649696  0.63518914  0.13625241  1
  O  O298  1  0.87979266  0.62760936  0.63105098  1
  O  O299  1  0.25845581  0.24853170  0.11842767  1
  O  O300  1  0.26423893  0.24953557  0.62121779  1
  O  O301  1  0.25285806  0.75774493  0.12230595  1
  O  O302  1  0.24636167  0.75573720  0.60280273  1
  O  O303  1  0.77008235  0.24802122  0.12925118  1
  O  O304  1  0.75692027  0.26071338  0.62922774  1
  O  O305  1  0.75570485  0.75604919  0.11782581  1
  O  O306  1  0.75407354  0.75855442  0.61966869  1
  O  O307  1  0.25538623  0.23585412  0.38347826  1
  O  O308  1  0.23808910  0.25054760  0.88086697  1
  O  O309  1  0.28204491  0.72894327  0.39932628  1
  O  O310  1  0.24452338  0.74709875  0.88261992  1
  O  O311  1  0.74447488  0.23667432  0.37172131  1
  O  O312  1  0.72993527  0.25172109  0.87287854  1
  O  O313  1  0.74468897  0.74601274  0.38009836  1
  O  O314  1  0.74109759  0.74920468  0.88267442  1
  O  O315  1  0.01162331  0.12505237  0.01283422  1
  O  O316  1  -0.00280000  0.11296739  0.50219804  1
  O  O317  1  0.01256611  0.61289149  -0.00960568  1
  O  O318  1  -0.00116845  0.62066412  0.51064019  1
  O  O319  1  0.50047205  0.11386878  0.01639588  1
  O  O320  1  0.50123401  0.11165481  0.50065419  1
  O  O321  1  0.49971585  0.62170973  0.01045219  1
  O  O322  1  0.50920508  0.62264008  0.50588143  1
  O  O323  1  0.50622663  0.38537339  0.48978228  1
  O  O324  1  0.50186769  0.38442825  0.99123502  1
  O  O325  1  0.49953161  0.88614238  0.49362443  1
  O  O326  1  0.48969697  0.86933547  0.99063305  1
  O  O327  1  0.98753752  0.38322363  0.50732744  1
  O  O328  1  1.00571432  0.39084339  0.99517456  1
  O  O329  1  0.99122813  0.87942845  0.50491853  1
  O  O330  1  0.98825618  0.87238289  1.00104705  1
  O  O331  1  0.50354623  0.48808097  0.38041417  1
  O  O332  1  0.49438522  0.49841733  0.88197316  1
  O  O333  1  0.49631105  0.99825341  0.37931468  1
  O  O334  1  0.49206606  0.98576789  0.86870763  1
  O  O335  1  0.98331936  0.51081354  0.39812982  1
  O  O336  1  0.98809671  0.49639498  0.88071134  1
  O  O337  1  1.00554562  1.00239221  0.38971279  1
  O  O338  1  0.98931472  0.99606106  0.88209296  1
  O  O339  1  0.00880469  0.00712035  0.12334187  1
  O  O340  1  0.01406594  -0.00194397  0.61589650  1
  O  O341  1  0.01063095  0.50679406  0.11251432  1
  O  O342  1  -0.00338915  0.50716690  0.62011150  1
  O  O343  1  0.51629041  0.00485830  0.12772889  1
  O  O344  1  0.51097739  0.00043869  0.61773773  1
  O  O345  1  0.50199253  0.50819556  0.11869959  1
  O  O346  1  0.50451019  0.50519122  0.61756638  1
  O  O347  1  0.25530806  0.38869195  0.24739715  1
  O  O348  1  0.23485493  0.37086049  0.74322381  1
  O  O349  1  0.25602950  0.88359517  0.23698206  1
  O  O350  1  0.24045089  0.88396648  0.74870217  1
  O  O351  1  0.74035413  0.38961416  0.25658914  1
  O  O352  1  0.73592365  0.37351761  0.74245976  1
  O  O353  1  0.74479433  0.88059621  0.24483068  1
  O  O354  1  0.74103079  0.86777995  0.73953665  1
  O  O355  1  0.25245183  0.11534759  0.25230770  1
  O  O356  1  0.25044494  0.11251097  0.75131312  1
  O  O357  1  0.25987150  0.62010454  0.25201551  1
  O  O358  1  0.24507379  0.64018966  0.76354895  1
  O  O359  1  0.75498688  0.11735999  0.25467854  1
  O  O360  1  0.76582813  0.13101655  0.75827231  1
  O  O361  1  0.75235227  0.61716234  0.25693119  1
  O  O362  1  0.75997094  0.62331375  0.74911073  1
  O  O363  1  0.36636647  0.11260927  0.38011752  1
  O  O364  1  0.38259173  0.11012979  0.87756123  1
  O  O365  1  0.38896276  0.61677853  0.35756913  1
  O  O366  1  0.36586622  0.61810869  0.87781524  1
  O  O367  1  0.86556786  0.12280610  0.37009629  1
  O  O368  1  0.87830754  0.11743674  0.86899103  1
  O  O369  1  0.86436427  0.61924591  0.36981264  1
  O  O370  1  0.87077646  0.61640131  0.86648642  1
  O  O371  1  0.12775412  0.38692681  0.12131024  1
  O  O372  1  0.12625070  0.38429811  0.63024560  1
  O  O373  1  0.13497459  0.88585228  0.11834177  1
  O  O374  1  0.12418745  0.88153139  0.63854129  1
  O  O375  1  0.61017519  0.39224860  0.13932967  1
  O  O376  1  0.62880389  0.37723013  0.62998191  1
  O  O377  1  0.62972525  0.88209429  0.13157565  1
  O  O378  1  0.63336060  0.87968061  0.63168248  1
  O  O379  1  0.14214986  0.24921013  0.27810856  1
  O  O380  1  0.12082999  0.25211752  0.75484623  1
  O  O381  1  0.10826035  0.74298864  0.24593538  1
  O  O382  1  0.11947174  0.75773670  0.75253336  1
  O  O383  1  0.62816646  0.26182649  0.24976973  1
  O  O384  1  0.61188728  0.25512560  0.75225600  1
  O  O385  1  0.62632633  0.76291271  0.25251752  1
  O  O386  1  0.61768772  0.75888995  0.75692319  1
  O  O387  1  0.37820578  0.25097819  0.23685983  1
  O  O388  1  0.38430449  0.24929162  0.75381692  1
  O  O389  1  0.37371252  0.74428249  0.24481408  1
  O  O390  1  0.38492753  0.75701233  0.74631253  1
  O  O391  1  0.88321972  0.25615359  0.23626641  1
  O  O392  1  0.88244293  0.24579667  0.74313416  1
  O  O393  1  0.87892353  0.74399355  0.24295347  1
  O  O394  1  0.87786433  0.74199814  0.74589501  1
  O  O395  1  0.39401087  0.51436211  0.49201293  1
  O  O396  1  0.38642326  0.50010023  0.99628343  1
  O  O397  1  0.38574448  0.99172562  0.49684340  1
  O  O398  1  0.36678397  0.98788615  0.99377530  1
  O  O399  1  0.87460658  0.48809721  0.49922817  1
  O  O400  1  0.88215817  0.50629587  0.99105007  1
  O  O401  1  0.89212416  0.99328265  0.50147028  1
  O  O402  1  0.87593102  0.98940145  0.99587449  1
  O  O403  1  0.12651750  0.00806864  0.01080666  1
  O  O404  1  0.11631403  -0.00509966  0.51212460  1
  O  O405  1  0.12201085  0.50518947  0.00399809  1
  O  O406  1  0.10879842  0.50733856  0.51172670  1
  O  O407  1  0.63038050  -0.00938216  0.01280541  1
  O  O408  1  0.61945868  -0.00755910  0.51122015  1
  O  O409  1  0.61294844  0.50481323  0.00716765  1
  O  O410  1  0.61747731  0.50672059  0.50463748  1
  O  O411  1  0.37604819  0.36219982  0.11927051  1
  O  O412  1  0.37456785  0.35525025  0.62788946  1
  O  O413  1  0.37139554  0.87362130  0.11889659  1
  O  O414  1  0.37613421  0.87488667  0.61952709  1
  O  O415  1  0.87583505  0.37205078  0.12459442  1
  O  O416  1  0.86582105  0.36592969  0.62009616  1
  O  O417  1  0.86953111  0.86725148  0.11749546  1
  O  O418  1  0.86869236  0.87147203  0.62056747  1
  O  O419  1  0.14192628  0.12560500  0.37839044  1
  O  O420  1  0.11965463  0.13134862  0.88630465  1
  O  O421  1  0.11444016  0.61289276  0.38457924  1
  O  O422  1  0.13248527  0.62875425  0.88164261  1
  O  O423  1  0.63920665  0.13273068  0.37034841  1
  O  O424  1  0.62587847  0.13391778  0.86046129  1
  O  O425  1  0.62773295  0.63216266  0.37975874  1
  O  O426  1  0.62456199  0.63784156  0.87487701  1
