# generated using pymatgen
data_V85Zn86O256
_symmetry_space_group_name_H-M   'P 1'
_cell_length_a   16.94498838
_cell_length_b   16.93754747
_cell_length_c   16.93860048
_cell_angle_alpha   90.02554987
_cell_angle_beta   89.97493872
_cell_angle_gamma   90.01400274
_symmetry_Int_Tables_number   1
_chemical_formula_structural   V85Zn86O256
_chemical_formula_sum   'V85 Zn86 O256'
_cell_volume   4861.48810743
_cell_formula_units_Z   1
loop_
 _symmetry_equiv_pos_site_id
 _symmetry_equiv_pos_as_xyz
  1  'x, y, z'
loop_
 _atom_site_type_symbol
 _atom_site_label
 _atom_site_symmetry_multiplicity
 _atom_site_fract_x
 _atom_site_fract_y
 _atom_site_fract_z
 _atom_site_occupancy
  V  V0  1  0.24978308  0.37644343  0.62702986  1
  V  V1  1  0.38375337  0.62827384  0.24942829  1
  V  V2  1  0.75396553  0.25608391  0.49965641  1
  V  V3  1  0.62521255  0.24543001  0.38286507  1
  V  V4  1  -0.00403341  0.87584716  0.37021162  1
  V  V5  1  0.86798706  0.37818273  -0.00757488  1
  V  V6  1  -0.00670411  0.00047873  0.50153457  1
  V  V7  1  0.11942839  0.25216794  0.37192863  1
  V  V8  1  0.49959484  0.12415135  0.12537069  1
  V  V9  1  -0.00828729  0.12496948  0.12795563  1
  V  V10  1  0.12156262  0.51072768  0.61455741  1
  V  V11  1  0.50039172  0.74672292  0.75166406  1
  V  V12  1  0.74982790  0.00095595  0.74688624  1
  V  V13  1  0.37562881  0.87416422  0.49898647  1
  V  V14  1  0.75378493  0.87537726  0.12513054  1
  V  V15  1  0.37590030  0.00086296  0.87499999  1
  V  V16  1  0.51017422  0.12586813  0.62293719  1
  V  V17  1  0.69989790  0.56211981  0.80748731  1
  V  V18  1  -0.00043364  -0.00330744  0.00073422  1
  V  V19  1  0.49458459  0.50310104  0.01151731  1
  V  V20  1  -0.00033448  0.25182171  0.24807071  1
  V  V21  1  0.75152253  0.00683703  0.25249497  1
  V  V22  1  0.75229633  0.12946119  0.38092107  1
  V  V23  1  0.50196599  0.37545430  0.37365691  1
  V  V24  1  0.50741501  0.00292191  0.49740458  1
  V  V25  1  0.37301361  0.74436095  0.63051697  1
  V  V26  1  0.24950161  0.12965006  0.87389040  1
  V  V27  1  -0.06836007  0.42664064  0.44969576  1
  V  V28  1  0.74907489  0.12528392  0.87697162  1
  V  V29  1  0.90116608  0.62520452  0.75026199  1
  V  V30  1  0.49816096  0.62555346  0.62428968  1
  V  V31  1  0.63303321  0.50270874  0.12907561  1
  V  V32  1  0.62631458  0.63083678  0.48743915  1
  V  V33  1  0.12186088  0.87135882  0.74911171  1
  V  V34  1  0.24911832  0.24973748  0.49982938  1
  V  V35  1  0.49828569  0.24967385  0.25143106  1
  V  V36  1  0.50315593  -0.00060432  -0.00062060  1
  V  V37  1  0.25009586  0.87375235  0.62460496  1
  V  V38  1  0.75399896  0.37964818  0.62564081  1
  V  V39  1  0.88127318  0.12912891  0.75258810  1
  V  V40  1  0.37740244  0.24830440  0.62584991  1
  V  V41  1  0.11050839  0.25364279  0.86969994  1
  V  V42  1  0.37683534  -0.00284796  0.37454099  1
  V  V43  1  0.24339716  0.61809827  0.37411816  1
  V  V44  1  0.36638213  0.24819415  0.12414778  1
  V  V45  1  0.62689656  0.87224908  0.74283728  1
  V  V46  1  0.12363295  -0.00188200  0.12568880  1
  V  V47  1  0.37335950  0.50014696  0.36683043  1
  V  V48  1  0.87727640  0.86448916  0.00153274  1
  V  V49  1  0.87076305  0.25758679  0.12466142  1
  V  V50  1  0.39025790  0.74881007  0.12939960  1
  V  V51  1  0.63819435  0.37133040  0.24521720  1
  V  V52  1  0.62788146  0.37358031  0.75570100  1
  V  V53  1  0.24352887  0.74425861  0.50007179  1
  V  V54  1  0.50268700  0.87033535  0.87363117  1
  V  V55  1  0.37518322  0.12245904  0.25050700  1
  V  V56  1  0.88479751  0.75425893  0.62330927  1
  V  V57  1  0.12218526  0.12620554  0.50128594  1
  V  V58  1  0.62353205  0.86245532  0.25114424  1
  V  V59  1  0.00062629  0.86922203  0.87161198  1
  V  V60  1  0.12506900  0.00086840  0.62401352  1
  V  V61  1  0.88262803  0.25412951  0.62971698  1
  V  V62  1  0.24990728  -0.00030476  0.74988103  1
  V  V63  1  0.25816361  0.50332989  0.74947253  1
  V  V64  1  0.50187192  0.50121852  0.49897070  1
  V  V65  1  0.12854360  0.39021394  0.24948547  1
  V  V66  1  0.11964437  0.74925329  0.36968999  1
  V  V67  1  0.24710360  0.39395823  0.12608144  1
  V  V68  1  0.25022138  0.74925898  0.01100860  1
  V  V69  1  0.24925848  0.12350424  0.37597269  1
  V  V70  1  0.87374075  0.00342643  0.37725858  1
  V  V71  1  0.12351796  0.12682884  -0.00204650  1
  V  V72  1  0.24786695  -0.00373496  0.25041153  1
  V  V73  1  0.00712575  0.49279546  -0.00239941  1
  V  V74  1  0.12141777  0.62269471  0.01202290  1
  V  V75  1  0.62564958  0.12333089  0.00193106  1
  V  V76  1  0.37576926  0.37614075  0.49873887  1
  V  V77  1  0.11323466  0.37667969  0.75151365  1
  V  V78  1  0.25996142  0.62624728  0.87357302  1
  V  V79  1  0.75863844  0.62503730  0.36209749  1
  V  V80  1  0.12621795  0.74564463  0.87224308  1
  V  V81  1  0.63253708  0.50432913  0.62256508  1
  V  V82  1  0.88158137  0.74287735  0.14769619  1
  V  V83  1  0.75044012  0.75783910  0.49484041  1
  V  V84  1  0.50253394  0.86069661  0.37116801  1
  Zn  Zn85  1  -0.01097482  0.61584517  0.15344540  1
  Zn  Zn86  1  0.87531176  -0.00283433  0.87522603  1
  Zn  Zn87  1  0.00153918  0.12817609  0.63094149  1
  Zn  Zn88  1  0.62818229  0.62268945  -0.00823219  1
  Zn  Zn89  1  0.74681540  0.25203616  0.00618188  1
  Zn  Zn90  1  0.63148940  0.00517802  0.61718924  1
  Zn  Zn91  1  0.25122820  0.87514945  0.12364835  1
  Zn  Zn92  1  0.75969860  0.88042941  0.61774858  1
  Zn  Zn93  1  0.87729568  0.50263412  0.86762193  1
  Zn  Zn94  1  0.24700705  0.25436681  -0.00115951  1
  Zn  Zn95  1  0.74806568  0.72958586  -0.02504726  1
  Zn  Zn96  1  0.50221747  0.24973465  0.75255808  1
  Zn  Zn97  1  0.37422075  0.49566566  0.87624116  1
  Zn  Zn98  1  0.37679494  0.87180951  0.00124088  1
  Zn  Zn99  1  0.49647495  0.37230199  0.87843369  1
  Zn  Zn100  1  -0.00301801  0.61802083  0.57838406  1
  Zn  Zn101  1  0.77833471  0.52337010  0.23974625  1
  Zn  Zn102  1  0.62207771  0.25096589  0.87857653  1
  Zn  Zn103  1  0.62591515  0.00047207  0.12888402  1
  Zn  Zn104  1  0.37801778  0.12594170  0.74909864  1
  Zn  Zn105  1  0.12060820  0.86634449  0.24530576  1
  Zn  Zn106  1  0.37428795  0.37341684  -0.00088015  1
  Zn  Zn107  1  0.18398691  0.18309648  0.18823078  1
  Zn  Zn108  1  0.18694078  0.19018805  0.69016105  1
  Zn  Zn109  1  0.14241325  0.62650656  0.22832344  1
  Zn  Zn110  1  0.18444159  0.68384737  0.68962399  1
  Zn  Zn111  1  0.68901620  0.18710291  0.19221714  1
  Zn  Zn112  1  0.69099538  0.19123836  0.68848497  1
  Zn  Zn113  1  0.67869463  0.69717439  0.15539936  1
  Zn  Zn114  1  0.68680591  0.69529645  0.67697200  1
  Zn  Zn115  1  0.30843821  0.31330637  0.31026749  1
  Zn  Zn116  1  0.31098235  0.31482566  0.81139082  1
  Zn  Zn117  1  0.30945064  0.80939493  0.31066400  1
  Zn  Zn118  1  0.31280615  0.81210428  0.81414300  1
  Zn  Zn119  1  0.84614702  0.36344605  0.29716863  1
  Zn  Zn120  1  0.80940721  0.31273046  0.81364900  1
  Zn  Zn121  1  0.80946938  0.81681523  0.31696591  1
  Zn  Zn122  1  0.81473548  0.80449261  0.80617485  1
  Zn  Zn123  1  0.18468872  0.43510467  0.43459773  1
  Zn  Zn124  1  0.18842710  0.43749678  0.93616988  1
  Zn  Zn125  1  0.18392062  0.93404717  0.43763416  1
  Zn  Zn126  1  0.18850562  0.93547001  0.93858782  1
  Zn  Zn127  1  0.69637138  0.44023937  0.43438607  1
  Zn  Zn128  1  0.68762210  0.43833293  0.94416937  1
  Zn  Zn129  1  0.68500809  0.93557418  0.43174969  1
  Zn  Zn130  1  0.70649875  0.90567388  0.91610126  1
  Zn  Zn131  1  0.31162553  0.06226230  0.05977790  1
  Zn  Zn132  1  0.31584627  0.06276399  0.56201703  1
  Zn  Zn133  1  0.31334824  0.57067267  0.06438407  1
  Zn  Zn134  1  0.31153841  0.56192451  0.56077853  1
  Zn  Zn135  1  0.81389689  0.05850914  0.06113133  1
  Zn  Zn136  1  0.81269609  0.07037351  0.56189183  1
  Zn  Zn137  1  0.81319101  0.56554747  0.05884367  1
  Zn  Zn138  1  0.81498863  0.56880682  0.55982949  1
  Zn  Zn139  1  0.43652473  0.43486573  0.18769643  1
  Zn  Zn140  1  0.44079086  0.43628947  0.68735897  1
  Zn  Zn141  1  0.43900849  0.93289317  0.18656654  1
  Zn  Zn142  1  0.43842923  0.93783446  0.68565250  1
  Zn  Zn143  1  0.94778868  0.43883532  0.17882054  1
  Zn  Zn144  1  0.93848543  0.44433940  0.67802051  1
  Zn  Zn145  1  0.93391723  0.93928746  0.19150407  1
  Zn  Zn146  1  0.93752507  0.93880964  0.68853523  1
  Zn  Zn147  1  0.05954584  0.06544498  0.31116307  1
  Zn  Zn148  1  0.06279665  0.05875781  0.81442531  1
  Zn  Zn149  1  0.02115633  0.57278833  0.36227667  1
  Zn  Zn150  1  0.06813185  0.55788479  0.81744762  1
  Zn  Zn151  1  0.56596484  0.05987337  0.31331092  1
  Zn  Zn152  1  0.56450261  0.06284796  0.81013845  1
  Zn  Zn153  1  0.56655561  0.56171589  0.30715192  1
  Zn  Zn154  1  0.53583720  0.56096182  0.81491441  1
  Zn  Zn155  1  0.43849827  0.18588830  0.43939693  1
  Zn  Zn156  1  0.43773342  0.19052131  0.93774953  1
  Zn  Zn157  1  0.43161189  0.68487333  0.44070467  1
  Zn  Zn158  1  0.44078954  0.68482188  0.94279425  1
  Zn  Zn159  1  0.93340665  0.19523897  0.43650915  1
  Zn  Zn160  1  0.93470719  0.18769023  0.93970187  1
  Zn  Zn161  1  0.92707856  0.69593349  0.43142878  1
  Zn  Zn162  1  0.94068706  0.68362848  0.93629700  1
  Zn  Zn163  1  0.06407331  0.31546209  0.06222527  1
  Zn  Zn164  1  0.06395211  0.31405397  0.56690093  1
  Zn  Zn165  1  0.06096423  0.80578404  0.06509615  1
  Zn  Zn166  1  0.06051035  0.81597344  0.55545795  1
  Zn  Zn167  1  0.55938965  0.31343506  0.06425395  1
  Zn  Zn168  1  0.56617002  0.31517696  0.56391967  1
  Zn  Zn169  1  0.57039492  0.81239119  0.05879626  1
  Zn  Zn170  1  0.56334113  0.81374790  0.56134837  1
  O  O171  1  0.11685328  0.11477156  0.11854985  1
  O  O172  1  0.12328933  0.12138971  0.62049671  1
  O  O173  1  0.12911982  0.62953122  0.11218510  1
  O  O174  1  0.12636633  0.61444869  0.62023161  1
  O  O175  1  0.61840457  0.12357904  0.12106077  1
  O  O176  1  0.61373816  0.12657736  0.62637061  1
  O  O177  1  0.61663143  0.60081038  0.14195215  1
  O  O178  1  0.61986336  0.61901523  0.61576235  1
  O  O179  1  0.37755214  0.38125503  0.37834560  1
  O  O180  1  0.37330252  0.37691577  0.88089299  1
  O  O181  1  0.38072566  0.87956700  0.37680399  1
  O  O182  1  0.38551084  0.88288747  0.87558699  1
  O  O183  1  0.87635466  0.35118842  0.40366365  1
  O  O184  1  0.87453350  0.37404306  0.88765270  1
  O  O185  1  0.88107947  0.89112182  0.37477220  1
  O  O186  1  0.88709572  0.87478850  0.88027349  1
  O  O187  1  0.25373763  0.00356652  0.36901080  1
  O  O188  1  0.25584232  0.00784260  0.87166914  1
  O  O189  1  0.25843949  0.51090568  0.38558502  1
  O  O190  1  0.25115822  0.50857038  0.86762357  1
  O  O191  1  0.75509604  0.00724784  0.37390292  1
  O  O192  1  0.75166312  0.00596460  0.86599407  1
  O  O193  1  0.74186610  0.52038997  0.36743513  1
  O  O194  1  0.75484407  0.49751547  0.86551667  1
  O  O195  1  0.25310160  0.49199617  0.12634347  1
  O  O196  1  0.24453475  0.49720883  0.63139919  1
  O  O197  1  0.24199176  0.99963787  0.13141331  1
  O  O198  1  0.24625796  0.99449262  0.62930609  1
  O  O199  1  0.73765818  0.50162187  0.12936187  1
  O  O200  1  0.73990504  0.49645205  0.61945769  1
  O  O201  1  0.75295704  0.99582539  0.13717381  1
  O  O202  1  0.75016744  0.99974182  0.62967647  1
  O  O203  1  0.02346098  0.36509653  0.23620156  1
  O  O204  1  0.01497235  0.38358457  0.74636692  1
  O  O205  1  0.00489934  0.88791068  0.26527435  1
  O  O206  1  0.00987609  0.87996334  0.75927047  1
  O  O207  1  0.50256017  0.36588339  0.25740572  1
  O  O208  1  0.51576713  0.37699799  0.74982701  1
  O  O209  1  0.51485095  0.88080813  0.25652531  1
  O  O210  1  0.50359664  0.86665796  0.75236015  1
  O  O211  1  0.49507812  0.12872769  0.24605134  1
  O  O212  1  0.49711123  0.12579472  0.73872651  1
  O  O213  1  0.48289158  0.62362702  0.25961480  1
  O  O214  1  0.49990200  0.63912332  0.74226347  1
  O  O215  1  1.00367985  0.13570747  0.23842608  1
  O  O216  1  0.98478993  0.11615018  0.75218569  1
  O  O217  1  1.03211124  0.61555755  0.25743774  1
  O  O218  1  1.00068866  0.62903000  0.75089860  1
  O  O219  1  0.36927957  0.24967435  0.01126684  1
  O  O220  1  0.37062029  0.25457210  0.50816613  1
  O  O221  1  0.37078855  0.74805714  0.01186953  1
  O  O222  1  0.36649189  0.75657860  0.51025245  1
  O  O223  1  0.87473386  0.26019025  0.00536378  1
  O  O224  1  0.86045964  0.23956008  0.51493717  1
  O  O225  1  0.87243790  0.75895892  0.00054279  1
  O  O226  1  0.85963658  0.74870708  0.50901282  1
  O  O227  1  0.12780875  0.24727660  0.49275420  1
  O  O228  1  0.12642849  0.24503981  0.99031832  1
  O  O229  1  0.13921369  0.75792790  0.49238399  1
  O  O230  1  0.13265196  0.74503226  0.99214779  1
  O  O231  1  0.63524414  0.25575941  0.49245297  1
  O  O232  1  0.62647564  0.23721087  1.00404722  1
  O  O233  1  0.63773755  0.74187816  0.50883473  1
  O  O234  1  0.64319164  0.73049492  1.03847434  1
  O  O235  1  0.48633058  0.24474401  0.13115456  1
  O  O236  1  0.49344861  0.24350475  0.62279540  1
  O  O237  1  0.48794652  0.75518881  0.12302620  1
  O  O238  1  0.49095183  0.74742876  0.62960549  1
  O  O239  1  0.99751163  0.24179329  0.12814058  1
  O  O240  1  0.98631585  0.24752399  0.62445258  1
  O  O241  1  0.98453022  0.74560194  0.12504012  1
  O  O242  1  0.98718528  0.74353600  0.60596914  1
  O  O243  1  0.01147371  0.24376256  0.36583310  1
  O  O244  1  0.01185124  0.24241995  0.87409215  1
  O  O245  1  0.00676630  0.76639885  0.38234818  1
  O  O246  1  0.01197765  0.76129006  0.88152493  1
  O  O247  1  0.50598339  0.25470998  0.37325487  1
  O  O248  1  0.50322862  0.25327027  0.87092721  1
  O  O249  1  0.49270103  0.76221598  0.38117806  1
  O  O250  1  0.49301744  0.75779092  0.86570944  1
  O  O251  1  0.24297532  0.12984398  0.49636095  1
  O  O252  1  0.24157131  0.12435710  0.98961756  1
  O  O253  1  0.25990097  0.63571805  0.48903572  1
  O  O254  1  0.24371593  0.63151711  0.99284419  1
  O  O255  1  0.74627026  0.13272844  0.48918181  1
  O  O256  1  0.74274915  0.12204645  0.99365225  1
  O  O257  1  0.74287086  0.63488776  0.48993965  1
  O  O258  1  0.74466178  0.61808832  0.98899090  1
  O  O259  1  0.24937887  0.37447869  0.01477648  1
  O  O260  1  0.25584773  0.36806787  0.50571776  1
  O  O261  1  0.25466814  0.86457117  -0.00050502  1
  O  O262  1  0.25638015  0.86891760  0.50523335  1
  O  O263  1  0.76373948  0.37202011  0.00123373  1
  O  O264  1  0.74258320  0.36863169  0.51369350  1
  O  O265  1  0.76261107  0.88912504  0.01806456  1
  O  O266  1  0.74245330  0.86240885  0.49956083  1
  O  O267  1  0.13140755  0.48645700  0.25633746  1
  O  O268  1  0.13507842  0.49184832  0.74414174  1
  O  O269  1  0.13248803  1.00293472  0.24175348  1
  O  O270  1  0.13114839  0.99407583  0.74319767  1
  O  O271  1  0.62168630  0.48194177  0.24388099  1
  O  O272  1  0.63097566  0.50305495  0.74667769  1
  O  O273  1  0.63769498  0.99384044  0.25096225  1
  O  O274  1  0.63667776  0.99675140  0.74489104  1
  O  O275  1  0.36794021  0.00302734  0.25373802  1
  O  O276  1  0.36999418  -0.00043303  0.76114509  1
  O  O277  1  0.37613344  0.50376348  0.26191785  1
  O  O278  1  0.36257827  0.49635221  0.74827743  1
  O  O279  1  0.86076888  -0.00078396  0.25972405  1
  O  O280  1  0.86394564  0.00617098  0.75088351  1
  O  O281  1  0.87106732  0.46551942  0.25364633  1
  O  O282  1  0.88253812  0.52013958  0.74700280  1
  O  O283  1  0.13848216  0.36232541  0.35936528  1
  O  O284  1  0.13120467  0.36773500  0.86089738  1
  O  O285  1  0.11719546  0.86805699  0.37197190  1
  O  O286  1  0.12158837  0.86765560  0.87003923  1
  O  O287  1  0.62168960  0.36688338  0.36673264  1
  O  O288  1  0.62760816  0.37371398  0.86824433  1
  O  O289  1  0.61790198  0.87354661  0.36088252  1
  O  O290  1  0.60698203  0.88748739  0.85704486  1
  O  O291  1  0.37877794  0.12902901  0.13054961  1
  O  O292  1  0.38255247  0.13395795  0.62512674  1
  O  O293  1  0.37238008  0.63891831  0.13477444  1
  O  O294  1  0.38236904  0.63477516  0.61873481  1
  O  O295  1  0.88822185  0.13155465  0.11629472  1
  O  O296  1  0.87488712  0.13480618  0.63669254  1
  O  O297  1  0.87228901  0.63736608  0.13265872  1
  O  O298  1  0.88369244  0.63305878  0.63023420  1
  O  O299  1  0.25961305  0.24377799  0.12542650  1
  O  O300  1  0.25738124  0.25435242  0.61894087  1
  O  O301  1  0.25396322  0.75216828  0.11254435  1
  O  O302  1  0.25455296  0.75185020  0.62009757  1
  O  O303  1  0.76796981  0.23974759  0.12676384  1
  O  O304  1  0.75462567  0.25958397  0.61847000  1
  O  O305  1  0.76982057  0.76468198  0.13113894  1
  O  O306  1  0.76102472  0.75361347  0.61231047  1
  O  O307  1  0.24353880  0.24239268  0.37999250  1
  O  O308  1  0.24414185  0.23804037  0.87306358  1
  O  O309  1  0.24691102  0.74242745  0.38370203  1
  O  O310  1  0.24662459  0.74429566  0.88281463  1
  O  O311  1  0.74219906  0.24387230  0.38477800  1
  O  O312  1  0.74673388  0.23470945  0.87930041  1
  O  O313  1  0.75133484  0.74467289  0.38735465  1
  O  O314  1  0.73933138  0.79728413  0.88671311  1
  O  O315  1  0.00548856  0.11657903  0.00457488  1
  O  O316  1  0.00782454  0.11859002  0.50025542  1
  O  O317  1  0.00960480  0.61895990  0.00093311  1
  O  O318  1  -0.00085381  0.61908908  0.46645335  1
  O  O319  1  0.50556622  0.12021583  0.00544855  1
  O  O320  1  0.49453943  0.11424750  0.50847943  1
  O  O321  1  0.50927508  0.60779441  -0.00491461  1
  O  O322  1  0.50654082  0.62120327  0.50430904  1
  O  O323  1  0.49584797  0.38046773  0.49386959  1
  O  O324  1  0.49636685  0.38602301  1.00188201  1
  O  O325  1  0.49481308  0.88102707  0.49240648  1
  O  O326  1  0.50341464  0.87937839  0.99018963  1
  O  O327  1  0.98877500  0.38094182  0.52040141  1
  O  O328  1  0.99777930  0.38730451  0.99915439  1
  O  O329  1  1.00665925  0.89396692  0.48805587  1
  O  O330  1  0.99499415  0.87702535  0.99573828  1
  O  O331  1  0.49336484  0.49436495  0.37935398  1
  O  O332  1  0.49359572  0.49220777  0.89071629  1
  O  O333  1  0.49454105  0.99446406  0.38077369  1
  O  O334  1  0.49150344  0.99678550  0.87845403  1
  O  O335  1  0.99688504  0.46436872  0.38094969  1
  O  O336  1  0.99484741  0.50735398  0.89088989  1
  O  O337  1  0.99161135  1.00195551  0.38102626  1
  O  O338  1  1.00249581  0.98676841  0.88345063  1
  O  O339  1  0.00489554  0.00597155  0.12256329  1
  O  O340  1  0.00539027  0.00298009  0.61748595  1
  O  O341  1  -0.00227118  0.50862338  0.10435750  1
  O  O342  1  0.01720899  0.50896597  0.62562622  1
  O  O343  1  0.49894455  0.00567574  0.11707731  1
  O  O344  1  0.49940246  0.00875071  0.61579310  1
  O  O345  1  0.50590976  0.49322051  0.11639577  1
  O  O346  1  0.51046985  0.50526360  0.62008579  1
  O  O347  1  0.24152871  0.36950034  0.23555803  1
  O  O348  1  0.24465857  0.38304255  0.74174332  1
  O  O349  1  0.24633968  0.88721979  0.24904552  1
  O  O350  1  0.24318814  0.88035344  0.74555226  1
  O  O351  1  0.73577658  0.36274995  0.25318225  1
  O  O352  1  0.73813844  0.37313164  0.73952163  1
  O  O353  1  0.74157185  0.88256545  0.24628497  1
  O  O354  1  0.74241300  0.88323745  0.74315480  1
  O  O355  1  0.25403943  0.11333904  0.25498088  1
  O  O356  1  0.25225761  0.11803256  0.75725896  1
  O  O357  1  0.25520007  0.62356787  0.26967662  1
  O  O358  1  0.24545123  0.61609018  0.76060071  1
  O  O359  1  0.74441920  0.11835261  0.26654226  1
  O  O360  1  0.75532906  0.11860865  0.75738542  1
  O  O361  1  0.73700281  0.63258843  0.26069992  1
  O  O362  1  0.75007625  0.62698135  0.74862665  1
  O  O363  1  0.36908886  0.11820370  0.37042392  1
  O  O364  1  0.36669480  0.11842383  0.87364895  1
  O  O365  1  0.36667756  0.61821807  0.37130683  1
  O  O366  1  0.36328046  0.62322391  0.87947799  1
  O  O367  1  0.86604530  0.11612858  0.37862110  1
  O  O368  1  0.86673752  0.12110293  0.87115539  1
  O  O369  1  0.85774327  0.63090828  0.36264430  1
  O  O370  1  0.87878044  0.63257081  0.85347834  1
  O  O371  1  0.14068342  0.37124209  0.13329509  1
  O  O372  1  0.13167713  0.38139730  0.63572053  1
  O  O373  1  0.12424918  0.88585752  0.12602125  1
  O  O374  1  0.13010428  0.87847646  0.62941598  1
  O  O375  1  0.62209949  0.37783615  0.13947285  1
  O  O376  1  0.63057553  0.38724938  0.63187192  1
  O  O377  1  0.63551924  0.88060685  0.13426702  1
  O  O378  1  0.62306533  0.88209048  0.63446652  1
  O  O379  1  0.11919078  0.24916813  0.25713332  1
  O  O380  1  0.12749543  0.26574076  0.75415732  1
  O  O381  1  0.13492245  0.75005072  0.26812920  1
  O  O382  1  0.13216770  0.75563621  0.76403373  1
  O  O383  1  0.61745837  0.25708806  0.25595241  1
  O  O384  1  0.62385674  0.26062009  0.75134792  1
  O  O385  1  0.62845566  0.76483472  0.24095871  1
  O  O386  1  0.61369083  0.76006907  0.74135667  1
  O  O387  1  0.37802740  0.24159933  0.24633301  1
  O  O388  1  0.37572109  0.25076043  0.73518887  1
  O  O389  1  0.37029540  0.74432466  0.23736432  1
  O  O390  1  0.38080095  0.75729109  0.73695266  1
  O  O391  1  0.89333281  0.26660676  0.24021215  1
  O  O392  1  0.86663208  0.24011242  0.74345465  1
  O  O393  1  0.88021785  0.75781332  0.24542059  1
  O  O394  1  0.87369780  0.73930431  0.73227406  1
  O  O395  1  0.38236869  0.49496642  0.49158366  1
  O  O396  1  0.38567222  0.50061919  1.00636159  1
  O  O397  1  0.38246138  0.99292761  0.49392381  1
  O  O398  1  0.38091610  0.99790781  0.98898307  1
  O  O399  1  0.86945868  0.49566850  0.49411002  1
  O  O400  1  0.88135057  0.48875879  0.99635370  1
  O  O401  1  0.88392603  1.00667545  0.49475497  1
  O  O402  1  0.88516036  0.98819831  0.99907164  1
  O  O403  1  0.11973403  0.00365647  0.00727929  1
  O  O404  1  0.12083133  0.00758752  0.50596522  1
  O  O405  1  0.11563568  0.50692185  -0.00601586  1
  O  O406  1  0.13320406  0.49310002  0.51727771  1
  O  O407  1  0.61747104  0.01245497  0.00331250  1
  O  O408  1  0.61152916  -0.00405399  0.49832151  1
  O  O409  1  0.61801355  0.49582987  0.01721434  1
  O  O410  1  0.62125908  0.50736426  0.50573206  1
  O  O411  1  0.36061365  0.36614626  0.12790716  1
  O  O412  1  0.37172499  0.36861069  0.61797345  1
  O  O413  1  0.37209666  0.86270907  0.12413204  1
  O  O414  1  0.36843292  0.86890294  0.61954954  1
  O  O415  1  0.88552059  0.36469542  0.10658227  1
  O  O416  1  0.86311797  0.36849314  0.63699534  1
  O  O417  1  0.87413442  0.86859079  0.12053928  1
  O  O418  1  0.87802918  0.85962217  0.62961751  1
  O  O419  1  0.13073445  0.13225923  0.38051878  1
  O  O420  1  0.13174997  0.13071166  0.87597931  1
  O  O421  1  0.14058560  0.63165717  0.38121091  1
  O  O422  1  0.13452463  0.63269117  0.88277496  1
  O  O423  1  0.62781891  0.13999270  0.37172334  1
  O  O424  1  0.63191437  0.12408533  0.88372897  1
  O  O425  1  0.62232701  0.62637961  0.38541471  1
  O  O426  1  0.63117438  0.61249030  0.86422341  1
