# generated using pymatgen
data_V85Zn86O256
_symmetry_space_group_name_H-M   'P 1'
_cell_length_a   16.95913146
_cell_length_b   16.98458626
_cell_length_c   16.97951861
_cell_angle_alpha   89.95806377
_cell_angle_beta   89.98957591
_cell_angle_gamma   89.94326678
_symmetry_Int_Tables_number   1
_chemical_formula_structural   V85Zn86O256
_chemical_formula_sum   'V85 Zn86 O256'
_cell_volume   4890.84180493
_cell_formula_units_Z   1
loop_
 _symmetry_equiv_pos_site_id
 _symmetry_equiv_pos_as_xyz
  1  'x, y, z'
loop_
 _atom_site_type_symbol
 _atom_site_label
 _atom_site_symmetry_multiplicity
 _atom_site_fract_x
 _atom_site_fract_y
 _atom_site_fract_z
 _atom_site_occupancy
  V  V0  1  0.12355303  0.87648790  0.75320694  1
  V  V1  1  0.88349446  0.49896692  0.38246614  1
  V  V2  1  0.62249392  0.37596945  0.25005622  1
  V  V3  1  0.88375942  0.25227209  0.13703530  1
  V  V4  1  0.11401969  0.37230742  0.24760051  1
  V  V5  1  0.80990847  0.70332097  0.06017539  1
  V  V6  1  0.12614261  0.11966320  0.00394140  1
  V  V7  1  -0.00303422  0.36946708  0.39384541  1
  V  V8  1  0.87426427  0.25312011  0.61905995  1
  V  V9  1  0.75374351  0.12066813  0.87678649  1
  V  V10  1  0.62875078  0.00008052  0.12817669  1
  V  V11  1  0.87805826  0.73640039  0.62482318  1
  V  V12  1  0.62691543  0.24909889  0.87860199  1
  V  V13  1  0.25209915  -0.00027481  0.75147750  1
  V  V14  1  0.50079706  0.13098476  0.12779586  1
  V  V15  1  0.12020549  0.63186066  -0.00008728  1
  V  V16  1  0.74862834  0.37630642  0.61819168  1
  V  V17  1  -0.01941226  0.73751403  0.24985193  1
  V  V18  1  0.50003795  0.87701531  0.86875892  1
  V  V19  1  0.12727676  0.24447147  0.36980669  1
  V  V20  1  0.76218414  0.87651313  0.12484018  1
  V  V21  1  0.00242083  0.12569822  0.62170632  1
  V  V22  1  0.26814980  0.62647964  0.87870278  1
  V  V23  1  0.75145271  0.24787141  0.00066755  1
  V  V24  1  0.74651906  0.50541364  0.75092935  1
  V  V25  1  0.23647850  0.62993553  0.37829988  1
  V  V26  1  0.37621157  0.49999450  0.38944542  1
  V  V27  1  0.12436067  0.25105380  0.87122862  1
  V  V28  1  0.88017123  0.11733605  0.25282675  1
  V  V29  1  0.13804235  0.12590472  0.49439904  1
  V  V30  1  0.50261203  -0.00002729  0.49782375  1
  V  V31  1  0.48823271  0.49722241  -0.00612589  1
  V  V32  1  0.50177530  0.12877934  0.62548452  1
  V  V33  1  0.87830951  0.36907581  -0.00284778  1
  V  V34  1  0.37890289  -0.00358578  0.87883362  1
  V  V35  1  0.61061039  0.50348187  0.62277283  1
  V  V36  1  0.62835198  0.87325605  0.25086423  1
  V  V37  1  0.49753028  0.73793685  0.74660546  1
  V  V38  1  0.49071395  0.62668616  0.12528381  1
  V  V39  1  0.62230297  0.49986339  0.12471425  1
  V  V40  1  0.50236606  0.24804217  0.75409747  1
  V  V41  1  0.49472388  0.74849571  0.25165051  1
  V  V42  1  0.63045908  0.75094321  0.88144729  1
  V  V43  1  0.25118183  0.26089645  -0.00104113  1
  V  V44  1  0.00087902  -0.00052039  0.49162905  1
  V  V45  1  0.49758627  0.38144577  0.38425961  1
  V  V46  1  0.36760849  0.63144258  0.24775488  1
  V  V47  1  0.62814897  -0.00072565  0.62482618  1
  V  V48  1  0.02296762  0.61287476  0.61807068  1
  V  V49  1  0.25160792  0.87668275  0.62489687  1
  V  V50  1  0.62581935  0.37466604  0.75318821  1
  V  V51  1  0.75058989  0.74541531  0.50022381  1
  V  V52  1  0.12541674  0.00385507  0.62446602  1
  V  V53  1  -0.00549696  0.88116890  0.87433032  1
  V  V54  1  0.87681365  0.87221257  0.49809546  1
  V  V55  1  0.63055866  0.12909457  0.49907828  1
  V  V56  1  0.25241439  0.37855036  0.12305286  1
  V  V57  1  0.26798086  0.76211038  0.01637177  1
  V  V58  1  0.24889451  0.50101908  0.24794403  1
  V  V59  1  0.75308690  0.61979265  0.37040725  1
  V  V60  1  0.62149905  0.63124717  -0.00034451  1
  V  V61  1  0.37710237  0.73967343  0.62653782  1
  V  V62  1  0.37586585  0.12193705  0.74925422  1
  V  V63  1  0.36474929  0.00560857  0.37293201  1
  V  V64  1  0.00186311  0.37960873  0.87275839  1
  V  V65  1  0.25160588  0.12488859  0.87638369  1
  V  V66  1  0.00285077  0.25566977  0.74705399  1
  V  V67  1  0.48683520  0.37296195  0.88146506  1
  V  V68  1  0.23655043  0.75097753  0.49672244  1
  V  V69  1  0.75584670  -0.00270465  0.75564200  1
  V  V70  1  0.75013724  0.37180533  0.12536047  1
  V  V71  1  0.48243883  -0.03221353  0.02746973  1
  V  V72  1  0.50064768  0.87459537  0.37649980  1
  V  V73  1  0.00484112  0.12198181  0.12919829  1
  V  V74  1  0.62619042  0.25131851  0.37619214  1
  V  V75  1  0.37430346  0.25434587  0.12302860  1
  V  V76  1  0.24122836  -0.00098723  0.22668097  1
  V  V77  1  0.26067717  0.26296286  0.49048537  1
  V  V78  1  0.61087357  0.62122080  0.50220310  1
  V  V79  1  0.37457091  0.87415897  0.49994505  1
  V  V80  1  0.62827048  0.87263626  0.74714700  1
  V  V81  1  0.62377474  0.12162062  0.00307139  1
  V  V82  1  0.62441371  0.74757540  0.37827038  1
  V  V83  1  0.87796022  0.12136093  0.75408614  1
  V  V84  1  0.86932063  0.88858203  -0.00747346  1
  Zn  Zn85  1  0.13061534  0.86608725  0.24194418  1
  Zn  Zn86  1  0.18867933  0.43566151  0.70549782  1
  Zn  Zn87  1  0.00129324  0.74789428  0.74952968  1
  Zn  Zn88  1  0.88348303  0.62075422  0.75220372  1
  Zn  Zn89  1  0.75209392  0.00037033  0.25471142  1
  Zn  Zn90  1  0.75468105  0.25311943  0.49682199  1
  Zn  Zn91  1  0.00069033  0.50230154  0.00019673  1
  Zn  Zn92  1  0.75452046  0.62813847  0.87585767  1
  Zn  Zn93  1  0.87192869  0.50237030  0.87350822  1
  Zn  Zn94  1  0.49638320  0.25379235  0.25148712  1
  Zn  Zn95  1  0.13042832  0.75622903  0.88193079  1
  Zn  Zn96  1  0.87348422  -0.00266098  0.37504752  1
  Zn  Zn97  1  0.12049790  0.49983025  0.11925477  1
  Zn  Zn98  1  0.34016435  0.27532864  0.64683609  1
  Zn  Zn99  1  0.00551057  -0.00265404  0.00020340  1
  Zn  Zn100  1  0.01983750  0.84749189  0.37510873  1
  Zn  Zn101  1  0.75534134  0.87182731  0.62592597  1
  Zn  Zn102  1  -0.00968208  0.62404667  0.12746165  1
  Zn  Zn103  1  0.75365942  0.12490899  0.37397048  1
  Zn  Zn104  1  0.75581625  0.50212964  0.25018547  1
  Zn  Zn105  1  0.32806359  0.57746170  0.72064626  1
  Zn  Zn106  1  0.37062601  0.12875779  0.25364278  1
  Zn  Zn107  1  0.19058282  0.18341946  0.19073980  1
  Zn  Zn108  1  0.16355236  0.27403171  0.65469431  1
  Zn  Zn109  1  0.17584508  0.69455563  0.18490533  1
  Zn  Zn110  1  0.18968369  0.69455473  0.69072668  1
  Zn  Zn111  1  0.69227790  0.18890108  0.19174636  1
  Zn  Zn112  1  0.68942603  0.18700593  0.68754452  1
  Zn  Zn113  1  0.68049305  0.68538567  0.19257095  1
  Zn  Zn114  1  0.68411498  0.68508269  0.68561368  1
  Zn  Zn115  1  0.31162108  0.31567871  0.31068475  1
  Zn  Zn116  1  0.31050907  0.31582792  0.81506149  1
  Zn  Zn117  1  0.30568355  0.81663531  0.31070468  1
  Zn  Zn118  1  0.31264416  0.80721034  0.81736862  1
  Zn  Zn119  1  0.81295720  0.31622647  0.31347971  1
  Zn  Zn120  1  0.81318707  0.31172169  0.80772903  1
  Zn  Zn121  1  0.82178508  0.81075733  0.30964502  1
  Zn  Zn122  1  0.81546638  0.80877213  0.81177720  1
  Zn  Zn123  1  0.19102560  0.43278809  0.42882070  1
  Zn  Zn124  1  0.17149873  0.46265080  0.90309234  1
  Zn  Zn125  1  0.18481367  0.93405605  0.43390389  1
  Zn  Zn126  1  0.19067678  0.93372298  0.94270988  1
  Zn  Zn127  1  0.68517068  0.43958965  0.43959774  1
  Zn  Zn128  1  0.68303212  0.43876394  0.93705417  1
  Zn  Zn129  1  0.69287291  0.93635502  0.43711544  1
  Zn  Zn130  1  0.68445268  0.93602434  0.94149222  1
  Zn  Zn131  1  0.31413781  0.06949051  0.06253560  1
  Zn  Zn132  1  0.31561550  0.06556725  0.56333489  1
  Zn  Zn133  1  0.30498437  0.56800558  0.05813895  1
  Zn  Zn134  1  0.21266761  0.55441511  0.56174699  1
  Zn  Zn135  1  0.81667328  0.06343524  0.06784788  1
  Zn  Zn136  1  0.81372739  0.06117265  0.56557634  1
  Zn  Zn137  1  0.80928224  0.54143392  0.05653437  1
  Zn  Zn138  1  0.80927983  0.55722868  0.55739817  1
  Zn  Zn139  1  0.43438262  0.44061877  0.18914814  1
  Zn  Zn140  1  0.36096959  0.43637947  0.66382475  1
  Zn  Zn141  1  0.43699948  0.93758710  0.19539231  1
  Zn  Zn142  1  0.43958759  0.93597024  0.68547418  1
  Zn  Zn143  1  0.93656689  0.44582471  0.19047631  1
  Zn  Zn144  1  0.93359591  0.43800569  0.68683942  1
  Zn  Zn145  1  0.97203476  0.91956050  0.17538712  1
  Zn  Zn146  1  0.93673947  0.93579868  0.68290830  1
  Zn  Zn147  1  0.06574655  0.05851094  0.30914769  1
  Zn  Zn148  1  0.06292757  0.06225235  0.81465073  1
  Zn  Zn149  1  0.05853299  0.56055989  0.31025427  1
  Zn  Zn150  1  0.07296206  0.56890246  0.80528010  1
  Zn  Zn151  1  0.56136192  0.06398828  0.31147699  1
  Zn  Zn152  1  0.56617475  0.05959588  0.81534356  1
  Zn  Zn153  1  0.56022091  0.56286780  0.31336733  1
  Zn  Zn154  1  0.50566626  0.52695860  0.77280842  1
  Zn  Zn155  1  0.44437608  0.18773243  0.43518441  1
  Zn  Zn156  1  0.43711324  0.18474604  0.94301136  1
  Zn  Zn157  1  0.42737877  0.68610862  0.43768623  1
  Zn  Zn158  1  0.44083770  0.69644761  0.94119887  1
  Zn  Zn159  1  0.94311177  0.18900323  0.43578881  1
  Zn  Zn160  1  0.94001724  0.18621685  0.93781489  1
  Zn  Zn161  1  0.94083738  0.67870114  0.43922647  1
  Zn  Zn162  1  0.94398584  0.69103163  0.92797729  1
  Zn  Zn163  1  0.06551662  0.30941645  0.06087327  1
  Zn  Zn164  1  0.07057359  0.43395987  0.56395929  1
  Zn  Zn165  1  0.05718473  0.80646731  0.07216025  1
  Zn  Zn166  1  0.05825421  0.81374731  0.56859239  1
  Zn  Zn167  1  0.56205534  0.31367181  0.06117253  1
  Zn  Zn168  1  0.52050420  0.34471238  0.59013909  1
  Zn  Zn169  1  0.55078947  0.81502196  0.06963001  1
  Zn  Zn170  1  0.56179639  0.80942899  0.56384132  1
  O  O171  1  0.11570213  0.13534248  0.11614269  1
  O  O172  1  0.11354763  0.12014631  0.61371891  1
  O  O173  1  0.12806896  0.61992751  0.10777029  1
  O  O174  1  0.12629408  0.62320567  0.62516227  1
  O  O175  1  0.62376420  0.11932162  0.12307553  1
  O  O176  1  0.62268497  0.11864571  0.61833128  1
  O  O177  1  0.61794676  0.61777320  0.11874445  1
  O  O178  1  0.62734260  0.61184817  0.61714117  1
  O  O179  1  0.38304529  0.39051222  0.36666245  1
  O  O180  1  0.38800785  0.36246144  0.88304394  1
  O  O181  1  0.38056201  0.88450186  0.38148595  1
  O  O182  1  0.38539494  0.88805046  0.86885204  1
  O  O183  1  0.89169143  0.37334840  0.37506243  1
  O  O184  1  0.88299590  0.36708206  0.88311230  1
  O  O185  1  0.86918998  0.87500684  0.39308399  1
  O  O186  1  0.88039169  0.87267404  0.88082018  1
  O  O187  1  0.26550453  0.00083121  0.37722749  1
  O  O188  1  0.26060962  0.00367196  0.87235799  1
  O  O189  1  0.25983644  0.50796601  0.36549025  1
  O  O190  1  0.26682744  0.52697685  0.89406225  1
  O  O191  1  0.75506802  0.00504822  0.37284167  1
  O  O192  1  0.74101080  0.00520283  0.86346785  1
  O  O193  1  0.75309138  0.50552129  0.37365599  1
  O  O194  1  0.74726866  0.50183812  0.86599589  1
  O  O195  1  0.24733657  0.49300733  0.12871884  1
  O  O196  1  0.26552478  0.50516615  0.64788257  1
  O  O197  1  0.25761607  0.99687614  0.12815516  1
  O  O198  1  0.24708144  0.99668959  0.63219496  1
  O  O199  1  0.73962634  0.49062556  0.12909311  1
  O  O200  1  0.74339053  0.49165315  0.63277701  1
  O  O201  1  0.74338106  0.99291537  0.12798119  1
  O  O202  1  0.74419280  0.99714132  0.63613392  1
  O  O203  1  0.01314067  0.37633247  0.24782025  1
  O  O204  1  -0.01296936  0.36078100  0.75927898  1
  O  O205  1  -0.02941162  0.85230813  0.26577558  1
  O  O206  1  0.00774795  0.87867262  0.75395282  1
  O  O207  1  0.51075440  0.37698262  0.25386834  1
  O  O208  1  0.50803309  0.35599306  0.76399266  1
  O  O209  1  0.50725178  0.86842995  0.25910200  1
  O  O210  1  0.51032238  0.87327243  0.75552698  1
  O  O211  1  0.50113643  0.13173089  0.23841254  1
  O  O212  1  0.49913517  0.12851207  0.74684779  1
  O  O213  1  0.48952910  0.62671027  0.24327440  1
  O  O214  1  0.50906663  0.64035514  0.75360172  1
  O  O215  1  0.99442084  0.12496993  0.24114723  1
  O  O216  1  0.99340531  0.12747220  0.74420015  1
  O  O217  1  0.99854746  0.62862949  0.24559726  1
  O  O218  1  1.00351014  0.62645474  0.73613960  1
  O  O219  1  0.36609642  0.24485692  0.01324719  1
  O  O220  1  0.35920820  0.23810698  0.48795181  1
  O  O221  1  0.36896266  0.75403139  0.00694063  1
  O  O222  1  0.36860732  0.75845690  0.50733131  1
  O  O223  1  0.87023392  0.25539188  0.00632413  1
  O  O224  1  0.87299433  0.23967420  0.51567112  1
  O  O225  1  0.86929403  0.75737033  -0.00230642  1
  O  O226  1  0.86878777  0.75167235  0.50530785  1
  O  O227  1  0.14068818  0.23890936  0.48423342  1
  O  O228  1  0.13321207  0.24004607  0.99187982  1
  O  O229  1  0.13769591  0.76086439  0.50394062  1
  O  O230  1  0.12443030  0.74203823  1.00334268  1
  O  O231  1  0.62722292  0.23885611  0.49052040  1
  O  O232  1  0.63253948  0.24350461  0.99793380  1
  O  O233  1  0.63253087  0.74384271  0.49758780  1
  O  O234  1  0.61439293  0.74459039  0.99364871  1
  O  O235  1  0.49251098  0.24865366  0.12523017  1
  O  O236  1  0.51512506  0.23375685  0.63983795  1
  O  O237  1  0.50620449  0.73242769  0.13606997  1
  O  O238  1  0.48994896  0.75694300  0.63450784  1
  O  O239  1  0.98968791  0.24069234  0.11761018  1
  O  O240  1  0.99130326  0.23660910  0.63389705  1
  O  O241  1  0.98851053  0.74009183  0.13893859  1
  O  O242  1  0.99452209  0.73716296  0.62757554  1
  O  O243  1  0.01064072  0.26245598  0.37808187  1
  O  O244  1  0.00625821  0.25316542  0.86692927  1
  O  O245  1  -0.00373822  0.73698350  0.36339562  1
  O  O246  1  0.00711118  0.76609644  0.86778989  1
  O  O247  1  0.51039848  0.25931793  0.37153751  1
  O  O248  1  0.50721455  0.24974677  0.87451593  1
  O  O249  1  0.50237070  0.75563414  0.37161496  1
  O  O250  1  0.50962813  0.75861192  0.86622579  1
  O  O251  1  0.23798759  0.11281924  0.49431452  1
  O  O252  1  0.24562685  0.13501843  0.99435669  1
  O  O253  1  0.25188010  0.63608472  0.48568528  1
  O  O254  1  0.24358708  0.64077716  0.99452185  1
  O  O255  1  0.73958744  0.12523612  0.50097957  1
  O  O256  1  0.74572945  0.12677573  0.99642520  1
  O  O257  1  0.74116932  0.63022713  0.49123487  1
  O  O258  1  0.74629104  0.63566732  1.00698143  1
  O  O259  1  0.24368085  0.36268950  0.00691378  1
  O  O260  1  0.25662541  0.36187718  0.49589893  1
  O  O261  1  0.24787905  0.86135758  0.00466644  1
  O  O262  1  0.25653991  0.87141593  0.50326494  1
  O  O263  1  0.75638494  0.36923866  0.00535091  1
  O  O264  1  0.74056597  0.37111986  0.51530203  1
  O  O265  1  0.75506168  0.87653191  0.00924719  1
  O  O266  1  0.75546773  0.86346185  0.50544194  1
  O  O267  1  0.13581416  0.49146138  0.24895255  1
  O  O268  1  0.14061664  0.48325596  0.79424763  1
  O  O269  1  0.14029263  1.00616606  0.24133161  1
  O  O270  1  0.13133851  0.99543705  0.74460210  1
  O  O271  1  0.62320918  0.49540638  0.23807215  1
  O  O272  1  0.62256660  0.49416035  0.74058910  1
  O  O273  1  0.62625053  0.99508361  0.24083990  1
  O  O274  1  0.63224289  0.99191333  0.74503018  1
  O  O275  1  0.37039626  -0.00098497  0.26118779  1
  O  O276  1  0.37649520  0.00707032  0.75740309  1
  O  O277  1  0.36165991  0.51104751  0.24880640  1
  O  O278  1  0.39951698  0.49817203  0.75124263  1
  O  O279  1  0.87756989  0.01332313  0.25048313  1
  O  O280  1  0.86532709  0.00633167  0.74382419  1
  O  O281  1  0.86819881  0.48719720  0.27167604  1
  O  O282  1  0.86046624  0.50061926  0.75238438  1
  O  O283  1  0.11440714  0.36831137  0.36660292  1
  O  O284  1  0.11469693  0.35644246  0.88490475  1
  O  O285  1  0.12081090  0.89053525  0.35719018  1
  O  O286  1  0.11962380  0.87821062  0.86724627  1
  O  O287  1  0.62136193  0.37188896  0.36607691  1
  O  O288  1  0.62007845  0.36479045  0.87253172  1
  O  O289  1  0.62179669  0.86703907  0.37131802  1
  O  O290  1  0.62379334  0.87131760  0.86145858  1
  O  O291  1  0.38638776  0.13477298  0.12712356  1
  O  O292  1  0.38766792  0.12106656  0.63514819  1
  O  O293  1  0.38154311  0.61974587  0.13363837  1
  O  O294  1  0.36981819  0.64175195  0.62805297  1
  O  O295  1  0.88066194  0.13558746  0.13267973  1
  O  O296  1  0.88032545  0.12857590  0.63585583  1
  O  O297  1  0.86361913  0.63166691  0.10814743  1
  O  O298  1  0.87097598  0.63099050  0.62445923  1
  O  O299  1  0.25642116  0.25606579  0.11917853  1
  O  O300  1  0.24861065  0.23041037  0.59653923  1
  O  O301  1  0.25150027  0.74604595  0.11519861  1
  O  O302  1  0.25697634  0.75972155  0.61790568  1
  O  O303  1  0.75824479  0.25480879  0.11875529  1
  O  O304  1  0.75705405  0.25771432  0.62716986  1
  O  O305  1  0.74917041  0.75562571  0.12642147  1
  O  O306  1  0.75575357  0.74697333  0.61405343  1
  O  O307  1  0.24234975  0.25291280  0.37891970  1
  O  O308  1  0.24419414  0.24558177  0.88106853  1
  O  O309  1  0.25424509  0.73822974  0.38123783  1
  O  O310  1  0.24974497  0.74903211  0.89116632  1
  O  O311  1  0.73859281  0.25103891  0.37719616  1
  O  O312  1  0.74615115  0.24198659  0.88032627  1
  O  O313  1  0.74687232  0.74275272  0.38595647  1
  O  O314  1  0.73378689  0.74932075  0.86837272  1
  O  O315  1  0.01023460  0.12448425  0.00437551  1
  O  O316  1  0.00491866  0.11810036  0.50730789  1
  O  O317  1  0.00974250  0.62669013  -0.00043583  1
  O  O318  1  -0.00071561  0.62416441  0.52184833  1
  O  O319  1  0.50839646  0.12485542  0.01472948  1
  O  O320  1  0.51114074  0.12191541  0.50853925  1
  O  O321  1  0.50538021  0.61770206  0.00587865  1
  O  O322  1  0.51222050  0.63309239  0.49464541  1
  O  O323  1  0.51368614  0.37875175  0.48127160  1
  O  O324  1  0.50563729  0.38880103  0.99558217  1
  O  O325  1  0.49555337  0.87985640  0.49563219  1
  O  O326  1  0.52260179  0.87721279  0.97347454  1
  O  O327  1  1.00128502  0.37192056  0.49130353  1
  O  O328  1  0.99282965  0.37007416  0.99072542  1
  O  O329  1  0.99448800  0.88050072  0.49607199  1
  O  O330  1  0.98619764  0.87631981  0.99126358  1
  O  O331  1  0.48528572  0.49627540  0.36894835  1
  O  O332  1  0.50642092  0.48758331  0.88814917  1
  O  O333  1  0.49898032  0.99116686  0.37971755  1
  O  O334  1  0.49461955  0.99319657  0.87830118  1
  O  O335  1  0.99129222  0.48701556  0.37472578  1
  O  O336  1  0.99537941  0.48449690  0.87401978  1
  O  O337  1  0.99478753  1.00581956  0.38797834  1
  O  O338  1  1.00378687  0.98710307  0.87777785  1
  O  O339  1  -0.01327728  0.02017911  0.11640132  1
  O  O340  1  0.00297117  0.00904002  0.61694055  1
  O  O341  1  0.00032235  0.50566758  0.11901530  1
  O  O342  1  0.00155123  0.50937349  0.62814971  1
  O  O343  1  0.50968725  0.01554348  0.12971160  1
  O  O344  1  0.50778413  0.00972120  0.62026690  1
  O  O345  1  0.50483022  0.50668666  0.11722481  1
  O  O346  1  0.51405472  0.49830019  0.62592934  1
  O  O347  1  0.24398588  0.38500045  0.24202367  1
  O  O348  1  0.27238234  0.34994232  0.71777013  1
  O  O349  1  0.25123787  0.89286651  0.24806690  1
  O  O350  1  0.24422596  0.88201014  0.74700610  1
  O  O351  1  0.73654618  0.37463374  0.24347819  1
  O  O352  1  0.74179905  0.38254224  0.74428043  1
  O  O353  1  0.74681442  0.87495569  0.24225779  1
  O  O354  1  0.74579542  0.88098629  0.74740136  1
  O  O355  1  0.25745889  0.10726301  0.24362818  1
  O  O356  1  0.26463943  0.11679675  0.75986846  1
  O  O357  1  0.25199978  0.62198967  0.25628462  1
  O  O358  1  0.24823670  0.63939271  0.77220701  1
  O  O359  1  0.76296173  0.12281654  0.25129636  1
  O  O360  1  0.75751209  0.11675440  0.75517205  1
  O  O361  1  0.74078749  0.62285690  0.26679730  1
  O  O362  1  0.74466073  0.61170024  0.75058813  1
  O  O363  1  0.38951217  0.10766140  0.37092624  1
  O  O364  1  0.37538758  0.11416460  0.87061190  1
  O  O365  1  0.36818441  0.61505219  0.36580215  1
  O  O366  1  0.36841400  0.63880957  0.87599878  1
  O  O367  1  0.87588936  0.12835283  0.36525691  1
  O  O368  1  0.87126440  0.12897289  0.86192364  1
  O  O369  1  0.86742931  0.60729475  0.38247511  1
  O  O370  1  0.87167850  0.62302946  0.87135913  1
  O  O371  1  0.13551056  0.37350305  0.12998709  1
  O  O372  1  0.11439093  0.37146905  0.64440894  1
  O  O373  1  0.07961186  0.89096460  0.14002706  1
  O  O374  1  0.12985285  0.88490088  0.63256492  1
  O  O375  1  0.62714384  0.38176576  0.13040206  1
  O  O376  1  0.62582501  0.38372342  0.63298215  1
  O  O377  1  0.63234215  0.88230476  0.13195293  1
  O  O378  1  0.62685677  0.87834473  0.63529660  1
  O  O379  1  0.13582599  0.25897355  0.26037444  1
  O  O380  1  0.11122753  0.24005599  0.75732205  1
  O  O381  1  0.10400358  0.75290853  0.24567499  1
  O  O382  1  0.12483204  0.76901469  0.74942850  1
  O  O383  1  0.62339093  0.25916678  0.25656854  1
  O  O384  1  0.62105949  0.24997761  0.75963355  1
  O  O385  1  0.61654722  0.75352489  0.25988251  1
  O  O386  1  0.61962676  0.75783259  0.75314245  1
  O  O387  1  0.37510446  0.24940143  0.23773985  1
  O  O388  1  0.38692492  0.23334098  0.75445895  1
  O  O389  1  0.37787300  0.73871532  0.25710348  1
  O  O390  1  0.38625478  0.76191626  0.73963422  1
  O  O391  1  0.87084251  0.24610520  0.23950428  1
  O  O392  1  0.88031368  0.23957454  0.74167290  1
  O  O393  1  0.87807451  0.73170042  0.25368655  1
  O  O394  1  0.87633438  0.74540154  0.73782295  1
  O  O395  1  0.37082082  0.50470004  0.48411171  1
  O  O396  1  0.39122620  0.50503440  1.00602583  1
  O  O397  1  0.38292278  0.99652603  0.49053997  1
  O  O398  1  0.38712591  1.00721021  0.99344038  1
  O  O399  1  0.86481447  0.48941745  0.48202032  1
  O  O400  1  0.87774706  0.48116738  0.99250412  1
  O  O401  1  0.88347123  0.98997235  0.50503264  1
  O  O402  1  0.87195218  0.99099441  0.99688070  1
  O  O403  1  0.12863290  0.01644918  -0.00632158  1
  O  O404  1  0.11701494  0.00356660  0.50573723  1
  O  O405  1  0.12213518  0.51447008  -0.00429189  1
  O  O406  1  0.13787418  0.49706486  0.50121994  1
  O  O407  1  0.61208646  -0.00057775  0.01587171  1
  O  O408  1  0.62085998  0.00505613  0.50488348  1
  O  O409  1  0.62023466  0.50848730  0.01097129  1
  O  O410  1  0.62802832  0.50783190  0.51334705  1
  O  O411  1  0.36165426  0.37006108  0.12885157  1
  O  O412  1  0.41141271  0.35341898  0.61395441  1
  O  O413  1  0.44901774  0.88978317  0.09416595  1
  O  O414  1  0.36900200  0.87702171  0.61551816  1
  O  O415  1  0.87230454  0.36817180  0.11866541  1
  O  O416  1  0.86241725  0.36421826  0.63119865  1
  O  O417  1  0.86493561  0.88040728  0.11610702  1
  O  O418  1  0.87746208  0.86034286  0.61424618  1
  O  O419  1  0.11521859  0.13445732  0.38191975  1
  O  O420  1  0.13083167  0.13405846  0.87990523  1
  O  O421  1  0.13955669  0.61750565  0.37187721  1
  O  O422  1  0.13154281  0.63404843  0.88860367  1
  O  O423  1  0.62435537  0.13370259  0.38162930  1
  O  O424  1  0.63091182  0.12878422  0.88428376  1
  O  O425  1  0.62948599  0.62851633  0.38248560  1
  O  O426  1  0.63010477  0.63373393  0.89388963  1
