# generated using pymatgen
data_V85Zn86O256
_symmetry_space_group_name_H-M   'P 1'
_cell_length_a   16.96078051
_cell_length_b   16.94485349
_cell_length_c   16.94321385
_cell_angle_alpha   90.02754710
_cell_angle_beta   89.94939233
_cell_angle_gamma   89.90846020
_symmetry_Int_Tables_number   1
_chemical_formula_structural   V85Zn86O256
_chemical_formula_sum   'V85 Zn86 O256'
_cell_volume   4869.43609037
_cell_formula_units_Z   1
loop_
 _symmetry_equiv_pos_site_id
 _symmetry_equiv_pos_as_xyz
  1  'x, y, z'
loop_
 _atom_site_type_symbol
 _atom_site_label
 _atom_site_symmetry_multiplicity
 _atom_site_fract_x
 _atom_site_fract_y
 _atom_site_fract_z
 _atom_site_occupancy
  V  V0  1  0.12023143  0.74743885  0.36163357  1
  V  V1  1  0.88077623  0.12866994  0.72981404  1
  V  V2  1  0.49685168  0.75241765  0.76001032  1
  V  V3  1  0.49855793  0.49886502  -0.00197929  1
  V  V4  1  0.24752074  0.24646792  -0.00432199  1
  V  V5  1  0.25430261  0.49615689  0.24756721  1
  V  V6  1  0.74276533  0.37713924  0.63250411  1
  V  V7  1  0.74495589  0.87738444  0.62443432  1
  V  V8  1  0.75123901  0.12938014  0.87334495  1
  V  V9  1  0.00152999  0.00091921  0.00210789  1
  V  V10  1  0.32574785  0.44047602  0.43185659  1
  V  V11  1  0.75331274  0.49963759  0.25433523  1
  V  V12  1  0.12701097  0.12381108  -0.00116432  1
  V  V13  1  0.00113182  0.49928942  -0.00567919  1
  V  V14  1  0.75416592  0.37440185  0.12372437  1
  V  V15  1  0.00592993  0.00130851  0.49815072  1
  V  V16  1  0.12454711  0.48998683  0.62746081  1
  V  V17  1  0.87630005  0.87771813  0.49875242  1
  V  V18  1  0.61905037  0.25452334  0.87208098  1
  V  V19  1  0.37005253  0.26767284  0.62023532  1
  V  V20  1  0.87688413  0.39074083  0.50517337  1
  V  V21  1  0.75771962  0.25295328  0.50071014  1
  V  V22  1  0.62862347  0.62428946  -0.00644743  1
  V  V23  1  0.88142652  0.62154522  0.25290476  1
  V  V24  1  0.62625699  0.50036467  0.12580853  1
  V  V25  1  -0.00099124  0.86659610  0.36241631  1
  V  V26  1  0.25073607  0.00203367  0.75192207  1
  V  V27  1  0.87558646  0.74779994  0.12832899  1
  V  V28  1  0.39608908  0.12505637  0.24556402  1
  V  V29  1  0.38968185  0.24271007  0.12477983  1
  V  V30  1  0.12644091  0.49993666  0.11620384  1
  V  V31  1  0.49862480  0.62740543  0.12586667  1
  V  V32  1  0.37007458  0.62569699  0.75282134  1
  V  V33  1  0.38201807  0.12274780  0.74070935  1
  V  V34  1  0.50216073  0.00520380  0.50671067  1
  V  V35  1  -0.00730391  0.24034973  0.25453620  1
  V  V36  1  0.24383554  0.48693470  0.74939214  1
  V  V37  1  -0.01345031  0.38646326  0.36998766  1
  V  V38  1  0.49865818  0.25553941  0.74609080  1
  V  V39  1  0.62627733  0.88062357  0.24807576  1
  V  V40  1  0.87303615  0.87411900  -0.00030447  1
  V  V41  1  0.11723786  0.62511053  0.50212816  1
  V  V42  1  0.74832010  0.75205334  0.49906967  1
  V  V43  1  0.37626710  0.87547445  0.49872221  1
  V  V44  1  0.00450042  0.62698868  0.12178852  1
  V  V45  1  0.37817893  0.62045224  0.25586262  1
  V  V46  1  0.75405422  0.62270951  0.37502936  1
  V  V47  1  0.00022082  0.87700122  0.87418170  1
  V  V48  1  0.50148297  0.61982775  0.62633438  1
  V  V49  1  0.62046770  0.13647434  0.49817347  1
  V  V50  1  0.24851127  0.87425918  0.62169169  1
  V  V51  1  0.25199253  0.12799640  0.37113263  1
  V  V52  1  0.37522865  0.49623727  0.87571401  1
  V  V53  1  0.74624930  0.00198568  0.74856848  1
  V  V54  1  -0.00167033  0.61925588  0.62668415  1
  V  V55  1  0.87608870  0.24041833  0.12544634  1
  V  V56  1  0.61894042  0.36505606  0.25504679  1
  V  V57  1  0.62573750  0.62209939  0.50454050  1
  V  V58  1  0.12495582  0.87680518  0.74991382  1
  V  V59  1  0.24108374  0.75613775  0.00672429  1
  V  V60  1  0.50062410  0.00225412  -0.00111666  1
  V  V61  1  0.25180534  0.36963308  0.12282037  1
  V  V62  1  0.86794669  0.50010050  0.86901016  1
  V  V63  1  0.38418882  0.87122079  -0.00014361  1
  V  V64  1  0.75771199  0.00055095  0.25041268  1
  V  V65  1  0.37445110  0.74956583  0.62544140  1
  V  V66  1  0.87521770  0.00319257  0.87297812  1
  V  V67  1  0.61850325  0.87743124  0.75686164  1
  V  V68  1  0.24894571  0.74842123  0.49910310  1
  V  V69  1  0.75839519  0.13317257  0.36991546  1
  V  V70  1  0.75166668  0.74524597  -0.00645621  1
  V  V71  1  0.37962104  0.00227944  0.37337961  1
  V  V72  1  0.50205043  0.87642235  0.37576711  1
  V  V73  1  0.13056123  -0.01350794  0.13341660  1
  V  V74  1  0.62117633  0.12699447  0.00617406  1
  V  V75  1  0.01206752  0.36404050  0.86636318  1
  V  V76  1  0.50660783  0.49168764  0.49542394  1
  V  V77  1  0.25197181  0.62330997  0.37692868  1
  V  V78  1  0.12366630  0.00550043  0.61875189  1
  V  V79  1  0.38199132  0.36953803  -0.00312200  1
  V  V80  1  0.12190402  0.24937883  0.37265245  1
  V  V81  1  0.87763724  0.75078637  0.62798494  1
  V  V82  1  0.62509630  0.75007364  0.37351498  1
  V  V83  1  0.23887680  0.62619913  0.88068265  1
  V  V84  1  0.12276768  0.37254749  0.24647435  1
  Zn  Zn85  1  0.75128708  0.25075350  -0.00222204  1
  Zn  Zn86  1  0.87853881  0.37184543  -0.00324219  1
  Zn  Zn87  1  0.61628617  0.38278538  0.75210283  1
  Zn  Zn88  1  0.38140920  -0.00328604  0.87298586  1
  Zn  Zn89  1  0.25513255  -0.01102676  0.24367779  1
  Zn  Zn90  1  0.01214308  0.25742182  0.72000476  1
  Zn  Zn91  1  0.49999602  0.36660793  0.37663365  1
  Zn  Zn92  1  0.74828439  0.87645680  0.12309067  1
  Zn  Zn93  1  0.49887237  0.75182639  0.25021801  1
  Zn  Zn94  1  0.25088632  0.12767948  0.87236793  1
  Zn  Zn95  1  0.61846451  0.00952243  0.62768968  1
  Zn  Zn96  1  0.73626670  0.51701333  0.74652330  1
  Zn  Zn97  1  0.62227720  0.00473681  0.12771489  1
  Zn  Zn98  1  0.12371677  0.12840713  0.49719299  1
  Zn  Zn99  1  0.12077719  0.74756351  0.87807309  1
  Zn  Zn100  1  0.00047045  0.12073451  0.13165516  1
  Zn  Zn101  1  0.62665150  0.75028091  0.87522987  1
  Zn  Zn102  1  0.00152717  0.75068232  0.75076141  1
  Zn  Zn103  1  0.25183559  0.25752512  0.50085664  1
  Zn  Zn104  1  0.87181326  0.62940595  0.75819727  1
  Zn  Zn105  1  0.88048223  0.00632523  0.37018499  1
  Zn  Zn106  1  0.36916258  0.75532625  0.12925149  1
  Zn  Zn107  1  0.18968039  0.17990751  0.18450257  1
  Zn  Zn108  1  0.19011572  0.19275910  0.68437707  1
  Zn  Zn109  1  0.18928854  0.68222837  0.18555110  1
  Zn  Zn110  1  0.18524145  0.68644366  0.69094998  1
  Zn  Zn111  1  0.69326089  0.18678236  0.18587522  1
  Zn  Zn112  1  0.68952114  0.19303146  0.68196613  1
  Zn  Zn113  1  0.68933950  0.68884218  0.18474069  1
  Zn  Zn114  1  0.68600265  0.69009029  0.68940207  1
  Zn  Zn115  1  0.31326365  0.30335814  0.30362510  1
  Zn  Zn116  1  0.31474538  0.30932786  0.81395003  1
  Zn  Zn117  1  0.31170115  0.81004635  0.30802715  1
  Zn  Zn118  1  0.31062322  0.81408108  0.81866878  1
  Zn  Zn119  1  0.81200935  0.31063918  0.31197606  1
  Zn  Zn120  1  0.82420783  0.30885427  0.81017962  1
  Zn  Zn121  1  0.81403038  0.81094893  0.31043375  1
  Zn  Zn122  1  0.80993725  0.81349196  0.81173993  1
  Zn  Zn123  1  0.16025004  0.43924198  0.43846115  1
  Zn  Zn124  1  0.18935330  0.43283994  0.93587775  1
  Zn  Zn125  1  0.20020430  0.92177763  0.40367251  1
  Zn  Zn126  1  0.18834669  0.93657444  0.93862985  1
  Zn  Zn127  1  0.68931117  0.43797369  0.43752382  1
  Zn  Zn128  1  0.68749290  0.43628355  0.93627724  1
  Zn  Zn129  1  0.68545019  0.94553138  0.43373432  1
  Zn  Zn130  1  0.68687606  0.93935253  0.93752135  1
  Zn  Zn131  1  0.31331691  0.05748424  0.06528594  1
  Zn  Zn132  1  0.30851832  0.06618929  0.55963216  1
  Zn  Zn133  1  0.31195304  0.56570680  0.06227281  1
  Zn  Zn134  1  0.30903630  0.56362249  0.56944871  1
  Zn  Zn135  1  0.80896061  0.06258477  0.06185450  1
  Zn  Zn136  1  0.80495326  0.05805530  0.55507784  1
  Zn  Zn137  1  0.81545475  0.56004081  0.06011402  1
  Zn  Zn138  1  0.80952135  0.56175529  0.56917523  1
  Zn  Zn139  1  0.43804064  0.43687424  0.18481929  1
  Zn  Zn140  1  0.43863302  0.43982007  0.68852551  1
  Zn  Zn141  1  0.44092974  0.93808301  0.18156946  1
  Zn  Zn142  1  0.43679577  0.93611574  0.68604148  1
  Zn  Zn143  1  0.93676142  0.43686150  0.18504749  1
  Zn  Zn144  1  0.93784570  0.43533185  0.68880495  1
  Zn  Zn145  1  0.93733784  0.93623121  0.18493452  1
  Zn  Zn146  1  0.93840445  0.94407584  0.68726311  1
  Zn  Zn147  1  0.06233815  0.06020532  0.31525213  1
  Zn  Zn148  1  0.08062666  0.10148832  0.79226099  1
  Zn  Zn149  1  0.06590839  0.56323021  0.30594833  1
  Zn  Zn150  1  0.05842437  0.56035299  0.81024939  1
  Zn  Zn151  1  0.56853460  0.18833617  0.32077560  1
  Zn  Zn152  1  0.55936751  0.06592010  0.81757745  1
  Zn  Zn153  1  0.56466498  0.55759176  0.31563005  1
  Zn  Zn154  1  0.55993267  0.56176405  0.81335750  1
  Zn  Zn155  1  0.43532140  0.19140274  0.44191946  1
  Zn  Zn156  1  0.43750350  0.18214435  0.93067128  1
  Zn  Zn157  1  0.43936419  0.68572530  0.43679428  1
  Zn  Zn158  1  0.43152544  0.68484624  0.93957244  1
  Zn  Zn159  1  0.93397525  0.18561840  0.54478066  1
  Zn  Zn160  1  0.93656357  0.18623291  0.93927810  1
  Zn  Zn161  1  0.93656788  0.68652722  0.43933656  1
  Zn  Zn162  1  0.93944002  0.68398822  0.93957098  1
  Zn  Zn163  1  0.06064442  0.30998274  0.06002722  1
  Zn  Zn164  1  0.06071943  0.31753147  0.55120064  1
  Zn  Zn165  1  0.06040808  0.81258301  0.06484070  1
  Zn  Zn166  1  0.06157970  0.81315061  0.55951635  1
  Zn  Zn167  1  0.56668843  0.31320195  0.06168853  1
  Zn  Zn168  1  0.56112690  0.30680297  0.56664540  1
  Zn  Zn169  1  0.56206762  0.81210267  0.06344314  1
  Zn  Zn170  1  0.56138240  0.81154202  0.56625418  1
  O  O171  1  0.12161778  0.11382075  0.11475280  1
  O  O172  1  0.13766273  0.10788178  0.61426768  1
  O  O173  1  0.11408965  0.61356596  0.13096552  1
  O  O174  1  0.11565599  0.62347460  0.62041925  1
  O  O175  1  0.63097019  0.12757982  0.10951590  1
  O  O176  1  0.63619571  0.12367387  0.60521351  1
  O  O177  1  0.61779381  0.61960389  0.11876980  1
  O  O178  1  0.61498633  0.63425949  0.61256605  1
  O  O179  1  0.37698424  0.37887910  0.36788559  1
  O  O180  1  0.37015816  0.38332453  0.88542942  1
  O  O181  1  0.38471845  0.88148115  0.38044246  1
  O  O182  1  0.37050273  0.87785784  0.89276196  1
  O  O183  1  0.88227662  0.37778353  0.37720458  1
  O  O184  1  0.88479202  0.38404571  0.87628132  1
  O  O185  1  0.88443404  0.87068978  0.38277776  1
  O  O186  1  0.87992532  0.88192337  0.87880714  1
  O  O187  1  0.26998216  0.01270554  0.38373458  1
  O  O188  1  0.25127367  -0.00379394  0.85925963  1
  O  O189  1  0.25511418  0.49936872  0.37475397  1
  O  O190  1  0.25486162  0.50623507  0.86970455  1
  O  O191  1  0.75360179  0.00993610  0.36782468  1
  O  O192  1  0.75249577  0.01159666  0.86839287  1
  O  O193  1  0.74573350  0.50666577  0.36186024  1
  O  O194  1  0.76572463  0.49450592  0.87571283  1
  O  O195  1  0.24325345  0.49353572  0.12550948  1
  O  O196  1  0.24251494  0.50503165  0.64206042  1
  O  O197  1  0.23608482  0.99714182  0.12704452  1
  O  O198  1  0.24689285  0.99144645  0.63168938  1
  O  O199  1  0.74682415  0.49333482  0.13253972  1
  O  O200  1  0.75246656  0.48262689  0.62844927  1
  O  O201  1  0.74585920  0.99913220  0.13466071  1
  O  O202  1  0.74701249  0.98841533  0.62793079  1
  O  O203  1  0.00141070  0.36918674  0.25612926  1
  O  O204  1  -0.00160564  0.36801454  0.76020619  1
  O  O205  1  -0.00740762  0.87183458  0.26386074  1
  O  O206  1  0.00763906  0.87811188  0.75753893  1
  O  O207  1  0.51706533  0.38279095  0.24915975  1
  O  O208  1  0.49789736  0.36169676  0.74864567  1
  O  O209  1  0.50834280  0.87514571  0.25701279  1
  O  O210  1  0.50647394  0.86519128  0.74347153  1
  O  O211  1  0.49411064  0.12270891  0.25264341  1
  O  O212  1  0.48749155  0.13161387  0.75041820  1
  O  O213  1  0.49421294  0.62239662  0.24536817  1
  O  O214  1  0.49221801  0.63101970  0.74252874  1
  O  O215  1  1.00101150  0.13652524  0.25263369  1
  O  O216  1  0.97429840  0.09558052  0.74773776  1
  O  O217  1  0.98844051  0.61739344  0.23980156  1
  O  O218  1  0.99475246  0.63151048  0.74182794  1
  O  O219  1  0.37263494  0.25371845  0.00391446  1
  O  O220  1  0.37195425  0.25098102  0.51605324  1
  O  O221  1  0.36869489  0.75889292  0.00277071  1
  O  O222  1  0.37008444  0.75346098  0.50477610  1
  O  O223  1  0.87242824  0.25303538  0.00940903  1
  O  O224  1  0.86161759  0.26233431  0.49254919  1
  O  O225  1  0.86964332  0.75117362  0.00713858  1
  O  O226  1  0.86968687  0.75953660  0.50929198  1
  O  O227  1  0.13092408  0.25303323  0.48246908  1
  O  O228  1  0.13535996  0.23802048  1.00879950  1
  O  O229  1  0.13034664  0.74020073  0.49576735  1
  O  O230  1  0.13724409  0.75521878  0.99808548  1
  O  O231  1  0.63392960  0.24210130  0.50202939  1
  O  O232  1  0.62675438  0.24373441  0.99097078  1
  O  O233  1  0.62905728  0.74484056  0.49339342  1
  O  O234  1  0.63305414  0.74286158  0.99957636  1
  O  O235  1  0.48846999  0.25218763  0.11961352  1
  O  O236  1  0.48437310  0.25027181  0.63226046  1
  O  O237  1  0.49997059  0.73628189  0.12833479  1
  O  O238  1  0.49281864  0.73945686  0.63098234  1
  O  O239  1  0.99258252  0.24903460  0.13457756  1
  O  O240  1  1.00193015  0.24514206  0.60908275  1
  O  O241  1  0.99169712  0.73633193  0.11649084  1
  O  O242  1  0.99199392  0.74407512  0.62506408  1
  O  O243  1  0.00826718  0.26253999  0.36457113  1
  O  O244  1  -0.00230839  0.26543380  0.88402770  1
  O  O245  1  0.00479387  0.75715172  0.37724780  1
  O  O246  1  -0.00026677  0.76300264  0.87623018  1
  O  O247  1  0.50006684  0.25421722  0.37827903  1
  O  O248  1  0.50885456  0.24479185  0.86336807  1
  O  O249  1  0.50814312  0.75651351  0.37387528  1
  O  O250  1  0.49767905  0.74343887  0.86233738  1
  O  O251  1  0.24974016  0.13164635  0.48445325  1
  O  O252  1  0.24612735  0.13017869  1.00147179  1
  O  O253  1  0.24492552  0.63001395  0.49570867  1
  O  O254  1  0.25696015  0.63894727  0.99092373  1
  O  O255  1  0.74540015  0.13415983  0.49092098  1
  O  O256  1  0.74241963  0.12660775  0.98850140  1
  O  O257  1  0.74258719  0.63000221  0.49869941  1
  O  O258  1  0.74006153  0.63095111  1.00699179  1
  O  O259  1  0.25974409  0.36737434  0.00507966  1
  O  O260  1  0.25824775  0.38414686  0.48280479  1
  O  O261  1  0.25708257  0.86040213  -0.00273423  1
  O  O262  1  0.25675982  0.86661100  0.49935529  1
  O  O263  1  0.74932345  0.37397938  0.01415651  1
  O  O264  1  0.75720668  0.37201509  0.50433722  1
  O  O265  1  0.75673433  0.86835748  0.00077037  1
  O  O266  1  0.75497395  0.87386149  0.50453030  1
  O  O267  1  0.13310580  0.49238499  0.23863995  1
  O  O268  1  0.13684750  0.50411220  0.74401535  1
  O  O269  1  0.12277196  1.00421560  0.23515999  1
  O  O270  1  0.13224491  0.99593335  0.74036110  1
  O  O271  1  0.63413537  0.49559738  0.24242212  1
  O  O272  1  0.62663778  0.49426682  0.75898706  1
  O  O273  1  0.63674823  0.98503650  0.25032446  1
  O  O274  1  0.62680411  0.99630576  0.74769125  1
  O  O275  1  0.37829577  0.00900066  0.25553351  1
  O  O276  1  0.37059025  0.00711118  0.74815740  1
  O  O277  1  0.36749898  0.50779322  0.24339764  1
  O  O278  1  0.36484452  0.50375507  0.75738912  1
  O  O279  1  0.86270791  -0.00495449  0.25117318  1
  O  O280  1  0.86085835  0.00196721  0.75308562  1
  O  O281  1  0.86509877  0.50907133  0.24294044  1
  O  O282  1  0.87357798  0.49979969  0.76238172  1
  O  O283  1  0.11460599  0.36836729  0.36496390  1
  O  O284  1  0.11095439  0.37720218  0.87568608  1
  O  O285  1  0.10521763  0.85952751  0.38392953  1
  O  O286  1  0.11672300  0.87703004  0.86652837  1
  O  O287  1  0.62693222  0.38000612  0.35717571  1
  O  O288  1  0.63300072  0.35793437  0.87297403  1
  O  O289  1  0.61970373  0.87063799  0.37073788  1
  O  O290  1  0.63074010  0.87250198  0.86019125  1
  O  O291  1  0.37500347  0.12673868  0.13816742  1
  O  O292  1  0.37023877  0.12745005  0.63836824  1
  O  O293  1  0.38297429  0.62604379  0.13495315  1
  O  O294  1  0.38037714  0.63093832  0.63232206  1
  O  O295  1  0.87694792  0.13637380  0.12145558  1
  O  O296  1  0.87113083  0.12222241  0.62535863  1
  O  O297  1  0.88364492  0.62861091  0.12951900  1
  O  O298  1  0.88403354  0.63488174  0.62012022  1
  O  O299  1  0.25961728  0.25209204  0.11616870  1
  O  O300  1  0.26356504  0.25142326  0.62228537  1
  O  O301  1  0.25051621  0.74263777  0.11073323  1
  O  O302  1  0.25399985  0.75371848  0.61946941  1
  O  O303  1  0.75947846  0.25769121  0.12494022  1
  O  O304  1  0.75302003  0.26281459  0.61276134  1
  O  O305  1  0.75927468  0.75050942  0.11367144  1
  O  O306  1  0.75554783  0.76228244  0.61826248  1
  O  O307  1  0.24227871  0.24456214  0.37202395  1
  O  O308  1  0.25507644  0.24828462  0.89096047  1
  O  O309  1  0.24079289  0.73966163  0.38182207  1
  O  O310  1  0.24624761  0.74218929  0.88498892  1
  O  O311  1  0.74922831  0.24034958  0.37864932  1
  O  O312  1  0.74836103  0.24002951  0.87162531  1
  O  O313  1  0.74522329  0.74426671  0.38150621  1
  O  O314  1  0.75149021  0.75101618  0.88879027  1
  O  O315  1  0.00603709  0.11278143  0.00043630  1
  O  O316  1  0.00155090  0.10557624  0.49056047  1
  O  O317  1  -0.00027343  0.60999561  0.00801623  1
  O  O318  1  0.00790525  0.62869521  0.50899738  1
  O  O319  1  0.50983979  0.11788265  -0.00503179  1
  O  O320  1  0.51300545  0.12066735  0.49706545  1
  O  O321  1  0.50331025  0.61990938  0.00890583  1
  O  O322  1  0.50663676  0.61807188  0.50552586  1
  O  O323  1  0.50793105  0.38868593  0.50299536  1
  O  O324  1  0.48901989  0.38172034  1.00486281  1
  O  O325  1  0.49632812  0.88084193  0.49573283  1
  O  O326  1  0.49060859  0.87694196  0.99812869  1
  O  O327  1  0.98470031  0.37746081  0.48354364  1
  O  O328  1  1.00086818  0.38601599  0.99498639  1
  O  O329  1  0.99034428  0.87938186  0.49363781  1
  O  O330  1  0.99399266  0.88209583  0.99474508  1
  O  O331  1  0.50005129  0.49624322  0.39020272  1
  O  O332  1  0.48216008  0.50781738  0.88258178  1
  O  O333  1  0.48816743  0.99490019  0.38864062  1
  O  O334  1  0.49958742  1.00016607  0.88951494  1
  O  O335  1  1.00702310  0.48427088  0.36730838  1
  O  O336  1  0.99554856  0.49045871  0.87937529  1
  O  O337  1  0.99902449  0.98482344  0.37861745  1
  O  O338  1  0.99410716  0.98793452  0.88517247  1
  O  O339  1  0.00522038  0.00044143  0.11749123  1
  O  O340  1  0.01254497  -0.01012879  0.61249462  1
  O  O341  1  0.00729939  0.50350592  0.11680112  1
  O  O342  1  0.00787786  0.51113375  0.63322604  1
  O  O343  1  0.50677633  -0.00447972  0.10752879  1
  O  O344  1  0.49974791  -0.00363741  0.61101183  1
  O  O345  1  0.50495994  0.50974353  0.11866368  1
  O  O346  1  0.49262536  0.51360739  0.61531234  1
  O  O347  1  0.24559043  0.37768383  0.24186032  1
  O  O348  1  0.25042327  0.38864136  0.75809041  1
  O  O349  1  0.23808876  0.88954941  0.29501381  1
  O  O350  1  0.24329354  0.88033283  0.74445787  1
  O  O351  1  0.74321069  0.38093708  0.24245318  1
  O  O352  1  0.75692524  0.36699890  0.73482797  1
  O  O353  1  0.74502059  0.88122127  0.25011061  1
  O  O354  1  0.74148881  0.87980063  0.74154842  1
  O  O355  1  0.25564438  0.11823901  0.26099145  1
  O  O356  1  0.26016393  0.11590419  0.74959473  1
  O  O357  1  0.25670126  0.61569794  0.25739186  1
  O  O358  1  0.25478666  0.62125661  0.75997765  1
  O  O359  1  0.74253212  0.11759657  0.26306331  1
  O  O360  1  0.76179493  0.12252337  0.75118158  1
  O  O361  1  0.75760233  0.61766405  0.25240608  1
  O  O362  1  0.75993023  0.62770071  0.74024111  1
  O  O363  1  0.37355209  0.12117081  0.36358049  1
  O  O364  1  0.37038808  0.11984745  0.85907814  1
  O  O365  1  0.37040787  0.62691990  0.36390734  1
  O  O366  1  0.36372726  0.61693483  0.87104879  1
  O  O367  1  0.85711045  0.12331393  0.38002584  1
  O  O368  1  0.86698147  0.11876188  0.87256453  1
  O  O369  1  0.86897110  0.63165607  0.36372509  1
  O  O370  1  0.88434941  0.60584407  0.87566724  1
  O  O371  1  0.13015230  0.37973503  0.12851919  1
  O  O372  1  0.12331860  0.39126826  0.61272295  1
  O  O373  1  0.11951696  0.88747808  0.12636904  1
  O  O374  1  0.13082000  0.87986300  0.63083865  1
  O  O375  1  0.63284645  0.37971269  0.13400852  1
  O  O376  1  0.63932910  0.36953828  0.62900167  1
  O  O377  1  0.62795388  0.87285142  0.13555093  1
  O  O378  1  0.63193114  0.87620898  0.63392708  1
  O  O379  1  0.11968392  0.25340102  0.25434511  1
  O  O380  1  0.10708908  0.20665900  0.75540591  1
  O  O381  1  0.12661626  0.73891231  0.26262485  1
  O  O382  1  0.12369765  0.76577917  0.75214068  1
  O  O383  1  0.62643955  0.26097407  0.24611803  1
  O  O384  1  0.61454687  0.24801439  0.75356861  1
  O  O385  1  0.62745533  0.75838115  0.25849018  1
  O  O386  1  0.61398504  0.75791007  0.75163570  1
  O  O387  1  0.37575976  0.23330978  0.23952272  1
  O  O388  1  0.37852298  0.24163678  0.74280653  1
  O  O389  1  0.37656157  0.73974524  0.24755242  1
  O  O390  1  0.37872955  0.74768935  0.74614982  1
  O  O391  1  0.88348597  0.25456892  0.24128011  1
  O  O392  1  0.88843009  0.22966951  0.74941238  1
  O  O393  1  0.86825797  0.73905135  0.23526812  1
  O  O394  1  0.87723070  0.75574989  0.73668784  1
  O  O395  1  0.37966205  0.49961391  0.49777174  1
  O  O396  1  0.37616890  0.49135791  0.99458173  1
  O  O397  1  0.38178435  0.99718916  0.49580603  1
  O  O398  1  0.38144663  0.99012033  0.99952253  1
  O  O399  1  0.86746442  0.48891834  0.49594907  1
  O  O400  1  0.88396582  0.49512633  0.99112835  1
  O  O401  1  0.88069489  0.98824246  0.49686477  1
  O  O402  1  0.88203385  0.99580146  0.99559277  1
  O  O403  1  0.11802615  -0.00025636  0.01013304  1
  O  O404  1  0.11891772  -0.00687494  0.50310022  1
  O  O405  1  0.12175737  0.49542282  0.01025617  1
  O  O406  1  0.13051840  0.51705097  0.51231972  1
  O  O407  1  0.62005180  0.00919603  -0.00040666  1
  O  O408  1  0.61698729  0.01036056  0.50111877  1
  O  O409  1  0.62008036  0.50505344  0.00431765  1
  O  O410  1  0.61791443  0.50986749  0.49827674  1
  O  O411  1  0.37070118  0.36573095  0.11853299  1
  O  O412  1  0.37244556  0.36642420  0.62834588  1
  O  O413  1  0.37612145  0.87262510  0.10946506  1
  O  O414  1  0.36829535  0.86864265  0.61794598  1
  O  O415  1  0.86748951  0.36736697  0.12328380  1
  O  O416  1  0.87153678  0.37946976  0.60924344  1
  O  O417  1  0.87524380  0.86388542  0.11764177  1
  O  O418  1  0.86862280  0.87093368  0.61800475  1
  O  O419  1  0.13310083  0.13217545  0.37408964  1
  O  O420  1  0.13277810  0.10926184  0.89498224  1
  O  O421  1  0.12811279  0.62695990  0.38305332  1
  O  O422  1  0.13496724  0.62571596  0.87093830  1
  O  O423  1  0.63758646  0.12560369  0.39113944  1
  O  O424  1  0.63380271  0.13475761  0.87927420  1
  O  O425  1  0.63105013  0.63069148  0.38367071  1
  O  O426  1  0.61745950  0.62836483  0.89083889  1
