# generated using pymatgen
data_V85Zn86O256
_symmetry_space_group_name_H-M   'P 1'
_cell_length_a   16.93221183
_cell_length_b   16.93440382
_cell_length_c   16.92752564
_cell_angle_alpha   89.99259061
_cell_angle_beta   90.02615702
_cell_angle_gamma   89.92923901
_symmetry_Int_Tables_number   1
_chemical_formula_structural   V85Zn86O256
_chemical_formula_sum   'V85 Zn86 O256'
_cell_volume   4853.74219430
_cell_formula_units_Z   1
loop_
 _symmetry_equiv_pos_site_id
 _symmetry_equiv_pos_as_xyz
  1  'x, y, z'
loop_
 _atom_site_type_symbol
 _atom_site_label
 _atom_site_symmetry_multiplicity
 _atom_site_fract_x
 _atom_site_fract_y
 _atom_site_fract_z
 _atom_site_occupancy
  V  V0  1  -0.00920385  0.12660060  0.62802766  1
  V  V1  1  0.74502652  0.13324248  0.37194978  1
  V  V2  1  0.00119378  0.87219028  0.86645141  1
  V  V3  1  0.87359004  0.87590394  -0.00140305  1
  V  V4  1  -0.00138151  0.00475020  0.00158891  1
  V  V5  1  0.87537725  0.00371240  0.86618654  1
  V  V6  1  0.12447152  0.87358239  0.25152966  1
  V  V7  1  0.50568078  0.62308818  0.62380849  1
  V  V8  1  0.87057012  0.75361331  0.62434350  1
  V  V9  1  0.26148199  0.86165278  0.61462729  1
  V  V10  1  0.30752788  0.68046487  0.43381445  1
  V  V11  1  0.24367935  0.74479134  -0.01498137  1
  V  V12  1  0.74781200  0.50627369  0.73970797  1
  V  V13  1  0.37306559  0.49426195  0.38945311  1
  V  V14  1  0.62012707  0.51750815  0.12591186  1
  V  V15  1  0.12460767  0.63056635  0.49465604  1
  V  V16  1  0.62226124  0.25734783  0.87568452  1
  V  V17  1  0.73404078  0.62715418  0.38256036  1
  V  V18  1  0.36702357  0.62311636  0.75055925  1
  V  V19  1  0.49836506  0.87521966  0.87406474  1
  V  V20  1  0.37179239  0.00265405  0.87386308  1
  V  V21  1  0.37306774  0.87558060  -0.00037875  1
  V  V22  1  0.50510957  0.37027785  0.38158467  1
  V  V23  1  0.74407960  0.74611439  0.00097250  1
  V  V24  1  0.75145977  0.36384461  0.62745754  1
  V  V25  1  0.62590454  0.87009569  0.25397047  1
  V  V26  1  0.12310720  0.49272863  0.62557460  1
  V  V27  1  0.00337471  0.63161479  0.62819961  1
  V  V28  1  0.38572606  0.37544787  -0.00004706  1
  V  V29  1  0.48965306  0.74808977  0.74845388  1
  V  V30  1  0.88233418  0.12275785  0.24457896  1
  V  V31  1  0.24916299  0.37830336  0.12363705  1
  V  V32  1  0.62400633  0.74810273  0.87338574  1
  V  V33  1  0.12924405  0.24906460  0.37194096  1
  V  V34  1  0.62414894  0.12524166  -0.00271297  1
  V  V35  1  0.62585724  0.87536266  0.74279450  1
  V  V36  1  0.50403216  0.51706204  -0.00162872  1
  V  V37  1  0.37319965  0.25859030  0.62162638  1
  V  V38  1  0.88128024  0.62237480  0.25338418  1
  V  V39  1  0.50984027  0.24997706  0.25394853  1
  V  V40  1  0.87757017  0.36872148  0.50455532  1
  V  V41  1  0.13058582  0.12665198  0.49760901  1
  V  V42  1  0.25037499  0.00470822  0.25431235  1
  V  V43  1  0.25250094  0.25894292  0.49478465  1
  V  V44  1  0.75198462  -0.00253669  0.24852516  1
  V  V45  1  0.62623299  -0.00191670  0.12299384  1
  V  V46  1  0.87694227  -0.00053807  0.37380463  1
  V  V47  1  0.50061671  0.87159844  0.38127207  1
  V  V48  1  0.37273545  0.12809548  0.25466129  1
  V  V49  1  0.37889945  0.62252175  0.24291646  1
  V  V50  1  0.51866269  0.49213392  0.50865608  1
  V  V51  1  0.49871760  0.12577546  0.12575265  1
  V  V52  1  0.74485480  0.37565924  0.12629192  1
  V  V53  1  0.00111041  0.25088490  0.24790960  1
  V  V54  1  0.24988595  0.87108202  0.12318559  1
  V  V55  1  0.75140673  0.12637038  0.86834893  1
  V  V56  1  0.12264961  0.51352233  0.12625207  1
  V  V57  1  0.49923308  -0.00007353  -0.00101961  1
  V  V58  1  0.00168506  0.86880376  0.37892446  1
  V  V59  1  0.25049112  0.50443726  0.25711777  1
  V  V60  1  0.24710527  0.12176387  0.87325426  1
  V  V61  1  0.36919963  0.12380832  0.74924585  1
  V  V62  1  0.50165987  0.12459243  0.62383839  1
  V  V63  1  0.50390965  0.74563488  0.24326073  1
  V  V64  1  0.12156968  0.00330915  0.12509763  1
  V  V65  1  -0.00230651  0.50943188  0.00478898  1
  V  V66  1  0.87655262  0.63192165  0.75035078  1
  V  V67  1  0.86289999  0.87368902  0.50224908  1
  V  V68  1  0.49735070  0.25572030  0.75456369  1
  V  V69  1  0.12251563  0.12919624  0.00417183  1
  V  V70  1  0.00251718  0.00052794  0.50149388  1
  V  V71  1  0.88146255  0.74631375  0.12565822  1
  V  V72  1  0.12533343  0.25236504  0.86535235  1
  V  V73  1  0.24291772  0.49230337  0.75678743  1
  V  V74  1  0.00147311  0.37410313  0.87223052  1
  V  V75  1  0.37198808  0.50070902  0.87802427  1
  V  V76  1  0.87992738  0.24712940  0.12218638  1
  V  V77  1  0.74376768  0.62299614  0.87455816  1
  V  V78  1  0.87414123  0.37686479  0.00039906  1
  V  V79  1  0.75035696  -0.00182324  0.74153762  1
  V  V80  1  0.13688544  0.00245247  0.62956449  1
  V  V81  1  0.62161626  0.38218328  0.74679751  1
  V  V82  1  -0.01641729  0.24858206  0.74681530  1
  V  V83  1  0.13231545  0.87341087  0.74937998  1
  V  V84  1  0.37419892  -0.00171314  0.38151852  1
  Zn  Zn85  1  0.00643683  0.74423255  0.24451034  1
  Zn  Zn86  1  0.87359110  0.50016864  0.37906137  1
  Zn  Zn87  1  0.74754818  0.24867369  0.50096319  1
  Zn  Zn88  1  0.12340287  0.37860541  0.24951668  1
  Zn  Zn89  1  0.06477049  0.70814622  0.81453235  1
  Zn  Zn90  1  0.13452205  0.74684318  0.37625780  1
  Zn  Zn91  1  0.37378884  0.25228020  0.12665605  1
  Zn  Zn92  1  0.49892956  -0.00202697  0.50308014  1
  Zn  Zn93  1  0.12348097  0.62928103  -0.01282513  1
  Zn  Zn94  1  0.62728454  0.00050810  0.61860596  1
  Zn  Zn95  1  0.24603896  0.37349758  0.62789288  1
  Zn  Zn96  1  0.87149761  0.50009014  0.87397885  1
  Zn  Zn97  1  0.61834657  0.12907810  0.49052107  1
  Zn  Zn98  1  0.74770661  0.50206369  0.25303230  1
  Zn  Zn99  1  0.73082529  0.74912130  0.49659835  1
  Zn  Zn100  1  0.37921977  0.74307508  0.11928099  1
  Zn  Zn101  1  0.75071562  0.87332560  0.12485927  1
  Zn  Zn102  1  -0.00246832  0.37644336  0.37499634  1
  Zn  Zn103  1  0.25060807  0.25385660  -0.00013402  1
  Zn  Zn104  1  0.74924388  0.25002851  -0.00095775  1
  Zn  Zn105  1  -0.00199158  0.50140290  0.49829261  1
  Zn  Zn106  1  0.62806693  0.37352082  0.25442424  1
  Zn  Zn107  1  0.18940558  0.18931025  0.18520670  1
  Zn  Zn108  1  0.18529828  0.18881472  0.68617908  1
  Zn  Zn109  1  0.19206436  0.68752492  0.18875115  1
  Zn  Zn110  1  0.19239113  0.68524496  0.68227131  1
  Zn  Zn111  1  0.69138731  0.18647301  0.18594551  1
  Zn  Zn112  1  0.68503790  0.18858479  0.68930749  1
  Zn  Zn113  1  0.69600486  0.68911431  0.19302026  1
  Zn  Zn114  1  0.66548445  0.70386177  0.65365497  1
  Zn  Zn115  1  0.31607711  0.31700761  0.31311684  1
  Zn  Zn116  1  0.31305429  0.31500076  0.81670147  1
  Zn  Zn117  1  0.31957560  0.81632084  0.30616395  1
  Zn  Zn118  1  0.30918787  0.81675536  0.80684327  1
  Zn  Zn119  1  0.81604001  0.31545908  0.31122388  1
  Zn  Zn120  1  0.80987074  0.31484506  0.81324730  1
  Zn  Zn121  1  0.81149467  0.80652038  0.31678964  1
  Zn  Zn122  1  0.81124347  0.81281674  0.81044122  1
  Zn  Zn123  1  0.18241926  0.43746494  0.43814545  1
  Zn  Zn124  1  0.18604649  0.43960412  0.94019633  1
  Zn  Zn125  1  0.18986291  0.93597983  0.43913414  1
  Zn  Zn126  1  0.18533210  0.93797559  0.93511456  1
  Zn  Zn127  1  0.69247239  0.43671822  0.43735305  1
  Zn  Zn128  1  0.68515078  0.44083346  0.93821319  1
  Zn  Zn129  1  0.68451304  0.94489995  0.43653808  1
  Zn  Zn130  1  0.68793995  0.93522044  0.93229223  1
  Zn  Zn131  1  0.30958025  0.06361124  0.06457739  1
  Zn  Zn132  1  0.31187526  0.06847899  0.56162057  1
  Zn  Zn133  1  0.31045800  0.56316972  0.06216106  1
  Zn  Zn134  1  0.31369422  0.55887201  0.57307026  1
  Zn  Zn135  1  0.81148802  0.06378066  0.05903372  1
  Zn  Zn136  1  0.81306381  0.06312504  0.55821504  1
  Zn  Zn137  1  0.80938271  0.56427985  0.06499586  1
  Zn  Zn138  1  0.81362612  0.56040650  0.56204124  1
  Zn  Zn139  1  0.43948793  0.43827369  0.18942405  1
  Zn  Zn140  1  0.43585759  0.43821930  0.68955067  1
  Zn  Zn141  1  0.43766710  0.93653792  0.18893564  1
  Zn  Zn142  1  0.43455763  0.94053739  0.68831625  1
  Zn  Zn143  1  0.93653373  0.43853803  0.18719802  1
  Zn  Zn144  1  0.93565965  0.44007197  0.68622152  1
  Zn  Zn145  1  0.93965773  0.93396762  0.18420715  1
  Zn  Zn146  1  0.94175708  0.93816135  0.68505573  1
  Zn  Zn147  1  0.06279492  0.06443344  0.31426202  1
  Zn  Zn148  1  0.06260811  0.06240582  0.80917837  1
  Zn  Zn149  1  0.06040484  0.56124952  0.31674412  1
  Zn  Zn150  1  0.06092059  0.54826426  0.81330631  1
  Zn  Zn151  1  0.56124463  0.05735616  0.31062306  1
  Zn  Zn152  1  0.56179305  0.06508649  0.80945959  1
  Zn  Zn153  1  0.56129448  0.55685227  0.31455831  1
  Zn  Zn154  1  0.55962383  0.56263827  0.81364622  1
  Zn  Zn155  1  0.43537311  0.18843539  0.43663323  1
  Zn  Zn156  1  0.43652031  0.19087685  0.93778402  1
  Zn  Zn157  1  0.47823531  0.68255636  0.43449745  1
  Zn  Zn158  1  0.43050826  0.68747400  0.93381063  1
  Zn  Zn159  1  0.93741020  0.18953150  0.43648597  1
  Zn  Zn160  1  0.93665483  0.18696265  0.93481160  1
  Zn  Zn161  1  0.93686785  0.68758998  0.43870561  1
  Zn  Zn162  1  0.92993938  0.68716279  0.93900316  1
  Zn  Zn163  1  0.06293016  0.31661838  0.06196381  1
  Zn  Zn164  1  0.06018879  0.30938422  0.56329149  1
  Zn  Zn165  1  0.06221937  0.81556481  0.05882384  1
  Zn  Zn166  1  0.06445873  0.81120643  0.56600885  1
  Zn  Zn167  1  0.56067224  0.31237482  0.06487855  1
  Zn  Zn168  1  0.56789735  0.30816180  0.56317737  1
  Zn  Zn169  1  0.56400173  0.81124714  0.06383542  1
  Zn  Zn170  1  0.55384701  0.81156404  0.56590470  1
  O  O171  1  0.12930833  0.12137079  0.11107276  1
  O  O172  1  0.11883041  0.11939787  0.61872506  1
  O  O173  1  0.12818958  0.61581118  0.12172865  1
  O  O174  1  0.11954408  0.61799083  0.61994320  1
  O  O175  1  0.62126527  0.11824508  0.11847981  1
  O  O176  1  0.60896479  0.12308887  0.63376399  1
  O  O177  1  0.62981207  0.61554348  0.12723217  1
  O  O178  1  0.60072615  0.60752040  0.65160833  1
  O  O179  1  0.39065167  0.38497063  0.37200183  1
  O  O180  1  0.37243186  0.38702205  0.88695880  1
  O  O181  1  0.39034868  0.88445120  0.36568244  1
  O  O182  1  0.37791677  0.88302246  0.87851589  1
  O  O183  1  0.87327406  0.37709354  0.38833129  1
  O  O184  1  0.88135747  0.37436872  0.88443031  1
  O  O185  1  0.88320481  0.87897352  0.38068014  1
  O  O186  1  0.88091159  0.88421985  0.87801593  1
  O  O187  1  0.25724071  -0.00758482  0.36184087  1
  O  O188  1  0.25409815  0.01414641  0.87958820  1
  O  O189  1  0.25879506  0.49009095  0.36751219  1
  O  O190  1  0.25704759  0.49737475  0.86996981  1
  O  O191  1  0.75931620  0.00688571  0.36559702  1
  O  O192  1  0.75712181  0.00611644  0.86716426  1
  O  O193  1  0.75220862  0.51193167  0.37269191  1
  O  O194  1  0.75069285  0.50794189  0.86886237  1
  O  O195  1  0.24262810  0.49575588  0.13092632  1
  O  O196  1  0.24097653  0.49509637  0.63454867  1
  O  O197  1  0.24356649  0.98995884  0.13207836  1
  O  O198  1  0.23907558  1.00067214  0.62121611  1
  O  O199  1  0.73529322  0.49422012  0.12331190  1
  O  O200  1  0.75155188  0.49294039  0.63700358  1
  O  O201  1  0.74504239  0.99875262  0.13070134  1
  O  O202  1  0.74971637  1.00788012  0.63788374  1
  O  O203  1  -0.00033547  0.36204432  0.24904071  1
  O  O204  1  -0.00800947  0.36331461  0.75937738  1
  O  O205  1  0.01265754  0.87606063  0.25629609  1
  O  O206  1  0.01171483  0.87904744  0.75655796  1
  O  O207  1  0.50240541  0.36554039  0.25670596  1
  O  O208  1  0.50773234  0.36764955  0.74716977  1
  O  O209  1  0.50798718  0.86992014  0.25524113  1
  O  O210  1  0.49992725  0.86698024  0.75606352  1
  O  O211  1  0.49427066  0.13004270  0.24572607  1
  O  O212  1  0.49040380  0.13442487  0.74533072  1
  O  O213  1  0.49252908  0.63409023  0.26076335  1
  O  O214  1  0.48808726  0.63047317  0.75018904  1
  O  O215  1  0.99012302  0.13318911  0.25076487  1
  O  O216  1  1.00287512  0.13792628  0.74375198  1
  O  O217  1  0.98628024  0.62734071  0.25159854  1
  O  O218  1  0.99266273  0.62665822  0.74667482  1
  O  O219  1  0.37383580  0.26114153  0.00292195  1
  O  O220  1  0.36385547  0.24249476  0.50925433  1
  O  O221  1  0.36363668  0.75703203  0.00054146  1
  O  O222  1  0.37674379  0.72943758  0.48398330  1
  O  O223  1  0.87455909  0.25668998  0.00610588  1
  O  O224  1  0.86929104  0.26281381  0.49688771  1
  O  O225  1  0.86484898  0.75492221  0.00670600  1
  O  O226  1  0.87631429  0.76007866  0.50671348  1
  O  O227  1  0.12938414  0.24534333  0.49210250  1
  O  O228  1  0.12140562  0.24250375  0.99039480  1
  O  O229  1  0.12358549  0.73668793  0.50032660  1
  O  O230  1  0.13917184  0.75087787  1.00421471  1
  O  O231  1  0.63402050  0.24020712  0.50537049  1
  O  O232  1  0.62403073  0.24526250  0.99225015  1
  O  O233  1  0.62980207  0.73419291  0.54492554  1
  O  O234  1  0.63723799  0.75595273  0.99359120  1
  O  O235  1  0.49626480  0.24303604  0.13352615  1
  O  O236  1  0.49178717  0.24465910  0.63502486  1
  O  O237  1  0.49705478  0.75462419  0.13760515  1
  O  O238  1  0.49413902  0.73361964  0.63590444  1
  O  O239  1  0.98810174  0.25470131  0.12933667  1
  O  O240  1  1.00442043  0.24394545  0.64042148  1
  O  O241  1  0.98600761  0.75613742  0.12305315  1
  O  O242  1  0.99237135  0.73797209  0.62359432  1
  O  O243  1  0.00620306  0.25163457  0.36383170  1
  O  O244  1  0.00374178  0.25341223  0.86530451  1
  O  O245  1  0.00124936  0.76248811  0.37172125  1
  O  O246  1  -0.00820164  0.76759898  0.88148732  1
  O  O247  1  0.49585849  0.25847764  0.36792432  1
  O  O248  1  0.50671549  0.24605431  0.86323304  1
  O  O249  1  0.50344580  0.76392219  0.36187121  1
  O  O250  1  0.50428213  0.75337665  0.86927281  1
  O  O251  1  0.23595040  0.13616532  0.50365869  1
  O  O252  1  0.24144436  0.12889209  0.99311734  1
  O  O253  1  0.24765227  0.62567329  0.49996192  1
  O  O254  1  0.25003326  0.64153408  1.00187929  1
  O  O255  1  0.75551021  0.12456339  0.48034703  1
  O  O256  1  0.74143457  0.12527186  0.98730739  1
  O  O257  1  0.75734521  0.62563360  0.48556338  1
  O  O258  1  0.75535717  0.63422558  0.98855840  1
  O  O259  1  0.25903113  0.37806371  0.00921846  1
  O  O260  1  0.24489534  0.36216710  0.50380815  1
  O  O261  1  0.25171656  0.87022595  0.00599853  1
  O  O262  1  0.24683052  0.87569345  0.51518757  1
  O  O263  1  0.76002484  0.37480371  0.00428576  1
  O  O264  1  0.75750040  0.37317855  0.51028797  1
  O  O265  1  0.75759001  0.86775326  -0.00283858  1
  O  O266  1  0.75989550  0.87351175  0.49184656  1
  O  O267  1  0.13296654  0.50080317  0.24486616  1
  O  O268  1  0.13280969  0.49982648  0.74058329  1
  O  O269  1  0.13184461  0.99659010  0.24686797  1
  O  O270  1  0.12224376  0.99102946  0.73975209  1
  O  O271  1  0.62292763  0.49711853  0.23523395  1
  O  O272  1  0.63196303  0.48771898  0.76197263  1
  O  O273  1  0.63057971  0.99060617  0.24254413  1
  O  O274  1  0.63302260  0.99273741  0.75273714  1
  O  O275  1  0.36771575  0.00603662  0.25505982  1
  O  O276  1  0.37870886  0.01630478  0.75857809  1
  O  O277  1  0.37314572  0.50688429  0.26093502  1
  O  O278  1  0.36920244  0.50300100  0.76065635  1
  O  O279  1  0.87392696  0.00603547  0.25093758  1
  O  O280  1  0.86755897  -0.00649726  0.75851804  1
  O  O281  1  0.87150267  0.51251450  0.24829477  1
  O  O282  1  0.86687786  0.51253924  0.75097749  1
  O  O283  1  0.12115343  0.36237067  0.37111937  1
  O  O284  1  0.11039999  0.36653969  0.88374824  1
  O  O285  1  0.12007904  0.87299545  0.36822329  1
  O  O286  1  0.11843229  0.88167003  0.85953432  1
  O  O287  1  0.61119911  0.38308151  0.37208019  1
  O  O288  1  0.63172899  0.36228399  0.86979472  1
  O  O289  1  0.61291251  0.88327342  0.36536810  1
  O  O290  1  0.61622492  0.86897243  0.86591447  1
  O  O291  1  0.38072088  0.12427838  0.13535788  1
  O  O292  1  0.37957184  0.13367571  0.63385976  1
  O  O293  1  0.37463643  0.62256840  0.13891985  1
  O  O294  1  0.38861140  0.61439549  0.64100889  1
  O  O295  1  0.86945763  0.13434398  0.13191424  1
  O  O296  1  0.89155451  0.11990341  0.61911665  1
  O  O297  1  0.86588906  0.63377558  0.14012486  1
  O  O298  1  0.88319388  0.63045165  0.63103858  1
  O  O299  1  0.25226141  0.26309464  0.12268447  1
  O  O300  1  0.25554777  0.25195455  0.61848523  1
  O  O301  1  0.25395308  0.76276682  0.12251879  1
  O  O302  1  0.25398748  0.76181743  0.62553203  1
  O  O303  1  0.76043912  0.25700549  0.12234454  1
  O  O304  1  0.75336506  0.26052523  0.63192046  1
  O  O305  1  0.75785939  0.75210399  0.11640402  1
  O  O306  1  0.76853375  0.74800655  0.62496673  1
  O  O307  1  0.24289300  0.25398708  0.37997095  1
  O  O308  1  0.24135592  0.24338467  0.87797358  1
  O  O309  1  0.25541106  0.74871186  0.37564999  1
  O  O310  1  0.24913945  0.75708416  0.88675997  1
  O  O311  1  0.75364828  0.23472561  0.36738794  1
  O  O312  1  0.74248339  0.24224926  0.87541763  1
  O  O313  1  0.74875778  0.73481716  0.37962441  1
  O  O314  1  0.74438253  0.74398251  0.88019875  1
  O  O315  1  0.00718438  0.11325831  -0.00834340  1
  O  O316  1  0.00985349  0.12366515  0.50581156  1
  O  O317  1  -0.00601345  0.61224810  -0.00092946  1
  O  O318  1  0.00733146  0.62365396  0.50870734  1
  O  O319  1  0.50440985  0.12047872  0.00470803  1
  O  O320  1  0.49687395  0.12498916  0.51113515  1
  O  O321  1  0.49528293  0.61574668  0.00214514  1
  O  O322  1  0.50288125  0.61033549  0.51578957  1
  O  O323  1  0.50321519  0.38380143  0.49795853  1
  O  O324  1  0.48849536  0.38388899  1.00748508  1
  O  O325  1  0.50233744  0.87435606  0.48541449  1
  O  O326  1  0.49393440  0.87912224  0.99414576  1
  O  O327  1  0.98752273  0.37320298  0.50143641  1
  O  O328  1  0.98864575  0.38008730  0.99486797  1
  O  O329  1  0.99893204  0.88053618  0.49266053  1
  O  O330  1  0.99673405  0.88771031  0.99056200  1
  O  O331  1  0.49461783  0.49650030  0.39231144  1
  O  O332  1  0.49468945  0.50208806  0.89183424  1
  O  O333  1  0.49194652  0.99002509  0.37443645  1
  O  O334  1  0.49377725  0.99702575  0.88037562  1
  O  O335  1  0.99474101  0.49374282  0.37911156  1
  O  O336  1  0.99282516  0.48765641  0.88406780  1
  O  O337  1  0.99649953  0.99084334  0.37964298  1
  O  O338  1  0.99200073  0.99447239  0.87733883  1
  O  O339  1  0.00750100  -0.00362105  0.11321809  1
  O  O340  1  0.01043521  0.00780380  0.61893388  1
  O  O341  1  0.01018791  0.49215300  0.11641442  1
  O  O342  1  0.00688846  0.51211489  0.62657879  1
  O  O343  1  0.50556546  0.00525708  0.11917653  1
  O  O344  1  0.49716202  0.01106511  0.62380935  1
  O  O345  1  0.51292368  0.49834839  0.11653344  1
  O  O346  1  0.49383678  0.50162441  0.61266395  1
  O  O347  1  0.25201197  0.38735912  0.24093086  1
  O  O348  1  0.25261936  0.38718340  0.74981536  1
  O  O349  1  0.24174262  0.88131272  0.24291257  1
  O  O350  1  0.23772717  0.87863957  0.74127313  1
  O  O351  1  0.74880950  0.37935763  0.24124301  1
  O  O352  1  0.74534250  0.38298510  0.74531280  1
  O  O353  1  0.74363456  0.87941093  0.25174242  1
  O  O354  1  0.73808325  0.88453258  0.75587069  1
  O  O355  1  0.25800710  0.11487934  0.24308588  1
  O  O356  1  0.25759432  0.13225879  0.75925198  1
  O  O357  1  0.25903946  0.61211870  0.24863464  1
  O  O358  1  0.26038006  0.61339202  0.74421136  1
  O  O359  1  0.76084612  0.11925338  0.25530043  1
  O  O360  1  0.74339888  0.11684418  0.76203082  1
  O  O361  1  0.75881155  0.62468607  0.26383531  1
  O  O362  1  0.75532936  0.61887944  0.75532602  1
  O  O363  1  0.38032314  0.11577107  0.36085381  1
  O  O364  1  0.36591925  0.12480355  0.87004746  1
  O  O365  1  0.37081316  0.61940564  0.37194758  1
  O  O366  1  0.37619951  0.61043245  0.86745632  1
  O  O367  1  0.87112366  0.11913743  0.36432150  1
  O  O368  1  0.86497754  0.11482125  0.87922203  1
  O  O369  1  0.87308584  0.62571036  0.36314775  1
  O  O370  1  0.86379976  0.62553591  0.86641218  1
  O  O371  1  0.13537660  0.38345399  0.12583983  1
  O  O372  1  0.12147720  0.38909122  0.61966343  1
  O  O373  1  0.13033078  0.88138057  0.13221412  1
  O  O374  1  0.12988449  0.88368222  0.63276472  1
  O  O375  1  0.63762958  0.37561419  0.12364997  1
  O  O376  1  0.63482008  0.37223703  0.63828790  1
  O  O377  1  0.62767950  0.88332822  0.13146139  1
  O  O378  1  0.61316780  0.88249815  0.63985561  1
  O  O379  1  0.11792937  0.24871559  0.25393051  1
  O  O380  1  0.11810940  0.24812837  0.76246262  1
  O  O381  1  0.12537704  0.75879834  0.25203220  1
  O  O382  1  0.12668290  0.76686982  0.74012468  1
  O  O383  1  0.61323878  0.24870352  0.24517683  1
  O  O384  1  0.61639495  0.25849677  0.75707022  1
  O  O385  1  0.62114941  0.76265296  0.24323164  1
  O  O386  1  0.61330200  0.75780874  0.75174898  1
  O  O387  1  0.38226801  0.24196953  0.24926670  1
  O  O388  1  0.38026084  0.24472258  0.74746776  1
  O  O389  1  0.38397175  0.74058625  0.24655906  1
  O  O390  1  0.38193971  0.73995323  0.76088864  1
  O  O391  1  0.88210330  0.24323083  0.24246476  1
  O  O392  1  0.88512478  0.24684018  0.75515742  1
  O  O393  1  0.87688880  0.74217894  0.24254957  1
  O  O394  1  0.87253300  0.73980344  0.74425541  1
  O  O395  1  0.37495251  0.50281460  0.49115896  1
  O  O396  1  0.38446787  0.49815037  0.99783546  1
  O  O397  1  0.37338297  1.00812804  0.48438333  1
  O  O398  1  0.37895371  0.99627414  0.99472355  1
  O  O399  1  0.87689384  0.48569949  0.50108037  1
  O  O400  1  0.87936551  0.49261077  1.00195169  1
  O  O401  1  0.88161424  0.99160153  0.49424016  1
  O  O402  1  0.88119920  0.99686560  0.99159694  1
  O  O403  1  0.11769303  0.00754884  0.00278077  1
  O  O404  1  0.12141166  0.00912273  0.50368335  1
  O  O405  1  0.11575036  0.50389512  0.00787628  1
  O  O406  1  0.12465216  0.51074819  0.50826766  1
  O  O407  1  0.61940989  0.00375208  0.00197549  1
  O  O408  1  0.61975147  0.01050574  0.50237189  1
  O  O409  1  0.61186354  0.49877720  0.00883134  1
  O  O410  1  0.61658975  0.49617766  0.50558485  1
  O  O411  1  0.36630299  0.37909955  0.11873080  1
  O  O412  1  0.37284132  0.36110796  0.62973778  1
  O  O413  1  0.36576106  0.87713466  0.11775108  1
  O  O414  1  0.35968578  0.88015175  0.63021467  1
  O  O415  1  0.86472681  0.36993458  0.11914629  1
  O  O416  1  0.86762354  0.37728715  0.61503535  1
  O  O417  1  0.87192945  0.86840149  0.11685572  1
  O  O418  1  0.88436750  0.86737573  0.61356431  1
  O  O419  1  0.12043056  0.13792832  0.38265277  1
  O  O420  1  0.13041198  0.13024406  0.88134091  1
  O  O421  1  0.12394986  0.62767729  0.38643451  1
  O  O422  1  0.11242351  0.62725308  0.87400176  1
  O  O423  1  0.64219371  0.11880575  0.36682840  1
  O  O424  1  0.62927010  0.13543052  0.87766065  1
  O  O425  1  0.63389458  0.62253290  0.37619481  1
  O  O426  1  0.63572448  0.63241486  0.86867125  1
