# generated using pymatgen
data_V85Zn86O256
_symmetry_space_group_name_H-M   'P 1'
_cell_length_a   16.94592946
_cell_length_b   16.94716667
_cell_length_c   16.94696025
_cell_angle_alpha   89.91272305
_cell_angle_beta   89.96799714
_cell_angle_gamma   89.96956636
_symmetry_Int_Tables_number   1
_chemical_formula_structural   V85Zn86O256
_chemical_formula_sum   'V85 Zn86 O256'
_cell_volume   4866.91400720
_cell_formula_units_Z   1
loop_
 _symmetry_equiv_pos_site_id
 _symmetry_equiv_pos_as_xyz
  1  'x, y, z'
loop_
 _atom_site_type_symbol
 _atom_site_label
 _atom_site_symmetry_multiplicity
 _atom_site_fract_x
 _atom_site_fract_y
 _atom_site_fract_z
 _atom_site_occupancy
  V  V0  1  0.28231032  0.26772362  -0.02711041  1
  V  V1  1  0.24901770  0.12349091  0.87173665  1
  V  V2  1  0.50024939  0.74495576  0.25792217  1
  V  V3  1  0.25351318  0.87497971  0.62411229  1
  V  V4  1  0.74795135  0.49576039  0.25114335  1
  V  V5  1  0.00277024  0.87037029  0.87955684  1
  V  V6  1  0.25990488  0.49813546  0.76232005  1
  V  V7  1  0.48764033  0.48631813  -0.00949362  1
  V  V8  1  -0.00206002  0.75342184  0.74889462  1
  V  V9  1  -0.00194109  0.00272652  -0.00678428  1
  V  V10  1  0.87696515  0.75243491  0.12766263  1
  V  V11  1  0.88232835  0.38838395  -0.01341431  1
  V  V12  1  0.74896905  0.12581844  0.37393963  1
  V  V13  1  0.87907258  0.00263467  0.37596765  1
  V  V14  1  0.74323862  0.62604513  0.37343173  1
  V  V15  1  0.87541132  0.25389990  0.12371331  1
  V  V16  1  0.62437088  0.12456863  0.00007265  1
  V  V17  1  0.00324966  0.25015283  0.74957407  1
  V  V18  1  0.11343116  0.86177662  0.25970605  1
  V  V19  1  0.92765108  0.82856056  0.44311927  1
  V  V20  1  0.75744969  0.87473760  0.62032586  1
  V  V21  1  0.88630238  0.62309083  0.24892399  1
  V  V22  1  0.07207675  0.42727748  0.80569670  1
  V  V23  1  0.87642708  0.12557360  0.24882584  1
  V  V24  1  0.37876222  0.00772357  0.87065665  1
  V  V25  1  0.19902402  0.70062984  -0.05132792  1
  V  V26  1  0.75632918  0.11734380  0.87417987  1
  V  V27  1  0.12653266  0.49401714  0.62428081  1
  V  V28  1  0.37169055  0.25171816  0.13206743  1
  V  V29  1  0.00146787  0.12650338  0.12426754  1
  V  V30  1  0.62560244  0.87427280  0.74910264  1
  V  V31  1  0.62489457  0.74834618  0.87528329  1
  V  V32  1  0.49464049  0.88354401  0.37201506  1
  V  V33  1  0.11729884  0.25004594  0.87526500  1
  V  V34  1  0.50159198  0.74282764  0.74409423  1
  V  V35  1  0.00194465  0.38078296  0.37454857  1
  V  V36  1  0.24920084  0.87124399  0.12548479  1
  V  V37  1  0.37483997  0.74711145  0.12684551  1
  V  V38  1  0.11801119  0.49539244  0.11736106  1
  V  V39  1  0.37662097  0.74149361  0.62212555  1
  V  V40  1  0.37279117  0.87434165  0.00026639  1
  V  V41  1  0.12832619  0.12955239  -0.00041274  1
  V  V42  1  0.50443066  0.25956807  0.25130553  1
  V  V43  1  0.62610653  -0.00138249  0.62302959  1
  V  V44  1  0.61855717  0.62819626  0.50005964  1
  V  V45  1  0.62100480  0.49545849  0.12995254  1
  V  V46  1  0.63311984  -0.00591851  0.12601817  1
  V  V47  1  0.24666898  0.37173020  0.13443377  1
  V  V48  1  0.37835556  0.11894401  0.25849815  1
  V  V49  1  0.25225446  -0.00302694  0.25354662  1
  V  V50  1  0.25408828  0.00435407  0.74808292  1
  V  V51  1  0.25167665  0.11976482  0.37737368  1
  V  V52  1  0.12967198  0.86978538  0.75619514  1
  V  V53  1  0.24972057  0.25090235  0.50013265  1
  V  V54  1  0.87051001  0.87889697  -0.00039338  1
  V  V55  1  0.49624760  0.50491335  0.50367923  1
  V  V56  1  0.74129954  0.75419780  0.49473621  1
  V  V57  1  0.87323018  0.25178779  0.62436192  1
  V  V58  1  0.12662486  0.00019057  0.12552867  1
  V  V59  1  0.12728672  0.25497478  0.37047629  1
  V  V60  1  0.62188248  0.62157546  0.00027203  1
  V  V61  1  0.49795512  0.12507764  0.63503014  1
  V  V62  1  0.62314708  0.12686782  0.49990599  1
  V  V63  1  0.00075862  0.12409838  0.62503852  1
  V  V64  1  0.75441974  0.49845284  0.75620138  1
  V  V65  1  0.49535751  0.62303080  0.13003157  1
  V  V66  1  0.25019324  0.50404768  0.24804702  1
  V  V67  1  0.00444602  0.62625100  0.10445292  1
  V  V68  1  0.37097022  0.62561530  0.76407569  1
  V  V69  1  0.62299509  0.25527121  0.86952148  1
  V  V70  1  0.50011290  0.12384145  0.12816087  1
  V  V71  1  0.74723751  0.37513092  0.12650692  1
  V  V72  1  0.00426414  0.25827311  0.24748909  1
  V  V73  1  0.25410607  0.62934244  0.36796952  1
  V  V74  1  0.12539414  0.62448859  0.49594228  1
  V  V75  1  0.62579141  0.25995261  0.37319912  1
  V  V76  1  -0.00364722  0.00125100  0.49990022  1
  V  V77  1  0.63170097  0.86796815  0.25202221  1
  V  V78  1  0.37524168  0.24663760  0.62866993  1
  V  V79  1  0.75039069  0.25207182  -0.00142038  1
  V  V80  1  0.37451828  0.37851577  0.49716455  1
  V  V81  1  0.24522400  0.75084688  0.49432988  1
  V  V82  1  0.62292266  0.50256721  0.62681049  1
  V  V83  1  0.49883457  0.00156763  0.00147303  1
  V  V84  1  0.74706254  0.75365779  0.00759625  1
  Zn  Zn85  1  -0.00058363  0.62604942  0.62577184  1
  Zn  Zn86  1  0.49176363  0.25621142  0.75577533  1
  Zn  Zn87  1  0.87936815  0.11815050  0.75622863  1
  Zn  Zn88  1  0.75027964  0.25323232  0.50190771  1
  Zn  Zn89  1  0.12540464  -0.00058855  0.62388793  1
  Zn  Zn90  1  0.87440669  0.74790785  0.62527182  1
  Zn  Zn91  1  0.87652670  0.62257016  0.75305584  1
  Zn  Zn92  1  0.87106895  0.49637759  0.37769304  1
  Zn  Zn93  1  0.74574224  0.37474867  0.62479913  1
  Zn  Zn94  1  0.75452571  -0.00450986  0.24512064  1
  Zn  Zn95  1  0.24754543  0.37465927  0.62831032  1
  Zn  Zn96  1  0.50224360  0.38086628  0.37236342  1
  Zn  Zn97  1  0.61326449  0.38177066  0.75275182  1
  Zn  Zn98  1  0.37825259  0.50496986  0.36523532  1
  Zn  Zn99  1  0.50061284  0.87646665  0.87481614  1
  Zn  Zn100  1  0.75753006  -0.00710887  0.75588406  1
  Zn  Zn101  1  0.87235992  0.37801980  0.49966920  1
  Zn  Zn102  1  0.37123902  0.87897400  0.49132364  1
  Zn  Zn103  1  0.49438899  0.00298905  0.49548997  1
  Zn  Zn104  1  0.75720719  0.61895067  0.87879762  1
  Zn  Zn105  1  -0.00284998  0.49842566  0.50624925  1
  Zn  Zn106  1  0.12512376  0.12290524  0.49903813  1
  Zn  Zn107  1  0.18769382  0.18603036  0.19043706  1
  Zn  Zn108  1  0.18456565  0.18762983  0.68676854  1
  Zn  Zn109  1  0.18419707  0.68690898  0.18208294  1
  Zn  Zn110  1  0.18798660  0.68351572  0.68753958  1
  Zn  Zn111  1  0.68701531  0.18642389  0.18853185  1
  Zn  Zn112  1  0.68871729  0.18528274  0.69028631  1
  Zn  Zn113  1  0.68700007  0.68456306  0.18725608  1
  Zn  Zn114  1  0.68986804  0.68285820  0.68374572  1
  Zn  Zn115  1  0.31327868  0.31463325  0.31237035  1
  Zn  Zn116  1  0.31335795  0.31451602  0.80717324  1
  Zn  Zn117  1  0.31250198  0.81003264  0.30845474  1
  Zn  Zn118  1  0.31728701  0.81507899  0.81336344  1
  Zn  Zn119  1  0.81484692  0.31339490  0.31230293  1
  Zn  Zn120  1  0.80881692  0.31325926  0.80823287  1
  Zn  Zn121  1  0.80832876  0.80662711  0.30711853  1
  Zn  Zn122  1  0.81302410  0.81054091  0.81784432  1
  Zn  Zn123  1  0.18790066  0.43917783  0.43516614  1
  Zn  Zn124  1  0.19560698  0.44120496  0.94516538  1
  Zn  Zn125  1  0.18265083  0.93612052  0.43667410  1
  Zn  Zn126  1  0.18873634  0.93291941  0.93833103  1
  Zn  Zn127  1  0.68848647  0.43847681  0.44272272  1
  Zn  Zn128  1  0.68619406  0.43689591  0.94145386  1
  Zn  Zn129  1  0.68465372  0.93874384  0.43374549  1
  Zn  Zn130  1  0.68647884  0.93481319  0.93990106  1
  Zn  Zn131  1  0.31214646  0.06785679  0.06243841  1
  Zn  Zn132  1  0.31740691  0.05977150  0.55924815  1
  Zn  Zn133  1  0.31171149  0.56093397  0.06095646  1
  Zn  Zn134  1  0.30871215  0.56334741  0.56606167  1
  Zn  Zn135  1  0.81406115  0.06413934  0.06012202  1
  Zn  Zn136  1  0.81313855  0.06487373  0.56363551  1
  Zn  Zn137  1  0.81186212  0.56336556  0.06175039  1
  Zn  Zn138  1  0.81334329  0.56321197  0.56701458  1
  Zn  Zn139  1  0.43163335  0.43751783  0.18258492  1
  Zn  Zn140  1  0.43794146  0.43626614  0.68626805  1
  Zn  Zn141  1  0.43897814  0.93695445  0.18955229  1
  Zn  Zn142  1  0.43858486  0.93468835  0.68519189  1
  Zn  Zn143  1  0.93567326  0.43924960  0.18346835  1
  Zn  Zn144  1  0.93396585  0.44020635  0.68288797  1
  Zn  Zn145  1  0.93843294  0.93816529  0.18388793  1
  Zn  Zn146  1  0.93610424  0.93900978  0.69121140  1
  Zn  Zn147  1  0.06458983  0.06290368  0.31244998  1
  Zn  Zn148  1  0.06414347  0.05894979  0.81078845  1
  Zn  Zn149  1  0.07269081  0.56257677  0.30799470  1
  Zn  Zn150  1  0.06656323  0.59396241  0.83098440  1
  Zn  Zn151  1  0.56715230  0.06190840  0.31011423  1
  Zn  Zn152  1  0.56818989  0.06363128  0.81295475  1
  Zn  Zn153  1  0.56298647  0.56127431  0.31443549  1
  Zn  Zn154  1  0.56016217  0.56298217  0.81358123  1
  Zn  Zn155  1  0.43889350  0.18821074  0.43921237  1
  Zn  Zn156  1  0.43558696  0.19443621  0.93505011  1
  Zn  Zn157  1  0.43357321  0.68983951  0.43601017  1
  Zn  Zn158  1  0.43822187  0.68834389  0.94200826  1
  Zn  Zn159  1  0.93863791  0.19024265  0.43835593  1
  Zn  Zn160  1  0.93638981  0.19383788  0.93947828  1
  Zn  Zn161  1  0.93193058  0.66647797  0.43876017  1
  Zn  Zn162  1  0.93280200  0.69052533  0.93306366  1
  Zn  Zn163  1  0.06322119  0.31767486  0.05806487  1
  Zn  Zn164  1  0.06315134  0.31377156  0.56023527  1
  Zn  Zn165  1  0.06173591  0.81262213  0.06851181  1
  Zn  Zn166  1  0.06982644  0.81055254  0.56825082  1
  Zn  Zn167  1  0.56301705  0.31153096  0.06233133  1
  Zn  Zn168  1  0.55995710  0.31559681  0.56280267  1
  Zn  Zn169  1  0.55938854  0.81331705  0.06589215  1
  Zn  Zn170  1  0.56208747  0.81266553  0.56055862  1
  O  O171  1  0.12176321  0.12068908  0.11945763  1
  O  O172  1  0.11252839  0.12242812  0.62198352  1
  O  O173  1  0.10906608  0.61790107  0.12674083  1
  O  O174  1  0.12623208  0.61580554  0.61395112  1
  O  O175  1  0.61988492  0.11789587  0.11982286  1
  O  O176  1  0.62189695  0.11859246  0.61831416  1
  O  O177  1  0.61588364  0.61728553  0.11965620  1
  O  O178  1  0.62696955  0.61455375  0.61201007  1
  O  O179  1  0.37554307  0.37754727  0.38640141  1
  O  O180  1  0.36301547  0.29736898  0.90650617  1
  O  O181  1  0.39092952  0.87180519  0.36986314  1
  O  O182  1  0.37903134  0.88769100  0.88482524  1
  O  O183  1  0.88663925  0.37602166  0.37548211  1
  O  O184  1  0.86829897  0.36874915  0.88857778  1
  O  O185  1  0.86691665  0.88396167  0.37723583  1
  O  O186  1  0.88335722  0.87132750  0.89151476  1
  O  O187  1  0.24412068  0.01198567  0.36953926  1
  O  O188  1  0.25753903  0.00355239  0.86832775  1
  O  O189  1  0.24927179  0.50769203  0.36415055  1
  O  O190  1  0.25291864  0.49344329  0.86199252  1
  O  O191  1  0.75903658  0.01124435  0.37526714  1
  O  O192  1  0.74437325  0.01406932  0.87915745  1
  O  O193  1  0.74700846  0.50517208  0.36559473  1
  O  O194  1  0.73615087  0.50049336  0.86001844  1
  O  O195  1  0.24368858  0.49167664  0.12796197  1
  O  O196  1  0.24100781  0.49946199  0.63513598  1
  O  O197  1  0.24743868  0.99379842  0.13263294  1
  O  O198  1  0.25087709  0.99365262  0.63202514  1
  O  O199  1  0.74187151  0.49479078  0.13090450  1
  O  O200  1  0.73974189  0.49958461  0.63531243  1
  O  O201  1  0.73696557  1.00501775  0.12405256  1
  O  O202  1  0.73897631  0.99370713  0.62185851  1
  O  O203  1  -0.00517542  0.36313738  0.25294949  1
  O  O204  1  0.00403048  0.37069169  0.75054454  1
  O  O205  1  0.01508427  0.88091548  0.24457531  1
  O  O206  1  0.00894163  0.87188272  0.75780649  1
  O  O207  1  0.49423173  0.36302475  0.25070557  1
  O  O208  1  0.49951079  0.36941229  0.74944437  1
  O  O209  1  0.50759957  0.86891438  0.25725475  1
  O  O210  1  0.51168462  0.86541681  0.75022184  1
  O  O211  1  0.49340123  0.12965853  0.24878656  1
  O  O212  1  0.50717373  0.12898125  0.73732463  1
  O  O213  1  0.50674460  0.63293017  0.24301030  1
  O  O214  1  0.49415890  0.63766646  0.75161437  1
  O  O215  1  0.99557460  0.13373637  0.24465822  1
  O  O216  1  1.00059096  0.13127324  0.74272843  1
  O  O217  1  0.98785021  0.62037531  0.25198565  1
  O  O218  1  1.00600047  0.64358605  0.75060568  1
  O  O219  1  0.37284270  0.22431818  0.02918550  1
  O  O220  1  0.36522298  0.25549642  0.50296713  1
  O  O221  1  0.38728672  0.76351074  0.01473383  1
  O  O222  1  0.36615700  0.75593806  0.50667838  1
  O  O223  1  0.86670827  0.25544848  0.00826486  1
  O  O224  1  0.87301832  0.25007242  0.51015109  1
  O  O225  1  0.86576666  0.75589883  0.00857574  1
  O  O226  1  0.86967304  0.75760983  0.49846998  1
  O  O227  1  0.13693527  0.24808321  0.49348017  1
  O  O228  1  0.12295680  0.24482635  0.98940632  1
  O  O229  1  0.13750261  0.74224370  0.50441351  1
  O  O230  1  0.13602864  0.75888055  1.00443508  1
  O  O231  1  0.62514488  0.24291747  0.49171380  1
  O  O232  1  0.63128067  0.24352836  0.99442827  1
  O  O233  1  0.63016638  0.73988920  0.50228672  1
  O  O234  1  0.62755569  0.74590660  0.99644240  1
  O  O235  1  0.49568727  0.24372756  0.13418690  1
  O  O236  1  0.49202930  0.24126361  0.62197111  1
  O  O237  1  0.49602704  0.74178191  0.13411824  1
  O  O238  1  0.49033593  0.75728397  0.63269717  1
  O  O239  1  0.99853586  0.24644868  0.13119130  1
  O  O240  1  0.99711581  0.24375325  0.63042862  1
  O  O241  1  0.99171032  0.73490724  0.12041871  1
  O  O242  1  0.99697449  0.75302575  0.63437946  1
  O  O243  1  0.00796198  0.25678456  0.36783954  1
  O  O244  1  0.00887548  0.24577607  0.86658181  1
  O  O245  1  -0.02309694  0.76552479  0.38631240  1
  O  O246  1  0.00069419  0.76419163  0.86958812  1
  O  O247  1  0.50829549  0.25134470  0.36815024  1
  O  O248  1  0.51995587  0.23645565  0.87206328  1
  O  O249  1  0.49673765  0.75596456  0.36159737  1
  O  O250  1  0.51169572  0.75335303  0.86996318  1
  O  O251  1  0.24952426  0.13105998  0.49223440  1
  O  O252  1  0.24753155  0.13920277  0.98985827  1
  O  O253  1  0.24511623  0.63285550  0.49385405  1
  O  O254  1  0.25744064  0.64452664  1.01139451  1
  O  O255  1  0.73936484  0.12718542  0.49290574  1
  O  O256  1  0.74560028  0.13169179  0.99305363  1
  O  O257  1  0.74236486  0.63162006  0.49209225  1
  O  O258  1  0.73614738  0.63101001  1.00141988  1
  O  O259  1  0.24728942  0.35969035  0.01118345  1
  O  O260  1  0.25595167  0.36700445  0.50006486  1
  O  O261  1  0.26421403  0.88653457  0.01248588  1
  O  O262  1  0.24822170  0.86882473  0.50645621  1
  O  O263  1  0.75474236  0.36901498  0.00845003  1
  O  O264  1  0.75338088  0.37086282  0.50526478  1
  O  O265  1  0.75746036  0.86696394  -0.00056070  1
  O  O266  1  0.73731882  0.86596630  0.50659383  1
  O  O267  1  0.13870109  0.50327312  0.23366760  1
  O  O268  1  0.13289851  0.49479556  0.74889523  1
  O  O269  1  0.13687102  1.00037349  0.24355697  1
  O  O270  1  0.13400204  0.98826985  0.74762190  1
  O  O271  1  0.63083191  0.50303759  0.23749397  1
  O  O272  1  0.62646823  0.50280349  0.74061464  1
  O  O273  1  0.62878264  0.99018604  0.24234723  1
  O  O274  1  0.63038461  0.99025779  0.74305170  1
  O  O275  1  0.36261268  0.00491829  0.24915764  1
  O  O276  1  0.36763890  -0.00707498  0.75899888  1
  O  O277  1  0.35839005  0.49720733  0.24736035  1
  O  O278  1  0.36696939  0.51122696  0.74391976  1
  O  O279  1  0.87423344  0.00542547  0.25601504  1
  O  O280  1  0.86946464  0.00500977  0.74974035  1
  O  O281  1  0.86513469  0.50760561  0.24865360  1
  O  O282  1  0.85742001  0.49682796  0.74752058  1
  O  O283  1  0.12058117  0.36193715  0.37734490  1
  O  O284  1  0.12671619  0.37032728  0.87434170  1
  O  O285  1  0.12690951  0.87667944  0.35864120  1
  O  O286  1  0.11663151  0.88026152  0.86759802  1
  O  O287  1  0.62511775  0.36266501  0.37740919  1
  O  O288  1  0.62916273  0.35721426  0.87916727  1
  O  O289  1  0.61643272  0.87808408  0.35828103  1
  O  O290  1  0.62371030  0.86867885  0.86642051  1
  O  O291  1  0.37888464  0.12554771  0.14340069  1
  O  O292  1  0.38747044  0.13333113  0.61612567  1
  O  O293  1  0.38776127  0.63256963  0.12236388  1
  O  O294  1  0.36976538  0.63905894  0.63220440  1
  O  O295  1  0.88121044  0.13298176  0.12858389  1
  O  O296  1  0.88578241  0.13424771  0.62586176  1
  O  O297  1  0.88653352  0.62759793  0.12830375  1
  O  O298  1  0.87985822  0.62979659  0.63360041  1
  O  O299  1  0.25648647  0.25661908  0.13189150  1
  O  O300  1  0.25466983  0.24888905  0.61571638  1
  O  O301  1  0.25998965  0.76375828  0.13388824  1
  O  O302  1  0.25620899  0.75682698  0.61824532  1
  O  O303  1  0.75259380  0.25748510  0.12160004  1
  O  O304  1  0.75972449  0.24859311  0.62661107  1
  O  O305  1  0.75667037  0.74330627  0.11384293  1
  O  O306  1  0.75037129  0.75638373  0.61255943  1
  O  O307  1  0.24505241  0.24262106  0.37858169  1
  O  O308  1  0.23164891  0.24327016  0.86844078  1
  O  O309  1  0.25488728  0.74456275  0.38342455  1
  O  O310  1  0.25595207  0.76249557  0.88982725  1
  O  O311  1  0.74399514  0.23987580  0.37248561  1
  O  O312  1  0.74102757  0.24082092  0.87895801  1
  O  O313  1  0.75355839  0.74159649  0.38544000  1
  O  O314  1  0.73710763  0.75075063  0.88636259  1
  O  O315  1  0.00459224  0.11979098  0.00351339  1
  O  O316  1  0.00185030  0.11868332  0.50675851  1
  O  O317  1  -0.00161939  0.62503563  0.00647736  1
  O  O318  1  0.01132983  0.62077529  0.50165442  1
  O  O319  1  0.50508877  0.11954807  0.00704405  1
  O  O320  1  0.51220759  0.12461263  0.50483123  1
  O  O321  1  0.50928724  0.62063137  0.00934226  1
  O  O322  1  0.50943753  0.62115046  0.49135959  1
  O  O323  1  0.49130392  0.38450312  0.49602979  1
  O  O324  1  0.50183745  0.38739065  1.00561220  1
  O  O325  1  0.50549396  0.87178496  0.47897139  1
  O  O326  1  0.49058802  0.88441114  1.00125878  1
  O  O327  1  0.99820750  0.37655718  0.48823249  1
  O  O328  1  0.98126112  0.37333208  1.00351001  1
  O  O329  1  0.99677261  0.87988086  0.50252839  1
  O  O330  1  0.99672202  0.88230528  0.99530202  1
  O  O331  1  0.49684837  0.49905547  0.38471905  1
  O  O332  1  0.50472620  0.50225266  0.89230427  1
  O  O333  1  0.50285247  0.98678743  0.37086936  1
  O  O334  1  0.49475464  1.00112201  0.87952495  1
  O  O335  1  1.00628696  0.48583108  0.36841079  1
  O  O336  1  1.01879950  0.49126000  0.85876835  1
  O  O337  1  0.98719590  1.00691646  0.38059499  1
  O  O338  1  1.00453179  0.99303612  0.88763030  1
  O  O339  1  0.00643264  0.00776728  0.11499993  1
  O  O340  1  -0.00036692  0.00707135  0.61745409  1
  O  O341  1  0.01027952  0.50918311  0.12788144  1
  O  O342  1  0.01184830  0.50388856  0.62828843  1
  O  O343  1  0.50829152  0.00610445  0.12316286  1
  O  O344  1  0.51179039  0.00527401  0.62593170  1
  O  O345  1  0.50531607  0.50542784  0.12246974  1
  O  O346  1  0.50415924  0.50153978  0.61057080  1
  O  O347  1  0.24916695  0.38013006  0.24024813  1
  O  O348  1  0.26014682  0.39105357  0.74504959  1
  O  O349  1  0.24499916  0.88278002  0.24454712  1
  O  O350  1  0.24680639  0.88242925  0.74516741  1
  O  O351  1  0.75480043  0.38708711  0.24330369  1
  O  O352  1  0.73975343  0.38582987  0.74673666  1
  O  O353  1  0.73602840  0.87562180  0.25079452  1
  O  O354  1  0.73908385  0.87074132  0.74272961  1
  O  O355  1  0.25756388  0.11796568  0.25813811  1
  O  O356  1  0.24333256  0.11094341  0.75318441  1
  O  O357  1  0.24438026  0.62038364  0.25715663  1
  O  O358  1  0.25773064  0.61213171  0.74796187  1
  O  O359  1  0.75695732  0.12203924  0.25764879  1
  O  O360  1  0.75022325  0.12231610  0.76605963  1
  O  O361  1  0.75403178  0.61622554  0.25481080  1
  O  O362  1  0.74709008  0.61116807  0.75261675  1
  O  O363  1  0.36771921  0.12980377  0.36633621  1
  O  O364  1  0.36907128  0.11381341  0.87738816  1
  O  O365  1  0.35926658  0.62232071  0.37916269  1
  O  O366  1  0.37741173  0.63369914  0.86339886  1
  O  O367  1  0.86853470  0.12131571  0.37047786  1
  O  O368  1  0.85922888  0.13168001  0.87895561  1
  O  O369  1  0.86152201  0.61897255  0.36461609  1
  O  O370  1  0.86911041  0.63103355  0.86671421  1
  O  O371  1  0.12886618  0.38642006  0.12426941  1
  O  O372  1  0.12787284  0.38776663  0.62017962  1
  O  O373  1  0.13403741  0.88248738  0.13195068  1
  O  O374  1  0.13957333  0.87828947  0.63224737  1
  O  O375  1  0.63736247  0.38109811  0.12207659  1
  O  O376  1  0.62354184  0.39030071  0.62271478  1
  O  O377  1  0.61716978  0.88322376  0.13858679  1
  O  O378  1  0.62917949  0.88158619  0.63066976  1
  O  O379  1  0.11590772  0.24535085  0.25827218  1
  O  O380  1  0.11208425  0.24950912  0.75475646  1
  O  O381  1  0.12480956  0.76294545  0.24482100  1
  O  O382  1  0.12171262  0.76398251  0.74368282  1
  O  O383  1  0.61475046  0.24235018  0.25965072  1
  O  O384  1  0.62746616  0.25132551  0.76281982  1
  O  O385  1  0.61809506  0.76139747  0.24292871  1
  O  O386  1  0.62092107  0.75238876  0.75485578  1
  O  O387  1  0.38233034  0.24123702  0.24747930  1
  O  O388  1  0.37192300  0.24781371  0.73216062  1
  O  O389  1  0.38621039  0.75539685  0.23596948  1
  O  O390  1  0.38253516  0.74681772  0.74391174  1
  O  O391  1  0.88264222  0.24476821  0.24345452  1
  O  O392  1  0.88696803  0.24675164  0.74498555  1
  O  O393  1  0.86645165  0.73937938  0.23491983  1
  O  O394  1  0.88664849  0.75785654  0.74766787  1
  O  O395  1  0.37954116  0.49459414  0.50120584  1
  O  O396  1  0.38836770  0.49984036  1.00382498  1
  O  O397  1  0.38288648  0.99009292  0.50391297  1
  O  O398  1  0.38129099  0.99800517  0.99517291  1
  O  O399  1  0.87918219  0.50022460  0.49606315  1
  O  O400  1  0.86713033  0.48767106  0.99900773  1
  O  O401  1  0.88579845  1.00427690  0.49283088  1
  O  O402  1  0.88565001  0.99160666  1.00764344  1
  O  O403  1  0.12061245  0.00714202  0.00611848  1
  O  O404  1  0.11020416  0.00083112  0.50006734  1
  O  O405  1  0.13184238  0.50126429  0.01806642  1
  O  O406  1  0.12591972  0.50658911  0.50787645  1
  O  O407  1  0.61773840  0.00180317  0.00748921  1
  O  O408  1  0.62029595  0.00779211  0.50597445  1
  O  O409  1  0.62044205  0.50638560  0.01203691  1
  O  O410  1  0.61662767  0.50873779  0.50399617  1
  O  O411  1  0.36352803  0.36187312  0.12831407  1
  O  O412  1  0.37251194  0.36566919  0.61064180  1
  O  O413  1  0.36960901  0.87157621  0.12058528  1
  O  O414  1  0.36346658  0.86556028  0.62770416  1
  O  O415  1  0.86318002  0.37165192  0.11990499  1
  O  O416  1  0.87527421  0.36116138  0.62462925  1
  O  O417  1  0.88288653  0.86374517  0.11402133  1
  O  O418  1  0.85939587  0.87601035  0.62526473  1
  O  O419  1  0.13370757  0.13582212  0.37621370  1
  O  O420  1  0.12848415  0.13076587  0.87926607  1
  O  O421  1  0.13588965  0.62029666  0.38774873  1
  O  O422  1  0.14629601  0.63663953  0.88886357  1
  O  O423  1  0.63191052  0.12961533  0.38114736  1
  O  O424  1  0.63605502  0.13050045  0.88221725  1
  O  O425  1  0.63651342  0.62208800  0.38166967  1
  O  O426  1  0.62534782  0.63306682  0.88514450  1
