# generated using pymatgen
data_V85Zn86O256
_symmetry_space_group_name_H-M   'P 1'
_cell_length_a   16.99252677
_cell_length_b   16.99680882
_cell_length_c   16.97256579
_cell_angle_alpha   90.08151801
_cell_angle_beta   89.99320047
_cell_angle_gamma   89.96057858
_symmetry_Int_Tables_number   1
_chemical_formula_structural   V85Zn86O256
_chemical_formula_sum   'V85 Zn86 O256'
_cell_volume   4901.98871934
_cell_formula_units_Z   1
loop_
 _symmetry_equiv_pos_site_id
 _symmetry_equiv_pos_as_xyz
  1  'x, y, z'
loop_
 _atom_site_type_symbol
 _atom_site_label
 _atom_site_symmetry_multiplicity
 _atom_site_fract_x
 _atom_site_fract_y
 _atom_site_fract_z
 _atom_site_occupancy
  V  V0  1  0.25931180  0.86823465  0.62602869  1
  V  V1  1  0.63400811  0.00101365  0.13702436  1
  V  V2  1  0.75031814  0.00108157  0.74605809  1
  V  V3  1  0.61136118  0.61963317  -0.00257056  1
  V  V4  1  0.12531798  0.87859009  0.75157832  1
  V  V5  1  0.37436814  0.87639117  0.01375216  1
  V  V6  1  0.12922272  0.13007186  0.00272749  1
  V  V7  1  0.36802405  0.50710913  0.37093319  1
  V  V8  1  0.62630676  0.37449061  0.24270874  1
  V  V9  1  0.00264403  -0.00504887  0.49634941  1
  V  V10  1  0.86615770  0.87332291  -0.00106698  1
  V  V11  1  0.37528468  0.00451663  0.87534251  1
  V  V12  1  0.00116979  0.25045166  0.74693091  1
  V  V13  1  0.87470126  0.25596075  0.12591760  1
  V  V14  1  0.12334005  0.25423967  0.88322217  1
  V  V15  1  0.61417299  0.12742675  0.50383710  1
  V  V16  1  0.48269596  0.63208954  0.62652596  1
  V  V17  1  0.62602393  0.12270751  -0.00085606  1
  V  V18  1  0.74913878  0.49504362  0.23884547  1
  V  V19  1  0.12572262  0.37513117  0.73917825  1
  V  V20  1  0.00563531  0.62291577  0.62724784  1
  V  V21  1  0.19494247  0.46638940  0.19683634  1
  V  V22  1  0.61365750  0.00596529  0.62701926  1
  V  V23  1  0.26229326  0.62839777  0.86819184  1
  V  V24  1  0.00813954  0.25121230  0.26252735  1
  V  V25  1  0.27196230  0.12554389  0.37070099  1
  V  V26  1  0.00070425  0.75079530  0.75182958  1
  V  V27  1  0.62464468  0.86941087  0.74685092  1
  V  V28  1  0.49537439  0.24931257  0.73915530  1
  V  V29  1  0.87647857  0.00128012  0.87358438  1
  V  V30  1  0.00082767  0.87717430  0.87678432  1
  V  V31  1  0.00033806  0.00093140  0.00337782  1
  V  V32  1  0.75266847  0.87418235  0.62912711  1
  V  V33  1  0.48729155  0.74587413  0.74740681  1
  V  V34  1  0.75255175  0.87883375  0.14158228  1
  V  V35  1  0.25481342  -0.00721873  0.24180807  1
  V  V36  1  0.87546193  0.74834495  0.62781585  1
  V  V37  1  0.25159177  0.74848534  0.49163567  1
  V  V38  1  0.87600728  0.49953689  0.87440737  1
  V  V39  1  -0.00217773  0.62172684  0.11985806  1
  V  V40  1  0.62775703  0.75174268  0.88401263  1
  V  V41  1  0.75043424  0.62925142  0.88435719  1
  V  V42  1  0.86802649  0.74832757  0.11712301  1
  V  V43  1  0.87457734  0.37504524  0.00057230  1
  V  V44  1  0.27507407  0.36527303  0.62648332  1
  V  V45  1  0.87596122  0.12443757  0.74492922  1
  V  V46  1  0.74833938  0.74641172  0.50046736  1
  V  V47  1  0.00334800  0.49755840  0.49650455  1
  V  V48  1  0.87967093  0.87283776  0.49361074  1
  V  V49  1  0.61922581  0.62553354  0.50071935  1
  V  V50  1  0.12757515  0.62148431  -0.00309893  1
  V  V51  1  0.87769320  0.49454303  0.37066358  1
  V  V52  1  0.75243129  0.12593513  0.87384742  1
  V  V53  1  0.75002329  0.50099366  0.74918984  1
  V  V54  1  0.12699610  0.75178648  0.87598561  1
  V  V55  1  0.37466466  0.74623188  0.13497409  1
  V  V56  1  0.86355536  0.12278067  0.25514816  1
  V  V57  1  0.50014419  0.61966011  0.13878495  1
  V  V58  1  0.00470812  0.12731223  0.62426067  1
  V  V59  1  0.00198302  0.37466296  0.87347310  1
  V  V60  1  0.87310456  0.63283910  0.25030682  1
  V  V61  1  -0.00012108  0.12860892  0.12858884  1
  V  V62  1  0.13089969  0.00262026  0.62679683  1
  V  V63  1  0.62094980  0.25158823  0.87448649  1
  V  V64  1  0.50332020  -0.00327357  0.00628508  1
  V  V65  1  0.26053683  0.50528556  0.74712445  1
  V  V66  1  0.74968069  0.37575886  0.62422857  1
  V  V67  1  0.74869704  0.25634500  0.00342630  1
  V  V68  1  0.49399711  0.49438069  0.50398862  1
  V  V69  1  0.75034028  0.24503796  0.49594904  1
  V  V70  1  0.87485618  0.62458167  0.75088624  1
  V  V71  1  0.49664128  0.87662507  0.87276429  1
  V  V72  1  0.12671038  0.63146571  0.48739931  1
  V  V73  1  0.74486126  0.62131560  0.37551230  1
  V  V74  1  0.13065614  0.12738748  0.48721409  1
  V  V75  1  0.35663057  0.25462432  0.12155565  1
  V  V76  1  0.25444709  0.13241364  0.87739569  1
  V  V77  1  0.24948264  0.75548476  0.00610225  1
  V  V78  1  0.48861400  0.37237022  0.37709877  1
  V  V79  1  0.87684902  0.24738210  0.62175075  1
  V  V80  1  0.38018956  0.12905870  0.73899667  1
  V  V81  1  0.87468425  0.37522256  0.49593410  1
  V  V82  1  0.62743030  0.25112530  0.37392501  1
  V  V83  1  0.00797969  0.49644950  -0.00049517  1
  V  V84  1  0.38425095  0.50255023  0.87908938  1
  Zn  Zn85  1  0.33662453  0.60922700  0.24643361  1
  Zn  Zn86  1  0.86403566  -0.00629665  0.36039455  1
  Zn  Zn87  1  0.06329249  0.40190652  0.32868159  1
  Zn  Zn88  1  0.02145830  0.84686999  0.37851867  1
  Zn  Zn89  1  0.38135985  0.12443577  0.24452311  1
  Zn  Zn90  1  0.49338421  0.25345844  0.24467705  1
  Zn  Zn91  1  0.00949331  0.74880813  0.25186214  1
  Zn  Zn92  1  0.62611673  0.37315316  0.74964019  1
  Zn  Zn93  1  0.52175429  0.74918042  0.28927134  1
  Zn  Zn94  1  0.61995283  0.49115689  0.11418905  1
  Zn  Zn95  1  0.62248144  0.50110746  0.62529168  1
  Zn  Zn96  1  0.38175439  0.87370007  0.48078369  1
  Zn  Zn97  1  0.37770884  0.37463276  0.00556280  1
  Zn  Zn98  1  0.49852406  0.13089543  0.12364539  1
  Zn  Zn99  1  0.13061349  0.49977981  0.62629044  1
  Zn  Zn100  1  0.58132090  0.91929499  0.30460516  1
  Zn  Zn101  1  0.25703665  0.25799584  0.48976582  1
  Zn  Zn102  1  0.13188411  -0.00510447  0.12255338  1
  Zn  Zn103  1  0.49184889  -0.00342896  0.47851576  1
  Zn  Zn104  1  0.50468397  0.38213300  0.87731710  1
  Zn  Zn105  1  0.12705360  0.86287805  0.23879739  1
  Zn  Zn106  1  0.25428933  0.00194541  0.75074915  1
  Zn  Zn107  1  0.18711821  0.18434474  0.19415707  1
  Zn  Zn108  1  0.19180447  0.18791117  0.69173536  1
  Zn  Zn109  1  0.18217657  0.67037510  0.18816480  1
  Zn  Zn110  1  0.18803536  0.69014793  0.68748860  1
  Zn  Zn111  1  0.68567118  0.19148612  0.18394581  1
  Zn  Zn112  1  0.68614182  0.18842663  0.68549204  1
  Zn  Zn113  1  0.68974062  0.68257947  0.17901489  1
  Zn  Zn114  1  0.68273206  0.68657629  0.68665460  1
  Zn  Zn115  1  0.30488178  0.31278279  0.30485720  1
  Zn  Zn116  1  0.28088063  0.34486995  0.85486334  1
  Zn  Zn117  1  0.29766631  0.80455941  0.31020265  1
  Zn  Zn118  1  0.31182966  0.81822174  0.81510068  1
  Zn  Zn119  1  0.81296963  0.31230089  0.31013835  1
  Zn  Zn120  1  0.81228625  0.31150800  0.81285273  1
  Zn  Zn121  1  0.70599068  0.80310281  0.31248844  1
  Zn  Zn122  1  0.81288310  0.81171242  0.81488861  1
  Zn  Zn123  1  0.19428696  0.44085734  0.44804961  1
  Zn  Zn124  1  0.19711281  0.42310217  1.02813005  1
  Zn  Zn125  1  0.20147585  0.93879513  0.43461355  1
  Zn  Zn126  1  0.18981909  0.94165296  0.94250397  1
  Zn  Zn127  1  0.68330128  0.43743827  0.43503691  1
  Zn  Zn128  1  0.68737190  0.43748572  0.93607669  1
  Zn  Zn129  1  0.69701040  0.94736329  0.44626922  1
  Zn  Zn130  1  0.68786503  0.93739530  0.93543353  1
  Zn  Zn131  1  0.31477625  0.06786298  0.06458133  1
  Zn  Zn132  1  0.31779889  0.05992338  0.55544876  1
  Zn  Zn133  1  0.31649792  0.56711130  0.05753824  1
  Zn  Zn134  1  0.31026813  0.55870563  0.55946008  1
  Zn  Zn135  1  0.81374384  0.06485272  0.06468524  1
  Zn  Zn136  1  0.80762991  0.05314550  0.54254418  1
  Zn  Zn137  1  0.81143303  0.55938127  0.05910125  1
  Zn  Zn138  1  0.81548733  0.56150107  0.56181165  1
  Zn  Zn139  1  0.43514795  0.43277108  0.18873682  1
  Zn  Zn140  1  0.44321032  0.43988639  0.69704499  1
  Zn  Zn141  1  0.42416832  0.93289566  0.30394475  1
  Zn  Zn142  1  0.47198894  0.88960082  0.63199732  1
  Zn  Zn143  1  0.94007138  0.43658382  0.18588472  1
  Zn  Zn144  1  0.93761012  0.43626579  0.68322605  1
  Zn  Zn145  1  0.94536051  0.93520072  0.19040861  1
  Zn  Zn146  1  0.94013744  0.93979761  0.68175149  1
  Zn  Zn147  1  0.08285198  0.01458768  0.33219065  1
  Zn  Zn148  1  0.06463001  0.06457431  0.81371926  1
  Zn  Zn149  1  0.06318014  0.57478434  0.30865263  1
  Zn  Zn150  1  0.06848798  0.55991550  0.81294813  1
  Zn  Zn151  1  0.55944231  0.08226008  0.31730922  1
  Zn  Zn152  1  0.56021374  0.06345683  0.81077437  1
  Zn  Zn153  1  0.56127955  0.55707461  0.31540686  1
  Zn  Zn154  1  0.56687239  0.56721274  0.80627380  1
  Zn  Zn155  1  0.43620390  0.19891056  0.44882666  1
  Zn  Zn156  1  0.43934391  0.19295450  0.94366953  1
  Zn  Zn157  1  0.42588584  0.68335391  0.43851230  1
  Zn  Zn158  1  0.43945393  0.69326505  0.93913220  1
  Zn  Zn159  1  0.93949383  0.18149359  0.43610132  1
  Zn  Zn160  1  0.93890768  0.18743662  0.93865686  1
  Zn  Zn161  1  0.93429781  0.68403515  0.43766226  1
  Zn  Zn162  1  0.93739670  0.68902257  0.93701225  1
  Zn  Zn163  1  0.06883434  0.31899527  0.07933866  1
  Zn  Zn164  1  0.08216777  0.32653493  0.52351937  1
  Zn  Zn165  1  0.05936380  0.80994601  0.06692221  1
  Zn  Zn166  1  0.06702872  0.81206841  0.56648770  1
  Zn  Zn167  1  0.55061629  0.31661389  0.05864062  1
  Zn  Zn168  1  0.56182383  0.31565576  0.56272412  1
  Zn  Zn169  1  0.56005249  0.81885618  0.15235109  1
  Zn  Zn170  1  0.56363717  0.81392399  0.46011788  1
  O  O171  1  0.11555835  0.12946535  0.11548261  1
  O  O172  1  0.12557600  0.11698224  0.62407138  1
  O  O173  1  0.11125845  0.62427963  0.10365603  1
  O  O174  1  0.11206139  0.62407460  0.62783683  1
  O  O175  1  0.63276629  0.11765667  0.11018011  1
  O  O176  1  0.62885241  0.11713163  0.61784875  1
  O  O177  1  0.61345066  0.62351189  0.11452481  1
  O  O178  1  0.62419121  0.62094941  0.61168558  1
  O  O179  1  0.38612278  0.37906690  0.36852837  1
  O  O180  1  0.38311934  0.39862907  0.86061612  1
  O  O181  1  0.37509646  0.85766303  0.36967612  1
  O  O182  1  0.37954222  0.88694353  0.88056954  1
  O  O183  1  0.87081834  0.38770601  0.37938764  1
  O  O184  1  0.88304568  0.37880738  0.87897337  1
  O  O185  1  0.87761505  0.87705245  0.39374743  1
  O  O186  1  0.88062668  0.88085193  0.87990586  1
  O  O187  1  0.24939668  0.01688755  0.36195787  1
  O  O188  1  0.25810268  0.01282365  0.87760880  1
  O  O189  1  0.27078647  0.49428904  0.38700978  1
  O  O190  1  0.26558968  0.51552128  0.86320806  1
  O  O191  1  0.78290295  0.01362732  0.43436264  1
  O  O192  1  0.75766899  0.00526851  0.86586204  1
  O  O193  1  0.75746835  0.50725896  0.37067866  1
  O  O194  1  0.75681267  0.50734876  0.86651423  1
  O  O195  1  0.25019708  0.49116982  0.10727423  1
  O  O196  1  0.25087298  0.48989636  0.63214713  1
  O  O197  1  0.25033692  1.00719367  0.13611698  1
  O  O198  1  0.24087004  0.98942019  0.62561659  1
  O  O199  1  0.74622782  0.50456244  0.13613486  1
  O  O200  1  0.75401185  0.49311765  0.63226535  1
  O  O201  1  0.74458899  0.99109466  0.11768201  1
  O  O202  1  0.74615640  0.99444163  0.63225673  1
  O  O203  1  -0.00887549  0.35748762  0.25066903  1
  O  O204  1  0.00463579  0.37080844  0.75288595  1
  O  O205  1  0.00364723  0.86932621  0.25735381  1
  O  O206  1  0.00584392  0.87247384  0.75689737  1
  O  O207  1  0.51048207  0.37447155  0.26112131  1
  O  O208  1  0.50692260  0.36237893  0.75596162  1
  O  O209  1  0.50360502  0.85797540  0.24675516  1
  O  O210  1  0.50966244  0.86347594  0.74632529  1
  O  O211  1  0.49855960  0.13496243  0.24234955  1
  O  O212  1  0.49299203  0.13701735  0.75547934  1
  O  O213  1  0.50937255  0.63249695  0.24163591  1
  O  O214  1  0.50722921  0.63240211  0.73399994  1
  O  O215  1  0.98812773  0.13883858  0.23492160  1
  O  O216  1  0.99590954  0.12963823  0.74363142  1
  O  O217  1  0.98851285  0.62055215  0.23451520  1
  O  O218  1  0.99502448  0.62758117  0.74577819  1
  O  O219  1  0.37594655  0.25100760  0.01564628  1
  O  O220  1  0.36377955  0.24444656  0.51297101  1
  O  O221  1  0.36700329  0.75752620  0.00318886  1
  O  O222  1  0.35423802  0.74815090  0.50270250  1
  O  O223  1  0.86812628  0.25441790  0.00383434  1
  O  O224  1  0.86906351  0.25355114  0.50174503  1
  O  O225  1  0.87828019  0.76065799  0.00445929  1
  O  O226  1  0.86894008  0.75246714  0.50900438  1
  O  O227  1  0.13895980  0.22820012  0.51054325  1
  O  O228  1  0.11512232  0.24658682  0.98996059  1
  O  O229  1  0.12764560  0.73593852  0.50702106  1
  O  O230  1  0.13098669  0.74363648  0.99350532  1
  O  O231  1  0.63116911  0.24757754  0.49634374  1
  O  O232  1  0.63337242  0.24338799  0.99402215  1
  O  O233  1  0.64341923  0.74010893  0.50817989  1
  O  O234  1  0.62576608  0.73831796  0.98391142  1
  O  O235  1  0.49963014  0.24690742  0.12773858  1
  O  O236  1  0.50939349  0.25120448  0.64094140  1
  O  O237  1  0.48543854  0.73538334  0.12235273  1
  O  O238  1  0.49741297  0.73640005  0.63332451  1
  O  O239  1  0.99157702  0.24555959  0.12514918  1
  O  O240  1  0.99377983  0.24198002  0.62873854  1
  O  O241  1  0.98593900  0.73467605  0.11920055  1
  O  O242  1  0.99550632  0.74290918  0.63293166  1
  O  O243  1  -0.00182688  0.24600476  0.36203083  1
  O  O244  1  0.00487108  0.25416423  0.86784366  1
  O  O245  1  -0.00292904  0.73797719  0.36704220  1
  O  O246  1  0.00592953  0.75668906  0.87005291  1
  O  O247  1  0.50835995  0.25916072  0.37528841  1
  O  O248  1  0.51442544  0.24768792  0.87168919  1
  O  O249  1  0.51516489  0.73304298  0.39762220  1
  O  O250  1  0.50867067  0.75737897  0.86825961  1
  O  O251  1  0.24172157  0.11541097  0.48459782  1
  O  O252  1  0.23537814  0.12274461  0.99347511  1
  O  O253  1  0.23467091  0.63607618  0.51197611  1
  O  O254  1  0.24255377  0.63125107  0.98739025  1
  O  O255  1  0.74033438  0.14455649  0.51232592  1
  O  O256  1  0.74674568  0.13234023  0.99135522  1
  O  O257  1  0.74576430  0.62654400  0.49467029  1
  O  O258  1  0.74597059  0.62320490  0.98691767  1
  O  O259  1  0.26834545  0.37423459  -0.03618685  1
  O  O260  1  0.24988276  0.37330756  0.52463452  1
  O  O261  1  0.26014242  0.86569365  -0.00674055  1
  O  O262  1  0.24550173  0.86409546  0.51173503  1
  O  O263  1  0.75925095  0.36543847  -0.00770219  1
  O  O264  1  0.75528602  0.37164999  0.50758430  1
  O  O265  1  0.76443187  0.87982356  -0.00156448  1
  O  O266  1  0.76134953  0.86196320  0.51300623  1
  O  O267  1  0.10545333  0.48303411  0.25479712  1
  O  O268  1  0.13381817  0.49069148  0.74860243  1
  O  O269  1  0.14371431  1.01548067  0.23842128  1
  O  O270  1  0.12917642  0.99629678  0.74503511  1
  O  O271  1  0.63420142  0.49166196  0.25097404  1
  O  O272  1  0.64035786  0.49879104  0.74754671  1
  O  O273  1  0.62721244  1.00743039  0.23860402  1
  O  O274  1  0.63353511  0.99393045  0.75005143  1
  O  O275  1  0.36088855  0.00618084  0.24409041  1
  O  O276  1  0.37680624  0.01324593  0.77046045  1
  O  O277  1  0.38329810  0.50142380  0.26635689  1
  O  O278  1  0.36424816  0.50622357  0.75197502  1
  O  O279  1  0.87967216  0.01750880  0.24746806  1
  O  O280  1  0.87139641  0.00557656  0.75241581  1
  O  O281  1  0.86829271  0.50428567  0.25361948  1
  O  O282  1  0.86770878  0.50450207  0.75390084  1
  O  O283  1  0.11502388  0.36952974  0.41921153  1
  O  O284  1  0.11697342  0.36402962  0.85989135  1
  O  O285  1  0.11739982  0.90668375  0.36607212  1
  O  O286  1  0.12096159  0.87288134  0.87175384  1
  O  O287  1  0.61767952  0.36728332  0.36942847  1
  O  O288  1  0.62836191  0.36476970  0.87034252  1
  O  O289  1  0.64230783  0.86896944  0.38644756  1
  O  O290  1  0.62074528  0.86935236  0.86554671  1
  O  O291  1  0.37776187  0.13975122  0.12366628  1
  O  O292  1  0.36606651  0.11819740  0.64191472  1
  O  O293  1  0.38625253  0.62621916  0.12834282  1
  O  O294  1  0.38484228  0.62348565  0.62267815  1
  O  O295  1  0.88168174  0.13815588  0.12510553  1
  O  O296  1  0.88176721  0.12875155  0.62666708  1
  O  O297  1  0.87557255  0.63036108  0.12566582  1
  O  O298  1  0.88539835  0.62974030  0.62963996  1
  O  O299  1  0.25694536  0.24791778  0.12651702  1
  O  O300  1  0.25238425  0.26746797  0.63950703  1
  O  O301  1  0.25702058  0.73428859  0.10771695  1
  O  O302  1  0.24029062  0.76484165  0.62039903  1
  O  O303  1  0.75753571  0.24754478  0.10986795  1
  O  O304  1  0.75690050  0.26002875  0.62093840  1
  O  O305  1  0.76244724  0.75835687  0.12351876  1
  O  O306  1  0.75769592  0.75034829  0.62177099  1
  O  O307  1  0.25109471  0.23218203  0.37284010  1
  O  O308  1  0.23584170  0.23836320  0.86792539  1
  O  O309  1  0.23778099  0.75113486  0.39380221  1
  O  O310  1  0.24553218  0.74583224  0.88083838  1
  O  O311  1  0.74252914  0.26126989  0.38742498  1
  O  O312  1  0.74285671  0.24472369  0.88109932  1
  O  O313  1  0.75712254  0.73051563  0.38578029  1
  O  O314  1  0.74136939  0.73914625  0.86672448  1
  O  O315  1  0.00718270  0.12176517  0.00663438  1
  O  O316  1  0.01055617  0.11933403  0.50798291  1
  O  O317  1  0.00513684  0.61676022  -0.00126374  1
  O  O318  1  0.00738838  0.61754819  0.50800859  1
  O  O319  1  0.51254127  0.11689059  -0.00263958  1
  O  O320  1  0.51276730  0.12278460  0.49353518  1
  O  O321  1  0.50851644  0.62797139  0.00603572  1
  O  O322  1  0.50500012  0.61888906  0.51311254  1
  O  O323  1  0.50566169  0.38495652  0.49201914  1
  O  O324  1  0.49325969  0.37935999  0.98920106  1
  O  O325  1  0.49637616  0.87949941  0.52001636  1
  O  O326  1  0.48935977  0.88489863  0.99016124  1
  O  O327  1  0.98747857  0.39246211  0.51348253  1
  O  O328  1  0.99686712  0.38210767  0.99564440  1
  O  O329  1  0.99946976  0.87734232  0.49899869  1
  O  O330  1  0.98999803  0.88195014  0.99320191  1
  O  O331  1  0.49335994  0.49295624  0.38510563  1
  O  O332  1  0.48671782  0.50925232  0.86063309  1
  O  O333  1  0.51034039  0.99119488  0.36336420  1
  O  O334  1  0.49491392  0.99618615  0.88269999  1
  O  O335  1  0.99335327  0.50205148  0.38204242  1
  O  O336  1  0.99451851  0.49487143  0.87924592  1
  O  O337  1  0.98376787  1.00960106  0.39573173  1
  O  O338  1  0.99480043  0.99756674  0.88137902  1
  O  O339  1  -0.00431159  0.01323901  0.11600541  1
  O  O340  1  0.01648122  0.00751401  0.62422968  1
  O  O341  1  -0.01234418  0.51173215  0.11056259  1
  O  O342  1  -0.00108868  0.50993364  0.61848538  1
  O  O343  1  0.51681730  0.00445187  0.10927555  1
  O  O344  1  0.51562029  -0.00054651  0.64064000  1
  O  O345  1  0.50168007  0.51518849  0.13251527  1
  O  O346  1  0.50109499  0.50872480  0.62147378  1
  O  O347  1  0.24378751  0.39764754  0.24954630  1
  O  O348  1  0.24251076  0.38603756  0.74666977  1
  O  O349  1  0.24547525  0.89022237  0.25147819  1
  O  O350  1  0.24221264  0.87826113  0.74335052  1
  O  O351  1  0.74168794  0.38561053  0.25530827  1
  O  O352  1  0.75301067  0.38325093  0.74224407  1
  O  O353  1  0.75989882  0.87755735  0.24091218  1
  O  O354  1  0.74520905  0.88003930  0.74853572  1
  O  O355  1  0.25675356  0.12272875  0.26160464  1
  O  O356  1  0.26004229  0.12305245  0.76136453  1
  O  O357  1  0.22699510  0.57338874  0.22786654  1
  O  O358  1  0.24145423  0.61885259  0.75816055  1
  O  O359  1  0.76545891  0.12998450  0.24021162  1
  O  O360  1  0.75692877  0.12122220  0.75422861  1
  O  O361  1  0.75471910  0.61696751  0.25689312  1
  O  O362  1  0.75560890  0.61765425  0.75508840  1
  O  O363  1  0.37216986  0.12570902  0.37375523  1
  O  O364  1  0.36711859  0.12344348  0.87960821  1
  O  O365  1  0.37046902  0.61193291  0.36720506  1
  O  O366  1  0.36701082  0.62592751  0.87604345  1
  O  O367  1  0.87367332  0.13102703  0.35637894  1
  O  O368  1  0.87204244  0.12053561  0.86742044  1
  O  O369  1  0.86838760  0.61208540  0.36605299  1
  O  O370  1  0.86797194  0.62125349  0.87046658  1
  O  O371  1  0.13509171  0.39959663  0.12203671  1
  O  O372  1  0.11905508  0.37467733  0.63453659  1
  O  O373  1  0.11594181  0.88358338  0.12343028  1
  O  O374  1  0.12949473  0.88380122  0.63389978  1
  O  O375  1  0.62111631  0.37538179  0.13868109  1
  O  O376  1  0.63946368  0.37854059  0.62699062  1
  O  O377  1  0.64105353  0.88904655  0.11748135  1
  O  O378  1  0.63544216  0.88364367  0.63995906  1
  O  O379  1  0.10689285  0.24845371  0.24603056  1
  O  O380  1  0.11737186  0.25492551  0.75629020  1
  O  O381  1  0.12445806  0.74671946  0.24004885  1
  O  O382  1  0.11875364  0.75795047  0.75707875  1
  O  O383  1  0.63072197  0.25848884  0.25911471  1
  O  O384  1  0.61957755  0.24768137  0.75928664  1
  O  O385  1  0.62979609  0.75789236  0.23800500  1
  O  O386  1  0.62025894  0.75646184  0.75688471  1
  O  O387  1  0.37305233  0.25056975  0.23674921  1
  O  O388  1  0.39291927  0.24143477  0.75613916  1
  O  O389  1  0.34903827  0.73121327  0.23529973  1
  O  O390  1  0.38870850  0.75377026  0.75993623  1
  O  O391  1  0.87795085  0.24517413  0.24032788  1
  O  O392  1  0.88070528  0.24381065  0.74380003  1
  O  O393  1  0.87440779  0.73393025  0.23797497  1
  O  O394  1  0.88181719  0.74244276  0.74837242  1
  O  O395  1  0.38833756  0.50654897  0.49134732  1
  O  O396  1  0.37817518  0.50700179  0.98036449  1
  O  O397  1  0.38134918  0.98659534  0.50566894  1
  O  O398  1  0.38284041  0.99577755  0.99652881  1
  O  O399  1  0.88300353  0.49879557  0.48981992  1
  O  O400  1  0.88218399  0.49474458  0.99145465  1
  O  O401  1  0.89839408  0.97828614  0.53441696  1
  O  O402  1  0.88187233  0.99628711  0.99318355  1
  O  O403  1  0.11637760  0.01218010  -0.00056302  1
  O  O404  1  0.12051507  0.00789782  0.50946467  1
  O  O405  1  0.11275990  0.50670246  -0.01300446  1
  O  O406  1  0.11888500  0.51591775  0.50790129  1
  O  O407  1  0.62081565  0.00822374  -0.00370028  1
  O  O408  1  0.62054329  0.01108746  0.51179058  1
  O  O409  1  0.63204674  0.51360643  -0.00045649  1
  O  O410  1  0.61380946  0.50702472  0.50183074  1
  O  O411  1  0.37592110  0.36147526  0.12425229  1
  O  O412  1  0.37287846  0.37547863  0.63316172  1
  O  O413  1  0.37686584  0.86126276  0.11357585  1
  O  O414  1  0.35739412  0.87371656  0.63583275  1
  O  O415  1  0.87850150  0.36346061  0.11714672  1
  O  O416  1  0.86571865  0.36913258  0.61886755  1
  O  O417  1  0.87118806  0.86853841  0.11709292  1
  O  O418  1  0.87162552  0.86137694  0.62884001  1
  O  O419  1  0.11864879  0.11825654  0.38889064  1
  O  O420  1  0.12922550  0.13429597  0.88164110  1
  O  O421  1  0.12660368  0.62169632  0.38979985  1
  O  O422  1  0.13069025  0.63193926  0.88166888  1
  O  O423  1  0.62923974  0.14343416  0.38579159  1
  O  O424  1  0.63256978  0.13009688  0.88290475  1
  O  O425  1  0.63471404  0.61451197  0.38883421  1
  O  O426  1  0.63168414  0.63046834  0.87875473  1
