# generated using pymatgen
data_V85Zn86O256
_symmetry_space_group_name_H-M   'P 1'
_cell_length_a   16.95005437
_cell_length_b   16.95068227
_cell_length_c   16.95351015
_cell_angle_alpha   89.96382132
_cell_angle_beta   90.01911214
_cell_angle_gamma   89.98037729
_symmetry_Int_Tables_number   1
_chemical_formula_structural   V85Zn86O256
_chemical_formula_sum   'V85 Zn86 O256'
_cell_volume   4870.99600239
_cell_formula_units_Z   1
loop_
 _symmetry_equiv_pos_site_id
 _symmetry_equiv_pos_as_xyz
  1  'x, y, z'
loop_
 _atom_site_type_symbol
 _atom_site_label
 _atom_site_symmetry_multiplicity
 _atom_site_fract_x
 _atom_site_fract_y
 _atom_site_fract_z
 _atom_site_occupancy
  V  V0  1  0.25182726  0.37166015  0.62480462  1
  V  V1  1  0.25549577  0.86779598  0.62054746  1
  V  V2  1  0.75094563  0.87563282  0.12146282  1
  V  V3  1  0.25343768  0.49602212  0.24151374  1
  V  V4  1  0.37053014  0.25774727  0.12758942  1
  V  V5  1  0.75389811  0.60785653  0.37921822  1
  V  V6  1  0.37000003  0.00509900  0.37682234  1
  V  V7  1  0.61902343  0.62703740  0.50032558  1
  V  V8  1  0.62913536  0.37746851  0.75087590  1
  V  V9  1  0.86250060  0.86298507  0.49831188  1
  V  V10  1  0.62677523  0.87619162  0.24904334  1
  V  V11  1  0.12974154  0.37270532  0.24826206  1
  V  V12  1  0.50598143  0.50558801  0.00036305  1
  V  V13  1  -0.00240564  0.24924840  0.75178664  1
  V  V14  1  0.62524552  0.12601500  -0.00142286  1
  V  V15  1  0.37584736  0.50907923  0.87313913  1
  V  V16  1  0.24855320  0.25847436  0.00334309  1
  V  V17  1  0.12315022  0.24938272  0.87678205  1
  V  V18  1  0.50158355  0.87453748  0.37645274  1
  V  V19  1  0.12385076  0.37869659  0.74906886  1
  V  V20  1  0.25447343  0.62097618  0.37340880  1
  V  V21  1  0.49938328  0.00019659  -0.00264498  1
  V  V22  1  0.12786215  0.74860844  0.37213222  1
  V  V23  1  0.75081462  0.51982406  0.75243766  1
  V  V24  1  0.37647877  0.00086740  0.87698581  1
  V  V25  1  0.87475254  0.38384920  0.49701134  1
  V  V26  1  0.25207843  0.24201183  0.49902591  1
  V  V27  1  0.50336153  0.75145734  0.25072183  1
  V  V28  1  0.74442090  0.73517341  -0.00090147  1
  V  V29  1  0.87093423  0.51113044  0.87352115  1
  V  V30  1  0.62952003  0.74460405  0.86891374  1
  V  V31  1  0.62990249  0.38096052  0.25107254  1
  V  V32  1  0.62487576  0.00147889  0.12538310  1
  V  V33  1  0.64679098  0.88344210  0.75293037  1
  V  V34  1  0.12874094  0.24372203  0.37534472  1
  V  V35  1  -0.00126931  0.38621053  0.87695801  1
  V  V36  1  0.12315448  0.49434860  0.11718326  1
  V  V37  1  0.87483856  0.25468669  0.63113471  1
  V  V38  1  0.88012447  0.37978123  0.00005987  1
  V  V39  1  0.63888702  0.75224257  0.37968223  1
  V  V40  1  0.75313550  0.00337365  0.24858728  1
  V  V41  1  0.44843254  0.82179123  0.82049335  1
  V  V42  1  0.76278848  0.11298468  0.87919272  1
  V  V43  1  0.50511344  0.62577371  0.12381954  1
  V  V44  1  0.48774114  0.64284409  0.63109558  1
  V  V45  1  0.49859962  0.12787374  0.12701087  1
  V  V46  1  0.75467322  0.12919642  0.36647711  1
  V  V47  1  0.24741608  0.12564118  0.87735402  1
  V  V48  1  0.75177940  0.25248155  0.50094288  1
  V  V49  1  0.37238314  0.75082512  0.12798961  1
  V  V50  1  0.37799623  0.87401589  0.00365113  1
  V  V51  1  0.12441021  -0.00515849  0.62481518  1
  V  V52  1  -0.00308357  0.63100490  0.63836559  1
  V  V53  1  0.12723812  0.87494028  0.24199994  1
  V  V54  1  0.62533244  0.12586163  0.50177120  1
  V  V55  1  0.87213635  0.87873179  -0.00503045  1
  V  V56  1  0.49638485  0.39269342  0.37836143  1
  V  V57  1  0.86592469  0.74808682  0.63448782  1
  V  V58  1  0.37725723  0.62041550  0.25284441  1
  V  V59  1  0.12061026  0.62099447  0.49581078  1
  V  V60  1  0.61359659  0.50278437  0.62240317  1
  V  V61  1  -0.00034295  0.38092500  0.37389056  1
  V  V62  1  -0.00099839  0.61911219  0.12653107  1
  V  V63  1  0.87876601  0.00210550  0.36997472  1
  V  V64  1  0.63258521  0.50528461  0.12358837  1
  V  V65  1  0.00224388  0.87350611  0.37642656  1
  V  V66  1  0.87583431  0.24294697  0.12814946  1
  V  V67  1  0.37493658  0.12597196  0.74938990  1
  V  V68  1  0.24556728  0.00795594  0.24755892  1
  V  V69  1  0.00573237  0.85939714  0.87303041  1
  V  V70  1  0.49980564  0.25025654  0.75033802  1
  V  V71  1  0.00312254  0.11334023  0.12858183  1
  V  V72  1  0.24717161  -0.00180550  0.75067226  1
  V  V73  1  0.00364688  0.00043914  -0.01137698  1
  V  V74  1  0.50050823  0.25149452  0.25450855  1
  V  V75  1  0.81769097  0.06735844  0.70312798  1
  V  V76  1  0.25317739  0.50657632  0.74707241  1
  V  V77  1  -0.00417745  0.24333149  0.25196942  1
  V  V78  1  0.00205007  0.12136212  0.62960325  1
  V  V79  1  0.50189310  -0.00010466  0.50227102  1
  V  V80  1  0.49899615  0.37675229  0.87731401  1
  V  V81  1  0.75175394  0.37658971  0.12777270  1
  V  V82  1  0.75012011  0.25185184  -0.00223980  1
  V  V83  1  0.86955313  0.60977986  0.25229028  1
  V  V84  1  0.12220544  0.63061323  -0.00422358  1
  Zn  Zn85  1  0.24496065  0.75309195  -0.00120231  1
  Zn  Zn86  1  0.38514437  0.38185639  0.50130910  1
  Zn  Zn87  1  0.12059240  0.49883186  0.62249277  1
  Zn  Zn88  1  0.24696899  0.88079645  0.12350597  1
  Zn  Zn89  1  0.24464193  0.62490879  0.87258777  1
  Zn  Zn90  1  0.38424034  0.86761913  0.50599217  1
  Zn  Zn91  1  -0.00643140  0.50346944  0.49851407  1
  Zn  Zn92  1  -0.00433666  0.74679477  0.24964864  1
  Zn  Zn93  1  0.12646595  0.12191422  0.49787430  1
  Zn  Zn94  1  0.87265559  0.74725939  0.12770916  1
  Zn  Zn95  1  0.37156964  0.38037923  0.00553415  1
  Zn  Zn96  1  0.62458870  0.25354869  0.37709338  1
  Zn  Zn97  1  0.00068678  -0.00153499  0.50091744  1
  Zn  Zn98  1  0.37017451  0.12896149  0.25538842  1
  Zn  Zn99  1  0.25932189  0.74321358  0.50323344  1
  Zn  Zn100  1  0.11649564  0.86201129  0.74530816  1
  Zn  Zn101  1  0.63788126  -0.00416253  0.62820595  1
  Zn  Zn102  1  0.62641148  0.24859448  0.87487246  1
  Zn  Zn103  1  0.50383300  0.12432965  0.62765478  1
  Zn  Zn104  1  0.12933324  0.11950341  0.00653640  1
  Zn  Zn105  1  0.37694082  0.24973867  0.62211507  1
  Zn  Zn106  1  0.75110679  0.38169331  0.62632687  1
  Zn  Zn107  1  0.18571551  0.18670552  0.18598450  1
  Zn  Zn108  1  0.18563657  0.18743730  0.68780214  1
  Zn  Zn109  1  0.18750078  0.68675606  0.18466825  1
  Zn  Zn110  1  0.18580567  0.68398391  0.67869912  1
  Zn  Zn111  1  0.68512633  0.19183239  0.18683650  1
  Zn  Zn112  1  0.68390765  0.19192950  0.68629494  1
  Zn  Zn113  1  0.69192712  0.68689665  0.19081294  1
  Zn  Zn114  1  0.68215750  0.69401521  0.68412712  1
  Zn  Zn115  1  0.31277455  0.31403163  0.31591957  1
  Zn  Zn116  1  0.31326971  0.31494333  0.81477424  1
  Zn  Zn117  1  0.31408030  0.81511295  0.31752219  1
  Zn  Zn118  1  0.26453963  0.78924800  0.79664590  1
  Zn  Zn119  1  0.81443132  0.31538242  0.31259998  1
  Zn  Zn120  1  0.81211060  0.31335427  0.81540632  1
  Zn  Zn121  1  0.81593580  0.80993592  0.30801777  1
  Zn  Zn122  1  0.81497919  0.80957910  0.81791001  1
  Zn  Zn123  1  0.22217476  0.45428193  0.45302689  1
  Zn  Zn124  1  0.18629775  0.44060391  0.93472399  1
  Zn  Zn125  1  0.18772112  0.93858457  0.43709754  1
  Zn  Zn126  1  0.18560331  0.93586877  0.93969721  1
  Zn  Zn127  1  0.68190849  0.43737662  0.44092900  1
  Zn  Zn128  1  0.68831778  0.44058593  0.93691652  1
  Zn  Zn129  1  0.68793818  0.94114608  0.43622639  1
  Zn  Zn130  1  0.68402629  0.93363755  0.93385602  1
  Zn  Zn131  1  0.31270167  0.06769784  0.06700021  1
  Zn  Zn132  1  0.31390953  0.05965248  0.56402168  1
  Zn  Zn133  1  0.31200696  0.56228022  0.06295334  1
  Zn  Zn134  1  0.31849663  0.55787462  0.55903293  1
  Zn  Zn135  1  0.81782841  0.06105191  0.05971157  1
  Zn  Zn136  1  0.81903766  0.06301567  0.53986545  1
  Zn  Zn137  1  0.81456134  0.55997740  0.06289929  1
  Zn  Zn138  1  0.80804923  0.56829709  0.56582598  1
  Zn  Zn139  1  0.44177697  0.43785044  0.18896669  1
  Zn  Zn140  1  0.43594278  0.43806858  0.68797740  1
  Zn  Zn141  1  0.43506866  0.94009848  0.18975368  1
  Zn  Zn142  1  0.43701581  0.94161620  0.68385214  1
  Zn  Zn143  1  0.93998717  0.43447974  0.18815213  1
  Zn  Zn144  1  0.93716075  0.44411813  0.68822766  1
  Zn  Zn145  1  0.93684882  0.93363241  0.18741380  1
  Zn  Zn146  1  0.93766667  0.92517006  0.68578741  1
  Zn  Zn147  1  0.06385894  0.06235584  0.31049254  1
  Zn  Zn148  1  0.06093597  0.06113640  0.81055616  1
  Zn  Zn149  1  0.06387703  0.55968304  0.30842154  1
  Zn  Zn150  1  0.06727762  0.68815700  0.81579534  1
  Zn  Zn151  1  0.56337525  0.06515612  0.31580092  1
  Zn  Zn152  1  0.56808296  0.06100131  0.81449496  1
  Zn  Zn153  1  0.56874277  0.56478676  0.30967185  1
  Zn  Zn154  1  0.55886786  0.56670155  0.80690932  1
  Zn  Zn155  1  0.43639819  0.18925466  0.43778440  1
  Zn  Zn156  1  0.43505366  0.18995542  0.93824067  1
  Zn  Zn157  1  0.44146786  0.68745126  0.43887887  1
  Zn  Zn158  1  0.43748015  0.68637903  0.94021433  1
  Zn  Zn159  1  0.93918515  0.18903362  0.44095034  1
  Zn  Zn160  1  0.93933704  0.18941485  0.94047002  1
  Zn  Zn161  1  0.93671236  0.68601940  0.43345482  1
  Zn  Zn162  1  0.93410342  0.68520921  0.94963694  1
  Zn  Zn163  1  0.06150727  0.30981154  0.06370713  1
  Zn  Zn164  1  0.06307838  0.31154630  0.56023345  1
  Zn  Zn165  1  0.05627376  0.80901885  0.06484358  1
  Zn  Zn166  1  0.06278875  0.80680638  0.55831511  1
  Zn  Zn167  1  0.56229266  0.31577147  0.06417506  1
  Zn  Zn168  1  0.56309500  0.31442504  0.56382653  1
  Zn  Zn169  1  0.56332236  0.81251373  0.05884465  1
  Zn  Zn170  1  0.57219975  0.81418204  0.56764255  1
  O  O171  1  0.10865975  0.13110723  0.12223015  1
  O  O172  1  0.11690717  0.11568093  0.62494863  1
  O  O173  1  0.11714735  0.61468252  0.12326715  1
  O  O174  1  0.11257861  0.62441481  0.61317727  1
  O  O175  1  0.61973923  0.12083399  0.11872947  1
  O  O176  1  0.62693263  0.12169499  0.61375813  1
  O  O177  1  0.61966210  0.61521719  0.13442898  1
  O  O178  1  0.61835877  0.62221280  0.61665185  1
  O  O179  1  0.39540891  0.37329593  0.36970877  1
  O  O180  1  0.38813574  0.38159373  0.87722833  1
  O  O181  1  0.38791007  0.88810978  0.37114020  1
  O  O182  1  0.38601941  0.88285432  0.88494217  1
  O  O183  1  0.88588124  0.36633287  0.38548623  1
  O  O184  1  0.88005195  0.37761469  0.88340970  1
  O  O185  1  0.88237976  0.87744983  0.38025436  1
  O  O186  1  0.88784730  0.86812691  0.88846655  1
  O  O187  1  0.25943662  -0.00569516  0.36490821  1
  O  O188  1  0.25494938  0.00397392  0.87111509  1
  O  O189  1  0.23901566  0.51650439  0.35441970  1
  O  O190  1  0.25841434  0.50199158  0.86772412  1
  O  O191  1  0.75744560  0.00914720  0.36914030  1
  O  O192  1  0.75179653  0.01430442  0.88475574  1
  O  O193  1  0.74404490  0.50991263  0.37314715  1
  O  O194  1  0.75427675  0.49679596  0.86101448  1
  O  O195  1  0.24178121  0.50088283  0.13472012  1
  O  O196  1  0.24551825  0.48950466  0.63256035  1
  O  O197  1  0.25534182  0.99924233  0.14207567  1
  O  O198  1  0.24168210  0.99333295  0.62940830  1
  O  O199  1  0.73972392  0.49340854  0.12022147  1
  O  O200  1  0.74260975  0.50171062  0.63926048  1
  O  O201  1  0.74694191  0.99831967  0.13057634  1
  O  O202  1  0.76260394  1.01624554  0.63326352  1
  O  O203  1  0.00413867  0.36273676  0.25595642  1
  O  O204  1  0.00627190  0.37044531  0.75482512  1
  O  O205  1  0.00747800  0.87395567  0.26023840  1
  O  O206  1  -0.00050378  0.87446844  0.76924414  1
  O  O207  1  0.50867314  0.37025753  0.25865403  1
  O  O208  1  0.50886596  0.37049101  0.75664168  1
  O  O209  1  0.50840054  0.87328516  0.25497938  1
  O  O210  1  0.50180716  0.88007590  0.75624806  1
  O  O211  1  0.50200820  0.13409789  0.24429695  1
  O  O212  1  0.49480570  0.13326277  0.75293768  1
  O  O213  1  0.49440483  0.63001779  0.24563476  1
  O  O214  1  0.50105256  0.62703563  0.73044025  1
  O  O215  1  1.00168257  0.13476769  0.24340092  1
  O  O216  1  1.00242284  0.13250966  0.73917826  1
  O  O217  1  0.98743983  0.62288407  0.24797838  1
  O  O218  1  1.00533350  0.62776495  0.73659405  1
  O  O219  1  0.36761962  0.25341719  0.00864427  1
  O  O220  1  0.36694583  0.25613739  0.50070774  1
  O  O221  1  0.38155666  0.75948301  0.01229075  1
  O  O222  1  0.36798565  0.75985825  0.47828395  1
  O  O223  1  0.86903814  0.25883388  0.00744487  1
  O  O224  1  0.86885794  0.25542286  0.51164741  1
  O  O225  1  0.85856752  0.75545783  0.00374148  1
  O  O226  1  0.87535841  0.76067263  0.49694707  1
  O  O227  1  0.12916444  0.24479919  0.49140792  1
  O  O228  1  0.13173138  0.24797205  0.99445416  1
  O  O229  1  0.13103066  0.73852851  0.48905099  1
  O  O230  1  0.12556461  0.73449785  1.00909507  1
  O  O231  1  0.63433338  0.24449236  0.50058115  1
  O  O232  1  0.63364953  0.24565701  1.00152766  1
  O  O233  1  0.62526090  0.74270146  0.49064447  1
  O  O234  1  0.63695881  0.75913736  0.98759683  1
  O  O235  1  0.49580852  0.24794434  0.13590043  1
  O  O236  1  0.49937270  0.24898933  0.63833325  1
  O  O237  1  0.49502557  0.74641354  0.13061965  1
  O  O238  1  0.49858672  0.74223626  0.61932125  1
  O  O239  1  0.99230080  0.24291381  0.13240616  1
  O  O240  1  0.99224737  0.24229525  0.62939503  1
  O  O241  1  0.99618553  0.73370652  0.12883531  1
  O  O242  1  0.99270142  0.73669502  0.61816042  1
  O  O243  1  0.00399017  0.25374872  0.36788303  1
  O  O244  1  0.00375568  0.25600716  0.86956716  1
  O  O245  1  0.01138013  0.75557529  0.37178004  1
  O  O246  1  -0.00155897  0.75510478  0.88166882  1
  O  O247  1  0.50332363  0.24994023  0.36261553  1
  O  O248  1  0.50086612  0.25822388  0.86703292  1
  O  O249  1  0.51294826  0.75545372  0.36715563  1
  O  O250  1  0.50818507  0.75772969  0.87960982  1
  O  O251  1  0.24926676  0.13759980  0.50792086  1
  O  O252  1  0.24937294  0.13361333  0.99418081  1
  O  O253  1  0.24300457  0.62537637  0.48738072  1
  O  O254  1  0.23158414  0.62172004  1.00574730  1
  O  O255  1  0.74601384  0.13596177  0.49074759  1
  O  O256  1  0.74774687  0.13142747  0.99435445  1
  O  O257  1  0.74251500  0.62187312  0.48478992  1
  O  O258  1  0.74783862  0.63701133  1.00551676  1
  O  O259  1  0.25129415  0.36254043  -0.00597478  1
  O  O260  1  0.23547705  0.35781487  0.51818953  1
  O  O261  1  0.26343086  0.87669202  0.00383798  1
  O  O262  1  0.24810913  0.87594730  0.51399394  1
  O  O263  1  0.75523900  0.36707228  0.00539457  1
  O  O264  1  0.75488007  0.36523421  0.49983343  1
  O  O265  1  0.75744469  0.87606193  0.00452321  1
  O  O266  1  0.76428241  0.87763180  0.49474306  1
  O  O267  1  0.13110617  0.49079665  0.24023863  1
  O  O268  1  0.13592974  0.48302200  0.74949125  1
  O  O269  1  0.13830072  0.99180485  0.25728796  1
  O  O270  1  0.12933356  0.99698275  0.73921814  1
  O  O271  1  0.62139307  0.48870187  0.23971880  1
  O  O272  1  0.63363207  0.49563399  0.74682871  1
  O  O273  1  0.63170615  0.99675781  0.24556544  1
  O  O274  1  0.62679044  0.98915924  0.74900500  1
  O  O275  1  0.36421196  0.00335326  0.25724384  1
  O  O276  1  0.37072915  0.00813637  0.75747393  1
  O  O277  1  0.36772699  0.50897864  0.24097370  1
  O  O278  1  0.36435418  0.49034743  0.76039214  1
  O  O279  1  0.86955998  -0.00572182  0.26225137  1
  O  O280  1  0.87671650  0.00321879  0.74924137  1
  O  O281  1  0.87521141  0.51010468  0.24815030  1
  O  O282  1  0.85769560  0.49552544  0.75666775  1
  O  O283  1  0.11533211  0.36180604  0.36226534  1
  O  O284  1  0.11651187  0.37098928  0.86994238  1
  O  O285  1  0.12064615  0.86722737  0.36906375  1
  O  O286  1  0.10865311  0.87427832  0.87817529  1
  O  O287  1  0.61712924  0.37433921  0.36761461  1
  O  O288  1  0.61445527  0.37488353  0.86905792  1
  O  O289  1  0.62242275  0.86979306  0.37061558  1
  O  O290  1  0.62495950  0.86885858  0.86156878  1
  O  O291  1  0.38368878  0.13771235  0.12914243  1
  O  O292  1  0.37803561  0.12513036  0.63944738  1
  O  O293  1  0.38208446  0.63278528  0.13260877  1
  O  O294  1  0.38928716  0.62325792  0.61488162  1
  O  O295  1  0.88343889  0.13723853  0.11903186  1
  O  O296  1  0.87592201  0.12681242  0.63218908  1
  O  O297  1  0.87988974  0.62114049  0.13513183  1
  O  O298  1  0.88713448  0.63604593  0.61792174  1
  O  O299  1  0.25849248  0.24488826  0.11690110  1
  O  O300  1  0.25259002  0.25441053  0.62152246  1
  O  O301  1  0.26315061  0.75204038  0.12295747  1
  O  O302  1  0.24944643  0.76351567  0.62246392  1
  O  O303  1  0.75730144  0.25248140  0.11568967  1
  O  O304  1  0.75754795  0.25212442  0.61800201  1
  O  O305  1  0.74534651  0.75677558  0.11306743  1
  O  O306  1  0.76696141  0.73982425  0.62077777  1
  O  O307  1  0.24110928  0.25543388  0.38529051  1
  O  O308  1  0.24508957  0.24542618  0.88209181  1
  O  O309  1  0.23976710  0.73861764  0.36671538  1
  O  O310  1  0.26212279  0.73474141  0.88979010  1
  O  O311  1  0.75005571  0.24452265  0.38209569  1
  O  O312  1  0.74932112  0.24558695  0.88775797  1
  O  O313  1  0.74035172  0.74441219  0.36881985  1
  O  O314  1  0.74054961  0.75063270  0.88642351  1
  O  O315  1  -0.00017274  0.11222879  0.00503138  1
  O  O316  1  -0.00298969  0.12189126  0.51682361  1
  O  O317  1  0.01083380  0.62307583  0.01239272  1
  O  O318  1  0.00751063  0.62085024  0.49577439  1
  O  O319  1  0.50433650  0.12270434  0.00720457  1
  O  O320  1  0.51017593  0.12097832  0.50049090  1
  O  O321  1  0.49879422  0.61316900  0.00726657  1
  O  O322  1  0.51334563  0.62476700  0.50408018  1
  O  O323  1  0.50311798  0.37172216  0.48338291  1
  O  O324  1  0.49988486  0.38472396  0.99263975  1
  O  O325  1  0.50541901  0.88399416  0.49534545  1
  O  O326  1  0.48880846  0.88745315  1.00864473  1
  O  O327  1  0.99228535  0.37613146  0.49251320  1
  O  O328  1  0.99011974  0.36838400  0.99167372  1
  O  O329  1  0.99747995  0.87421735  0.48576260  1
  O  O330  1  0.99538791  0.88068159  0.99369703  1
  O  O331  1  0.50394000  0.49128719  0.37189068  1
  O  O332  1  0.49743623  0.49568549  0.88014677  1
  O  O333  1  0.49899039  0.99557853  0.38552427  1
  O  O334  1  0.49405990  1.01098936  0.89095013  1
  O  O335  1  1.00519004  0.48398433  0.37449277  1
  O  O336  1  0.98721367  0.48551258  0.86931815  1
  O  O337  1  0.99439851  0.99323519  0.37443848  1
  O  O338  1  1.00031592  0.99490612  0.88622345  1
  O  O339  1  -0.00693402  0.00985150  0.12081578  1
  O  O340  1  0.00627879  0.00329571  0.62673963  1
  O  O341  1  0.00889335  0.50861236  0.13188871  1
  O  O342  1  -0.00033513  0.51462977  0.62125838  1
  O  O343  1  0.50254802  0.00853379  0.11790303  1
  O  O344  1  0.50226491  0.00372287  0.61162973  1
  O  O345  1  0.50966303  0.50339573  0.11767390  1
  O  O346  1  0.51110548  0.50249309  0.62900417  1
  O  O347  1  0.24134627  0.38290183  0.25475409  1
  O  O348  1  0.24361134  0.37448678  0.74150556  1
  O  O349  1  0.24254528  0.88276109  0.24893415  1
  O  O350  1  0.24406401  0.88316453  0.73616402  1
  O  O351  1  0.74075160  0.36810383  0.24238371  1
  O  O352  1  0.73568413  0.37320214  0.75037664  1
  O  O353  1  0.74582853  0.88100912  0.24223895  1
  O  O354  1  0.74584688  0.88115343  0.75723856  1
  O  O355  1  0.24845058  0.11217215  0.25052521  1
  O  O356  1  0.25675268  0.11992902  0.75603196  1
  O  O357  1  0.25935876  0.61930111  0.25014699  1
  O  O358  1  0.24507571  0.60905460  0.74678976  1
  O  O359  1  0.74566032  0.12516730  0.26106517  1
  O  O360  1  0.75205282  0.12650948  0.76084953  1
  O  O361  1  0.76065051  0.62445310  0.26093933  1
  O  O362  1  0.74489324  0.61745408  0.75047470  1
  O  O363  1  0.38249034  0.10987503  0.37340692  1
  O  O364  1  0.36854896  0.12198732  0.86701720  1
  O  O365  1  0.36884010  0.62840881  0.36038565  1
  O  O366  1  0.37862201  0.61102091  0.87701508  1
  O  O367  1  0.86702456  0.11516935  0.38340865  1
  O  O368  1  0.86177971  0.12978976  0.87964663  1
  O  O369  1  0.86229146  0.62342073  0.36793926  1
  O  O370  1  0.87945552  0.60983169  0.88400084  1
  O  O371  1  0.11677037  0.37947927  0.13800811  1
  O  O372  1  0.12782488  0.37402392  0.63418236  1
  O  O373  1  0.12372602  0.86988054  0.13835399  1
  O  O374  1  0.12910806  0.87939900  0.62479379  1
  O  O375  1  0.63074583  0.38190215  0.13232910  1
  O  O376  1  0.62649217  0.38440313  0.63293805  1
  O  O377  1  0.63018982  0.88346310  0.12830163  1
  O  O378  1  0.62865890  0.87701223  0.64506204  1
  O  O379  1  0.11943740  0.25469638  0.25436910  1
  O  O380  1  0.12029386  0.25893617  0.75707513  1
  O  O381  1  0.12325730  0.75627733  0.25581025  1
  O  O382  1  0.14426249  0.75052594  0.76013926  1
  O  O383  1  0.61712556  0.26151462  0.25027016  1
  O  O384  1  0.61713550  0.25824014  0.75275739  1
  O  O385  1  0.62226893  0.75739856  0.25545490  1
  O  O386  1  0.63304502  0.76281232  0.76196976  1
  O  O387  1  0.38085662  0.24854519  0.24567293  1
  O  O388  1  0.38266799  0.24301479  0.75160073  1
  O  O389  1  0.38199987  0.74534242  0.24419469  1
  O  O390  1  0.38332664  0.77057382  0.76772345  1
  O  O391  1  0.88334869  0.25394683  0.24005767  1
  O  O392  1  0.87821287  0.25679127  0.73829492  1
  O  O393  1  0.87630201  0.73646433  0.24639593  1
  O  O394  1  0.87311036  0.75747549  0.73371687  1
  O  O395  1  0.33199593  0.47978429  0.48266748  1
  O  O396  1  0.38284516  0.49777062  0.99452917  1
  O  O397  1  0.38378629  0.99651656  0.49402875  1
  O  O398  1  0.38026850  0.99636904  0.99835030  1
  O  O399  1  0.87010534  0.48657071  0.50522901  1
  O  O400  1  0.86644890  0.48633908  0.99153258  1
  O  O401  1  0.88069581  0.98560880  0.48634136  1
  O  O402  1  0.88970833  0.99008614  1.00395526  1
  O  O403  1  0.10921508  -0.00064278  0.00204117  1
  O  O404  1  0.12248032  0.00238733  0.51040676  1
  O  O405  1  0.12757304  0.50228201  0.01342999  1
  O  O406  1  0.12758325  0.51150275  0.49871845  1
  O  O407  1  0.61678069  0.00402667  0.00539031  1
  O  O408  1  0.62171499  0.00787766  0.50389869  1
  O  O409  1  0.61748823  0.49607484  0.00906119  1
  O  O410  1  0.63174626  0.51010287  0.51297317  1
  O  O411  1  0.38193370  0.36192707  0.12501868  1
  O  O412  1  0.36637845  0.37167901  0.62284763  1
  O  O413  1  0.37455513  0.86747509  0.12110831  1
  O  O414  1  0.35884092  0.88284466  0.62293313  1
  O  O415  1  0.87234743  0.36744806  0.11850400  1
  O  O416  1  0.87394684  0.36871369  0.61827859  1
  O  O417  1  0.87009743  0.87074890  0.11486629  1
  O  O418  1  0.88310479  0.86026662  0.60809015  1
  O  O419  1  0.11817981  0.13875029  0.37683489  1
  O  O420  1  0.13106431  0.13054802  0.87663699  1
  O  O421  1  0.12989800  0.63124055  0.37543302  1
  O  O422  1  0.12011786  0.61727942  0.89347317  1
  O  O423  1  0.63505186  0.12718960  0.38651608  1
  O  O424  1  0.63616377  0.12851837  0.88282012  1
  O  O425  1  0.63538713  0.63114686  0.37842040  1
  O  O426  1  0.61696260  0.64572180  0.86841085  1
