# generated using pymatgen
data_V85Zn86O256
_symmetry_space_group_name_H-M   'P 1'
_cell_length_a   16.93554041
_cell_length_b   16.93205701
_cell_length_c   16.94294049
_cell_angle_alpha   89.96418654
_cell_angle_beta   89.95594545
_cell_angle_gamma   90.06592293
_symmetry_Int_Tables_number   1
_chemical_formula_structural   V85Zn86O256
_chemical_formula_sum   'V85 Zn86 O256'
_cell_volume   4858.44248579
_cell_formula_units_Z   1
loop_
 _symmetry_equiv_pos_site_id
 _symmetry_equiv_pos_as_xyz
  1  'x, y, z'
loop_
 _atom_site_type_symbol
 _atom_site_label
 _atom_site_symmetry_multiplicity
 _atom_site_fract_x
 _atom_site_fract_y
 _atom_site_fract_z
 _atom_site_occupancy
  V  V0  1  0.39901386  0.73789204  0.10702776  1
  V  V1  1  0.31436617  0.56788067  0.19421004  1
  V  V2  1  0.24248091  0.12847977  0.88436429  1
  V  V3  1  0.75650073  0.25072709  0.48736069  1
  V  V4  1  0.24921876  0.62970382  0.87266448  1
  V  V5  1  0.37537354  0.00062428  0.37548232  1
  V  V6  1  0.73559658  0.49577413  0.24941114  1
  V  V7  1  0.74570909  0.87484902  0.12238541  1
  V  V8  1  0.36826571  0.86974002  0.50140531  1
  V  V9  1  0.62701139  0.25271030  0.87580663  1
  V  V10  1  0.00023862  0.12416731  0.62467667  1
  V  V11  1  0.24352169  0.37694767  0.62601046  1
  V  V12  1  0.00306256  0.25340171  0.75074707  1
  V  V13  1  0.62403205  0.62503289  0.50185866  1
  V  V14  1  0.75848359  0.62494108  0.87042526  1
  V  V15  1  -0.00128971  0.25890465  0.25099923  1
  V  V16  1  0.87589182  0.25266037  0.61940883  1
  V  V17  1  0.00415551  0.00488089  -0.00002922  1
  V  V18  1  -0.00709422  0.12888051  0.12798111  1
  V  V19  1  0.62410765  0.37604829  0.74826070  1
  V  V20  1  0.36770602  0.24996482  0.62100778  1
  V  V21  1  0.23719017  0.75236879  -0.00252956  1
  V  V22  1  0.13025082  0.12772086  0.49986715  1
  V  V23  1  0.49953003  0.25340952  0.74956944  1
  V  V24  1  0.12399405  0.62329447  -0.00487853  1
  V  V25  1  0.25148164  0.87319064  0.12547745  1
  V  V26  1  0.36660492  0.50518364  0.37238430  1
  V  V27  1  0.87714930  -0.00154959  0.87673887  1
  V  V28  1  0.62539817  0.12557754  -0.00164562  1
  V  V29  1  0.48805790  0.74170435  0.25637892  1
  V  V30  1  0.87840014  0.74432277  0.63387986  1
  V  V31  1  0.25279273  0.50878765  0.74407068  1
  V  V32  1  0.50067407  0.37588592  0.37193886  1
  V  V33  1  0.10913989  0.87311132  0.25659492  1
  V  V34  1  0.24637858  0.87225992  0.62501177  1
  V  V35  1  0.75743866  0.87608899  0.62203194  1
  V  V36  1  0.75192677  0.00011465  0.75195231  1
  V  V37  1  0.62706924  -0.00050242  0.62543562  1
  V  V38  1  0.25205865  0.12980749  0.37835543  1
  V  V39  1  0.76244458  0.25668838  0.00521343  1
  V  V40  1  0.12773000  0.25876818  0.37590801  1
  V  V41  1  0.37705638  0.50403963  0.88558820  1
  V  V42  1  0.63129152  0.12671962  0.49672227  1
  V  V43  1  0.49549222  0.38006751  0.88858035  1
  V  V44  1  0.60774865  0.50999402  0.09689171  1
  V  V45  1  0.88217098  0.62610079  0.25444905  1
  V  V46  1  0.49526686  0.62363622  0.63408666  1
  V  V47  1  0.49939165  0.87766834  0.37844065  1
  V  V48  1  0.74752342  0.73936077  0.00382269  1
  V  V49  1  0.49755737  0.50011527  0.50043680  1
  V  V50  1  0.62723383  0.25205999  0.37229692  1
  V  V51  1  0.62098753  0.87460674  0.24791923  1
  V  V52  1  0.62417163  0.49916868  0.62498082  1
  V  V53  1  0.25037882  -0.00160169  0.25177674  1
  V  V54  1  0.49978724  0.12659197  0.62531528  1
  V  V55  1  0.50451268  0.25206238  0.24726657  1
  V  V56  1  0.37190673  0.87785342  -0.00311678  1
  V  V57  1  0.62399867  0.75138287  0.37643874  1
  V  V58  1  0.00416034  0.48613138  0.50314269  1
  V  V59  1  0.75047376  0.62503376  0.37572124  1
  V  V60  1  0.88009393  0.48607320  0.37797071  1
  V  V61  1  0.87065242  0.01052843  0.37822461  1
  V  V62  1  -0.00370815  0.00139449  0.49559892  1
  V  V63  1  0.13893604  0.37984705  0.24169718  1
  V  V64  1  0.75187034  0.75462766  0.50090322  1
  V  V65  1  0.24817969  0.63321157  0.37636278  1
  V  V66  1  0.12586123  0.62808924  0.50812887  1
  V  V67  1  0.87861845  0.75123774  0.13143717  1
  V  V68  1  0.37122214  0.74660693  0.63104887  1
  V  V69  1  0.75188092  0.37313526  0.61855618  1
  V  V70  1  -0.00528790  0.37617781  0.88679849  1
  V  V71  1  0.37185522  0.26021455  0.11805801  1
  V  V72  1  0.12320407  0.87327434  0.76045679  1
  V  V73  1  0.50129574  0.00025927  0.50127449  1
  V  V74  1  0.76086734  0.50338566  0.74705592  1
  V  V75  1  0.62496892  0.74282986  0.87496122  1
  V  V76  1  0.93475309  0.82964624  0.44204756  1
  V  V77  1  0.49964535  0.12426162  0.12382437  1
  V  V78  1  0.74819891  0.00848961  0.25128375  1
  V  V79  1  0.50087613  0.87484744  0.87294043  1
  V  V80  1  0.12588812  0.00719049  0.12388195  1
  V  V81  1  0.00500118  0.62752744  0.12986968  1
  V  V82  1  0.00252393  0.73882964  0.76140056  1
  V  V83  1  0.37158383  0.12564590  0.75232913  1
  V  V84  1  0.36707050  0.37147488  0.49787898  1
  Zn  Zn85  1  0.11919671  0.75307627  0.37568015  1
  Zn  Zn86  1  0.13582679  0.50082513  0.12689294  1
  Zn  Zn87  1  0.75249217  0.12617987  0.87569783  1
  Zn  Zn88  1  0.75256787  0.38373547  0.11558976  1
  Zn  Zn89  1  0.12101606  0.24962663  0.88744187  1
  Zn  Zn90  1  -0.00116452  0.61541028  0.63119134  1
  Zn  Zn91  1  0.62476878  0.87335817  0.74993487  1
  Zn  Zn92  1  0.12376323  -0.00284393  0.62441293  1
  Zn  Zn93  1  0.00355693  0.87011625  0.88145273  1
  Zn  Zn94  1  0.49831072  0.74613627  0.75219431  1
  Zn  Zn95  1  0.62333134  -0.00180709  0.12261075  1
  Zn  Zn96  1  0.87591739  0.12435609  0.74996247  1
  Zn  Zn97  1  0.12438255  0.37966951  0.75040500  1
  Zn  Zn98  1  0.37574578  0.00304078  0.87410735  1
  Zn  Zn99  1  -0.00527053  0.49647477  0.00829272  1
  Zn  Zn100  1  0.37566608  0.12589689  0.24875350  1
  Zn  Zn101  1  0.24192586  0.26194519  0.00647160  1
  Zn  Zn102  1  0.87288992  0.49617003  0.88448007  1
  Zn  Zn103  1  0.24613063  0.00127819  0.75055982  1
  Zn  Zn104  1  0.87659772  0.87480008  0.00193502  1
  Zn  Zn105  1  0.50129183  -0.00139836  -0.00054967  1
  Zn  Zn106  1  0.87083708  0.12932904  0.25043674  1
  Zn  Zn107  1  0.18726487  0.18765731  0.18920247  1
  Zn  Zn108  1  0.18708648  0.18861305  0.68940471  1
  Zn  Zn109  1  0.18384024  0.69698065  0.18500809  1
  Zn  Zn110  1  0.18578007  0.68979345  0.68890090  1
  Zn  Zn111  1  0.68588895  0.19049044  0.18414338  1
  Zn  Zn112  1  0.68958353  0.18671046  0.68651284  1
  Zn  Zn113  1  0.68238843  0.68218273  0.18917866  1
  Zn  Zn114  1  0.68627289  0.68751521  0.68962931  1
  Zn  Zn115  1  0.31589104  0.31055147  0.30785205  1
  Zn  Zn116  1  0.31080164  0.31650545  0.81654815  1
  Zn  Zn117  1  0.31193060  0.81240952  0.31087114  1
  Zn  Zn118  1  0.31157725  0.81126628  0.81093651  1
  Zn  Zn119  1  0.83009152  0.33402753  0.26930211  1
  Zn  Zn120  1  0.81442717  0.31171177  0.80938822  1
  Zn  Zn121  1  0.80706935  0.81385268  0.30619061  1
  Zn  Zn122  1  0.81544229  0.81403982  0.81261342  1
  Zn  Zn123  1  0.18756464  0.44155577  0.43671181  1
  Zn  Zn124  1  0.17958226  0.43898963  0.93365521  1
  Zn  Zn125  1  0.18529956  0.93861295  0.43794788  1
  Zn  Zn126  1  0.18852782  0.94568804  0.93665200  1
  Zn  Zn127  1  0.68899027  0.43533247  0.43519598  1
  Zn  Zn128  1  0.68740906  0.43891592  0.93756918  1
  Zn  Zn129  1  0.69066937  0.93785394  0.43692413  1
  Zn  Zn130  1  0.68691448  0.93462392  0.93805129  1
  Zn  Zn131  1  0.31521454  0.06461161  0.06380913  1
  Zn  Zn132  1  0.31110585  0.05800706  0.56392662  1
  Zn  Zn133  1  0.31658436  0.43152666  0.05735909  1
  Zn  Zn134  1  0.31068028  0.56301330  0.55942713  1
  Zn  Zn135  1  0.81218278  0.06448266  0.06154248  1
  Zn  Zn136  1  0.81504159  0.06446560  0.56007189  1
  Zn  Zn137  1  0.81528907  0.56166764  0.06538610  1
  Zn  Zn138  1  0.81597434  0.55996707  0.55932369  1
  Zn  Zn139  1  0.45281506  0.43793896  0.18643838  1
  Zn  Zn140  1  0.43118621  0.43917897  0.69310918  1
  Zn  Zn141  1  0.43730375  0.93425648  0.18541434  1
  Zn  Zn142  1  0.43635654  0.93743850  0.68860893  1
  Zn  Zn143  1  0.93704580  0.44091314  0.18387911  1
  Zn  Zn144  1  0.93768761  0.43253506  0.68557534  1
  Zn  Zn145  1  0.93357160  0.94235867  0.18726265  1
  Zn  Zn146  1  0.93928672  0.93293359  0.68816080  1
  Zn  Zn147  1  0.06199443  0.06398169  0.31357564  1
  Zn  Zn148  1  0.06337560  0.06060706  0.81011285  1
  Zn  Zn149  1  0.06467207  0.55928298  0.31595100  1
  Zn  Zn150  1  0.06705501  0.55675796  0.81393068  1
  Zn  Zn151  1  0.56487708  0.06545928  0.31156364  1
  Zn  Zn152  1  0.56190730  0.06200135  0.81295294  1
  Zn  Zn153  1  0.55666632  0.56585945  0.31519051  1
  Zn  Zn154  1  0.56715296  0.56004758  0.81686393  1
  Zn  Zn155  1  0.43880375  0.18790032  0.43821705  1
  Zn  Zn156  1  0.43775161  0.19126067  0.93779165  1
  Zn  Zn157  1  0.43383990  0.68686296  0.44281916  1
  Zn  Zn158  1  0.43200461  0.68754926  0.93663846  1
  Zn  Zn159  1  0.94076116  0.19184704  0.43246398  1
  Zn  Zn160  1  0.94032969  0.18321431  0.93698725  1
  Zn  Zn161  1  0.93988460  0.66725615  0.44302129  1
  Zn  Zn162  1  0.93393775  0.68417483  0.94356354  1
  Zn  Zn163  1  0.06789267  0.30877965  0.06483333  1
  Zn  Zn164  1  0.06518415  0.30882313  0.56024973  1
  Zn  Zn165  1  0.06025774  0.81779117  0.06881420  1
  Zn  Zn166  1  0.06770802  0.80356108  0.57142600  1
  Zn  Zn167  1  0.57210565  0.31949853  0.06718687  1
  Zn  Zn168  1  0.56004301  0.31275554  0.55933487  1
  Zn  Zn169  1  0.55775390  0.79655823  0.05637089  1
  Zn  Zn170  1  0.56273712  0.81203455  0.56584877  1
  O  O171  1  0.11786563  0.11142310  0.13483267  1
  O  O172  1  0.11860174  0.12422187  0.61714420  1
  O  O173  1  0.11906732  0.62511174  0.12151071  1
  O  O174  1  0.12620096  0.62585809  0.61130114  1
  O  O175  1  0.61416438  0.12593249  0.11619759  1
  O  O176  1  0.61996075  0.12037576  0.61792208  1
  O  O177  1  0.63049816  0.60720611  0.12407819  1
  O  O178  1  0.61830430  0.61931117  0.61925363  1
  O  O179  1  0.37853555  0.38004296  0.38024504  1
  O  O180  1  0.38473311  0.38851941  0.86855536  1
  O  O181  1  0.37770775  0.87995626  0.38374686  1
  O  O182  1  0.38063853  0.87651622  0.87977090  1
  O  O183  1  0.87097187  0.38865061  0.36988456  1
  O  O184  1  0.89061058  0.37484414  0.86728569  1
  O  O185  1  0.87481229  0.88131543  0.37624531  1
  O  O186  1  0.87778098  0.88677895  0.87834250  1
  O  O187  1  0.25516327  0.00727548  0.36922335  1
  O  O188  1  0.25513905  0.01376907  0.87056268  1
  O  O189  1  0.26144919  0.50740578  0.37345083  1
  O  O190  1  0.25926623  0.51070426  0.86847611  1
  O  O191  1  0.75755727  -0.00495234  0.36442171  1
  O  O192  1  0.75629727  -0.00044931  0.86759858  1
  O  O193  1  0.75742783  0.50851553  0.37451447  1
  O  O194  1  0.75008247  0.50678193  0.86418649  1
  O  O195  1  0.26050671  0.50723508  0.13184532  1
  O  O196  1  0.25872027  0.49338437  0.63584824  1
  O  O197  1  0.24520518  0.99745973  0.13239954  1
  O  O198  1  0.24878873  0.98610506  0.62899807  1
  O  O199  1  0.74946131  0.50555016  0.14345361  1
  O  O200  1  0.74716787  0.49254929  0.62656974  1
  O  O201  1  0.74807669  0.99130579  0.13066088  1
  O  O202  1  0.74957694  0.99346634  0.62969649  1
  O  O203  1  0.01058771  0.36149359  0.24958147  1
  O  O204  1  0.00335182  0.36701379  0.75227555  1
  O  O205  1  0.01096195  0.88229541  0.24983690  1
  O  O206  1  0.00788603  0.86469230  0.75321947  1
  O  O207  1  0.50012187  0.36838731  0.26403212  1
  O  O208  1  0.50649370  0.36966345  0.75184912  1
  O  O209  1  0.50355612  0.87674528  0.26470167  1
  O  O210  1  0.50045353  0.87417056  0.76194097  1
  O  O211  1  0.49990201  0.13262699  0.24118611  1
  O  O212  1  0.49411605  0.13231407  0.74417435  1
  O  O213  1  0.49735669  0.64281268  0.25596804  1
  O  O214  1  0.50492209  0.62203754  0.73644750  1
  O  O215  1  1.00087915  0.13183964  0.24359540  1
  O  O216  1  1.00022353  0.12883913  0.73684137  1
  O  O217  1  0.98977271  0.62426042  0.24923128  1
  O  O218  1  1.00651685  0.63434449  0.74953135  1
  O  O219  1  0.37577448  0.25002083  0.01609117  1
  O  O220  1  0.37978469  0.25906779  0.50837051  1
  O  O221  1  0.35470054  0.76359571  -0.00131310  1
  O  O222  1  0.38055192  0.76430396  0.51044046  1
  O  O223  1  0.85999999  0.24292239  -0.00425010  1
  O  O224  1  0.86723501  0.24414211  0.50439822  1
  O  O225  1  0.86674285  0.75201518  0.01412442  1
  O  O226  1  0.87718735  0.76026359  0.50076395  1
  O  O227  1  0.12251509  0.23646636  0.49093432  1
  O  O228  1  0.12956645  0.24264605  1.00139452  1
  O  O229  1  0.11941554  0.73335592  0.49538634  1
  O  O230  1  0.13179076  0.75005890  1.00604031  1
  O  O231  1  0.63020830  0.24345497  0.49460840  1
  O  O232  1  0.62844407  0.24301113  0.99041394  1
  O  O233  1  0.63009281  0.74462564  0.49592666  1
  O  O234  1  0.63769057  0.75379105  0.98839726  1
  O  O235  1  0.49819010  0.24797032  0.13074548  1
  O  O236  1  0.49086843  0.24638101  0.62926573  1
  O  O237  1  0.49836463  0.77470822  0.15403652  1
  O  O238  1  0.49364198  0.74080894  0.62671487  1
  O  O239  1  1.00594273  0.24165479  0.14115530  1
  O  O240  1  0.99379873  0.24419431  0.62747087  1
  O  O241  1  0.99075908  0.74078359  0.12520019  1
  O  O242  1  0.99253682  0.74550402  0.63715993  1
  O  O243  1  0.01708584  0.24235978  0.36331533  1
  O  O244  1  -0.00175200  0.25604057  0.86717973  1
  O  O245  1  -0.01106020  0.76246011  0.38871657  1
  O  O246  1  -0.00742994  0.74984314  0.86447098  1
  O  O247  1  0.50433104  0.25659499  0.36826678  1
  O  O248  1  0.50685065  0.25801034  0.86854058  1
  O  O249  1  0.50010323  0.75690590  0.37043272  1
  O  O250  1  0.50726074  0.75372800  0.87253654  1
  O  O251  1  0.24208329  0.11748892  0.49176196  1
  O  O252  1  0.25768546  0.12627384  0.98542656  1
  O  O253  1  0.23398696  0.61556031  0.49070524  1
  O  O254  1  0.23587953  0.63725236  0.99203465  1
  O  O255  1  0.73823649  0.13392612  0.50492857  1
  O  O256  1  0.74114883  0.13437182  0.99854043  1
  O  O257  1  0.74696403  0.63141339  0.49123877  1
  O  O258  1  0.75343756  0.63564689  0.99302533  1
  O  O259  1  0.25140479  0.37462450  -0.01062184  1
  O  O260  1  0.26102105  0.38273108  0.50669538  1
  O  O261  1  0.25256443  0.87376489  0.00407699  1
  O  O262  1  0.25800474  0.88022217  0.50809487  1
  O  O263  1  0.75012973  0.36133992  -0.00484344  1
  O  O264  1  0.74524195  0.36647595  0.51123198  1
  O  O265  1  0.75164122  0.86849910  0.01161777  1
  O  O266  1  0.74631042  0.86762011  0.50986687  1
  O  O267  1  0.12275388  0.48314888  0.25237560  1
  O  O268  1  0.14576819  0.49689558  0.75404127  1
  O  O269  1  0.13242023  0.99211731  0.24839410  1
  O  O270  1  0.12364379  0.98845619  0.74392856  1
  O  O271  1  0.63612281  0.51125251  0.25664877  1
  O  O272  1  0.63371847  0.49369212  0.74233134  1
  O  O273  1  0.63105905  0.99332573  0.24928304  1
  O  O274  1  0.63355850  0.99899181  0.74340828  1
  O  O275  1  0.36775122  0.00084354  0.25567367  1
  O  O276  1  0.37563237  0.01595584  0.74818566  1
  O  O277  1  0.37843851  0.50716642  0.25205987  1
  O  O278  1  0.35938716  0.50031263  0.75868716  1
  O  O279  1  0.86556745  0.00135615  0.25959506  1
  O  O280  1  0.86948709  -0.00042171  0.75619744  1
  O  O281  1  0.86644051  0.51058175  0.26442067  1
  O  O282  1  0.86264568  0.49585389  0.74833399  1
  O  O283  1  0.13523437  0.36216659  0.37016167  1
  O  O284  1  0.10832881  0.37054906  0.86969427  1
  O  O285  1  0.12826957  0.87419137  0.36195351  1
  O  O286  1  0.12527381  0.87856543  0.86435907  1
  O  O287  1  0.61316741  0.36187423  0.38597329  1
  O  O288  1  0.61861120  0.36889074  0.86803893  1
  O  O289  1  0.61887785  0.86897207  0.37244439  1
  O  O290  1  0.61738846  0.86583750  0.87436940  1
  O  O291  1  0.38795256  0.13376990  0.12551522  1
  O  O292  1  0.37798625  0.13258077  0.62841897  1
  O  O293  1  0.36408227  0.63425987  0.13577291  1
  O  O294  1  0.38289936  0.63468663  0.61449047  1
  O  O295  1  0.88846076  0.11926129  0.13038557  1
  O  O296  1  0.88312797  0.13462792  0.62446081  1
  O  O297  1  0.88102331  0.63266440  0.13645213  1
  O  O298  1  0.87456847  0.64098526  0.61603429  1
  O  O299  1  0.26958047  0.24278241  0.12828554  1
  O  O300  1  0.26197412  0.25734130  0.62957612  1
  O  O301  1  0.25616864  0.75782862  0.11544913  1
  O  O302  1  0.25682590  0.76089744  0.62717842  1
  O  O303  1  0.74249121  0.25423905  0.10817705  1
  O  O304  1  0.75656733  0.25478435  0.61704708  1
  O  O305  1  0.75233098  0.75403383  0.12062623  1
  O  O306  1  0.75621132  0.75623275  0.62132447  1
  O  O307  1  0.24741480  0.23571135  0.36841356  1
  O  O308  1  0.24945627  0.23725203  0.87248508  1
  O  O309  1  0.25104780  0.73652798  0.37114238  1
  O  O310  1  0.25361164  0.73804686  0.87962455  1
  O  O311  1  0.74185196  0.25644119  0.38521733  1
  O  O312  1  0.74154087  0.24882106  0.87918600  1
  O  O313  1  0.74609216  0.74513356  0.38086351  1
  O  O314  1  0.74650188  0.74522822  0.88027081  1
  O  O315  1  -0.00277611  0.11325615  0.00984236  1
  O  O316  1  0.00559344  0.11981952  0.50770446  1
  O  O317  1  0.01111988  0.62998899  0.00991091  1
  O  O318  1  0.01212487  0.61319416  0.50707298  1
  O  O319  1  0.50752384  0.12513410  0.00545935  1
  O  O320  1  0.50966462  0.12162778  0.50647778  1
  O  O321  1  0.47556630  0.69789882  0.04043752  1
  O  O322  1  0.50547465  0.61853768  0.50717038  1
  O  O323  1  0.48908673  0.37942259  0.49117468  1
  O  O324  1  0.50403635  0.36960050  0.98666844  1
  O  O325  1  0.49471877  0.88078749  0.49651261  1
  O  O326  1  0.49048304  0.87257315  0.98869715  1
  O  O327  1  1.00679114  0.38659958  0.49907009  1
  O  O328  1  1.00080634  0.37252652  0.98987319  1
  O  O329  1  1.00135558  0.88088038  0.50381107  1
  O  O330  1  0.99737471  0.88772436  1.00126771  1
  O  O331  1  0.48975297  0.49370786  0.37812081  1
  O  O332  1  0.48678446  0.49549907  0.86762571  1
  O  O333  1  0.49563740  0.99800432  0.38218682  1
  O  O334  1  0.49775891  0.99054505  0.87805352  1
  O  O335  1  0.98657627  0.50335902  0.38416344  1
  O  O336  1  0.99734943  0.48568521  0.87445763  1
  O  O337  1  0.99205477  1.00319446  0.38782108  1
  O  O338  1  0.99486972  1.00025333  0.88333272  1
  O  O339  1  0.00676707  0.00603341  0.12057337  1
  O  O340  1  -0.00321955  0.00704046  0.61437470  1
  O  O341  1  0.00209739  0.51613110  0.12907382  1
  O  O342  1  -0.00931272  0.49900294  0.60851870  1
  O  O343  1  0.50161085  0.00941059  0.12214322  1
  O  O344  1  0.50615984  0.00501622  0.61987158  1
  O  O345  1  0.50825608  0.50509927  0.11668530  1
  O  O346  1  0.50122878  0.50468399  0.62041800  1
  O  O347  1  0.23803179  0.37114358  0.25005675  1
  O  O348  1  0.25009576  0.38380048  0.74178022  1
  O  O349  1  0.24925999  0.88608620  0.24519339  1
  O  O350  1  0.24118639  0.87503341  0.74426981  1
  O  O351  1  0.73351700  0.39583807  0.26526232  1
  O  O352  1  0.74427815  0.37828976  0.73738384  1
  O  O353  1  0.74113510  0.88175373  0.23920706  1
  O  O354  1  0.74950622  0.88558614  0.74290482  1
  O  O355  1  0.25179868  0.11328481  0.25739648  1
  O  O356  1  0.25794941  0.12436465  0.75534463  1
  O  O357  1  0.24773191  0.62177575  0.25340844  1
  O  O358  1  0.24673905  0.61817197  0.75590985  1
  O  O359  1  0.74878286  0.11277598  0.24234672  1
  O  O360  1  0.75225405  0.11168911  0.74939088  1
  O  O361  1  0.75637814  0.62233618  0.26359859  1
  O  O362  1  0.74668055  0.61500410  0.75581624  1
  O  O363  1  0.36953297  0.11900378  0.37542173  1
  O  O364  1  0.37005864  0.12690981  0.86656312  1
  O  O365  1  0.36503910  0.61729857  0.38294693  1
  O  O366  1  0.36837359  0.61530860  0.87696251  1
  O  O367  1  0.87445833  0.11342165  0.37542312  1
  O  O368  1  0.87354083  0.11182211  0.87114545  1
  O  O369  1  0.86664793  0.62152935  0.37029601  1
  O  O370  1  0.86183284  0.62516886  0.87467888  1
  O  O371  1  0.12585751  0.37981906  0.13772579  1
  O  O372  1  0.14078921  0.36859832  0.62366564  1
  O  O373  1  0.12998839  0.88547568  0.13863107  1
  O  O374  1  0.13277983  0.87422043  0.63246868  1
  O  O375  1  0.63331895  0.40179805  0.11666615  1
  O  O376  1  0.63043263  0.37919997  0.62726169  1
  O  O377  1  0.63041768  0.87453343  0.12738409  1
  O  O378  1  0.63579884  0.88160661  0.62651928  1
  O  O379  1  0.12148523  0.25805533  0.25604502  1
  O  O380  1  0.11098103  0.25056775  0.74989671  1
  O  O381  1  0.12486847  0.76847313  0.25297226  1
  O  O382  1  0.11023081  0.75654323  0.74752432  1
  O  O383  1  0.61479828  0.24663388  0.25774088  1
  O  O384  1  0.62242899  0.25403386  0.75743441  1
  O  O385  1  0.61673064  0.75494914  0.25880050  1
  O  O386  1  0.62265747  0.75405557  0.75908046  1
  O  O387  1  0.38885088  0.24748343  0.24170466  1
  O  O388  1  0.37921788  0.24217893  0.74277844  1
  O  O389  1  0.38508621  0.75365655  0.24244703  1
  O  O390  1  0.37875843  0.75285386  0.73544611  1
  O  O391  1  0.89573085  0.24222885  0.26963838  1
  O  O392  1  0.88478363  0.24568863  0.73989546  1
  O  O393  1  0.86753138  0.74198414  0.23983374  1
  O  O394  1  0.88847620  0.75268493  0.74464869  1
  O  O395  1  0.37978471  0.49282578  0.49091821  1
  O  O396  1  0.37551881  0.50219977  0.98468662  1
  O  O397  1  0.38207991  0.99045854  0.49709088  1
  O  O398  1  0.37571298  0.98783719  1.00009923  1
  O  O399  1  0.88520683  0.50283664  0.48642409  1
  O  O400  1  0.88115326  0.50454848  0.99856585  1
  O  O401  1  0.88091120  0.99878210  0.49230863  1
  O  O402  1  0.88105719  0.99863924  0.99315166  1
  O  O403  1  0.11776317  -0.00330722  0.01216042  1
  O  O404  1  0.11585379  0.01011413  0.50067802  1
  O  O405  1  0.11872501  0.51070565  0.00641961  1
  O  O406  1  0.11049511  0.50834049  0.49072155  1
  O  O407  1  0.62550631  0.01351583  -0.00081956  1
  O  O408  1  0.62290186  0.00867275  0.50374248  1
  O  O409  1  0.61966778  0.50942737  -0.00399564  1
  O  O410  1  0.61878954  0.50397572  0.50501733  1
  O  O411  1  0.38116619  0.36464189  0.12927280  1
  O  O412  1  0.36909542  0.36829964  0.61718365  1
  O  O413  1  0.37338374  0.86436585  0.11378523  1
  O  O414  1  0.36899703  0.86960910  0.61964870  1
  O  O415  1  0.85622418  0.37020501  0.16198410  1
  O  O416  1  0.86688335  0.36084052  0.62526103  1
  O  O417  1  0.86559402  0.86738739  0.12821167  1
  O  O418  1  0.86428749  0.86424584  0.62819874  1
  O  O419  1  0.13443150  0.12996086  0.38096270  1
  O  O420  1  0.13959903  0.12533071  0.86911413  1
  O  O421  1  0.13027042  0.62987240  0.38081462  1
  O  O422  1  0.13437866  0.62098352  0.88380421  1
  O  O423  1  0.61913790  0.13955524  0.38442025  1
  O  O424  1  0.62517708  0.13535755  0.88011248  1
  O  O425  1  0.63095321  0.63118129  0.38221791  1
  O  O426  1  0.63515889  0.63665315  0.87072551  1
