# generated using pymatgen
data_V85Zn86O256
_symmetry_space_group_name_H-M   'P 1'
_cell_length_a   16.91686958
_cell_length_b   16.91373070
_cell_length_c   16.92176100
_cell_angle_alpha   90.02462795
_cell_angle_beta   89.93719135
_cell_angle_gamma   89.91941597
_symmetry_Int_Tables_number   1
_chemical_formula_structural   V85Zn86O256
_chemical_formula_sum   'V85 Zn86 O256'
_cell_volume   4841.77093198
_cell_formula_units_Z   1
loop_
 _symmetry_equiv_pos_site_id
 _symmetry_equiv_pos_as_xyz
  1  'x, y, z'
loop_
 _atom_site_type_symbol
 _atom_site_label
 _atom_site_symmetry_multiplicity
 _atom_site_fract_x
 _atom_site_fract_y
 _atom_site_fract_z
 _atom_site_occupancy
  V  V0  1  0.24925669  0.50083509  0.74799925  1
  V  V1  1  0.62242739  0.00633349  0.63265606  1
  V  V2  1  0.74864075  0.11424407  0.87450634  1
  V  V3  1  0.74812441  0.12511428  0.37627904  1
  V  V4  1  0.50127082  0.00646768  0.49878117  1
  V  V5  1  -0.00056854  0.75836058  0.75700678  1
  V  V6  1  0.87443758  0.25539370  0.62786112  1
  V  V7  1  0.74938048  0.87324095  0.11221973  1
  V  V8  1  0.87928032  0.74405429  0.62519521  1
  V  V9  1  0.24942073  0.25368820  -0.01049142  1
  V  V10  1  0.87283010  0.37850702  0.50145103  1
  V  V11  1  0.37647871  0.62525445  0.75004326  1
  V  V12  1  0.12453576  0.36624483  0.75276318  1
  V  V13  1  0.63008121  0.37354959  0.74630198  1
  V  V14  1  0.11776127  0.00318130  0.11684686  1
  V  V15  1  0.12512082  0.24989181  0.37483051  1
  V  V16  1  0.12569445  0.12453914  0.49923946  1
  V  V17  1  0.25585119  0.12280089  0.36735168  1
  V  V18  1  0.24753723  0.62709672  0.87384959  1
  V  V19  1  0.49388167  0.24559913  0.24891361  1
  V  V20  1  0.25552068  0.87851583  0.12306913  1
  V  V21  1  0.50005792  0.50205220  0.50144767  1
  V  V22  1  0.88315242  0.62213304  0.75113905  1
  V  V23  1  0.50089697  0.24483105  0.74609319  1
  V  V24  1  0.50663093  0.49647904  0.00747449  1
  V  V25  1  0.50192336  0.62980076  0.62750971  1
  V  V26  1  0.13924524  0.49578914  0.12734136  1
  V  V27  1  0.38109532  -0.00325691  0.36672031  1
  V  V28  1  0.23373305  0.75568437  0.50337548  1
  V  V29  1  0.75033340  0.74750631  0.49699385  1
  V  V30  1  0.87207757  0.51285486  0.37028789  1
  V  V31  1  0.63137718  0.49806888  0.62496339  1
  V  V32  1  0.25029616  0.24921957  0.49999400  1
  V  V33  1  0.74428098  0.37875618  0.12674647  1
  V  V34  1  0.37390928  -0.01609681  0.88084928  1
  V  V35  1  0.74793364  0.24830079  0.00069907  1
  V  V36  1  0.89045293  -0.00381466  0.87912398  1
  V  V37  1  0.62242455  0.38050059  0.24877498  1
  V  V38  1  0.87331127  0.74669877  0.12818854  1
  V  V39  1  0.00568466  0.86841410  0.37467468  1
  V  V40  1  0.38365762  0.87119101  0.50108169  1
  V  V41  1  0.48195200  0.12379086  0.12651636  1
  V  V42  1  0.74792049  0.87766968  0.63513970  1
  V  V43  1  0.74896600  0.25301978  0.50354379  1
  V  V44  1  0.12196634  0.51039156  0.62109926  1
  V  V45  1  0.25352161  -0.00567642  0.74910485  1
  V  V46  1  0.12746792  0.87114333  0.25070681  1
  V  V47  1  0.62807730  0.62661422  0.49754367  1
  V  V48  1  0.87418094  0.24853655  0.12571730  1
  V  V49  1  0.37048060  0.62390811  0.25146319  1
  V  V50  1  0.12427156  0.13031234  -0.02184780  1
  V  V51  1  0.87263144  0.87548469  0.49994660  1
  V  V52  1  0.75168083  0.49955992  0.75283003  1
  V  V53  1  0.37862689  0.23791535  0.62396169  1
  V  V54  1  0.25356791  0.75535838  -0.00116836  1
  V  V55  1  0.50296024  0.75836625  0.76040495  1
  V  V56  1  0.25078486  0.37528678  0.62451035  1
  V  V57  1  0.87524306  -0.00091874  0.37438334  1
  V  V58  1  0.49959217  0.37600941  0.37452894  1
  V  V59  1  0.12224839  0.62449521  0.00052561  1
  V  V60  1  0.00065597  -0.00004192  0.49888523  1
  V  V61  1  0.37736306  0.75031935  0.12055672  1
  V  V62  1  0.89291819  0.87275890  -0.00175912  1
  V  V63  1  0.23927985  0.63214673  0.37928482  1
  V  V64  1  0.62451804  0.24970344  0.87602056  1
  V  V65  1  0.13781573  0.37681958  0.24626838  1
  V  V66  1  -0.00093150  0.37666721  0.37459043  1
  V  V67  1  0.62394733  0.00560281  0.12372405  1
  V  V68  1  0.87037175  0.11753722  0.74977609  1
  V  V69  1  0.00056481  0.24891502  0.24837877  1
  V  V70  1  0.49663648  -0.01204517  -0.00282512  1
  V  V71  1  -0.00085656  0.12417128  0.62360547  1
  V  V72  1  0.49802358  0.75231271  0.25666829  1
  V  V73  1  0.37217766  0.12558293  0.76364861  1
  V  V74  1  0.74987364  -0.00017893  0.24969483  1
  V  V75  1  0.13226618  -0.00863298  0.62344923  1
  V  V76  1  0.62317553  0.87563620  0.25370449  1
  V  V77  1  -0.00254159  0.62181791  0.13425160  1
  V  V78  1  0.75026338  0.51076863  0.25260005  1
  V  V79  1  0.36929878  0.50282197  0.37292247  1
  V  V80  1  0.87613628  0.37510687  -0.00332327  1
  V  V81  1  0.37516516  0.37657700  0.50330090  1
  V  V82  1  0.00253215  0.51345606  0.50183601  1
  V  V83  1  0.63154712  0.63011815  0.00572578  1
  V  V84  1  0.62882971  0.74863453  0.37403067  1
  Zn  Zn85  1  0.36695594  0.37905635  0.00435239  1
  Zn  Zn86  1  0.62012144  0.12480139  0.00002605  1
  Zn  Zn87  1  0.49552165  0.37540867  0.87588271  1
  Zn  Zn88  1  0.36931487  0.75719149  0.62676930  1
  Zn  Zn89  1  0.25356058  0.00387450  0.24494730  1
  Zn  Zn90  1  0.11587074  0.76001108  0.88328226  1
  Zn  Zn91  1  -0.00213778  0.12152532  0.11737183  1
  Zn  Zn92  1  0.35847341  0.25662056  0.12984769  1
  Zn  Zn93  1  0.37880787  0.49770948  0.87692353  1
  Zn  Zn94  1  0.62359603  0.25052635  0.37676413  1
  Zn  Zn95  1  0.87572845  0.12375984  0.24832953  1
  Zn  Zn96  1  0.00486943  0.24424922  0.75652801  1
  Zn  Zn97  1  0.00015781  0.74600134  0.25392594  1
  Zn  Zn98  1  0.00015413  0.49772476  0.00069469  1
  Zn  Zn99  1  0.87856694  0.49972799  0.87748466  1
  Zn  Zn100  1  0.63185542  0.76123819  0.88653632  1
  Zn  Zn101  1  0.75103255  0.63191876  0.87844932  1
  Zn  Zn102  1  0.00821759  0.37131559  0.88017474  1
  Zn  Zn103  1  0.62091244  0.12840415  0.50388363  1
  Zn  Zn104  1  0.50462774  0.62044093  0.12889066  1
  Zn  Zn105  1  0.12895270  0.87478577  0.75314757  1
  Zn  Zn106  1  0.62428848  0.88151529  0.75949542  1
  Zn  Zn107  1  0.18802015  0.18858661  0.18355629  1
  Zn  Zn108  1  0.19211570  0.18150588  0.68774582  1
  Zn  Zn109  1  0.18856914  0.68644771  0.18828481  1
  Zn  Zn110  1  0.18520051  0.69004110  0.68451445  1
  Zn  Zn111  1  0.68367284  0.19032231  0.19179063  1
  Zn  Zn112  1  0.69135282  0.18547243  0.68729579  1
  Zn  Zn113  1  0.68770536  0.68945263  0.18131951  1
  Zn  Zn114  1  0.69107950  0.68830169  0.69236956  1
  Zn  Zn115  1  0.31540125  0.31159222  0.31402660  1
  Zn  Zn116  1  0.31097844  0.31259898  0.81868761  1
  Zn  Zn117  1  0.31118850  0.81408421  0.31571808  1
  Zn  Zn118  1  0.31148430  0.81205717  0.81034522  1
  Zn  Zn119  1  0.81232336  0.31618501  0.31431295  1
  Zn  Zn120  1  0.81149092  0.30905725  0.81266136  1
  Zn  Zn121  1  0.81116683  0.81214290  0.30981998  1
  Zn  Zn122  1  0.81279136  0.81309612  0.81793541  1
  Zn  Zn123  1  0.18709446  0.44034784  0.43578697  1
  Zn  Zn124  1  0.18905707  0.43951552  0.93635725  1
  Zn  Zn125  1  0.19178020  0.93517477  0.43651837  1
  Zn  Zn126  1  0.18649537  0.93961274  0.93403882  1
  Zn  Zn127  1  0.68933667  0.43759484  0.43491168  1
  Zn  Zn128  1  0.68465997  0.43910789  0.93754324  1
  Zn  Zn129  1  0.68468796  0.93496600  0.43991317  1
  Zn  Zn130  1  0.68502174  0.93602303  0.93564243  1
  Zn  Zn131  1  0.30514271  0.06648586  0.05390147  1
  Zn  Zn132  1  0.31343783  0.06003501  0.55911771  1
  Zn  Zn133  1  0.31685477  0.56425693  0.06019296  1
  Zn  Zn134  1  0.30989897  0.56781181  0.56136396  1
  Zn  Zn135  1  0.81322134  0.06083998  0.05828687  1
  Zn  Zn136  1  0.80802065  0.06227348  0.56326178  1
  Zn  Zn137  1  0.81177793  0.56010398  0.06664026  1
  Zn  Zn138  1  0.81273588  0.56359543  0.56427212  1
  Zn  Zn139  1  0.43115523  0.43698139  0.18467376  1
  Zn  Zn140  1  0.44044294  0.43627310  0.68998236  1
  Zn  Zn141  1  0.43924711  0.93492367  0.18523077  1
  Zn  Zn142  1  0.43692093  0.94048641  0.68278790  1
  Zn  Zn143  1  0.93791883  0.43707528  0.18591895  1
  Zn  Zn144  1  0.94079472  0.43799498  0.68556640  1
  Zn  Zn145  1  0.93790728  0.93442830  0.18787401  1
  Zn  Zn146  1  0.93438845  0.93844941  0.68732850  1
  Zn  Zn147  1  0.06567451  0.05929427  0.30793972  1
  Zn  Zn148  1  0.06094045  0.05875442  0.80574853  1
  Zn  Zn149  1  0.06279370  0.55844430  0.31092683  1
  Zn  Zn150  1  0.06048754  0.55883190  0.81386345  1
  Zn  Zn151  1  0.56112474  0.06392664  0.31374407  1
  Zn  Zn152  1  0.55587126  0.06323179  0.81395613  1
  Zn  Zn153  1  0.56167040  0.56410675  0.31232886  1
  Zn  Zn154  1  0.56463114  0.56468748  0.82050374  1
  Zn  Zn155  1  0.43712319  0.18526976  0.43535251  1
  Zn  Zn156  1  0.43712679  0.18746404  0.94148038  1
  Zn  Zn157  1  0.43947649  0.68919496  0.43619049  1
  Zn  Zn158  1  0.44119073  0.68111603  0.93871273  1
  Zn  Zn159  1  0.93513597  0.18804387  0.43644121  1
  Zn  Zn160  1  0.94334658  0.18820728  0.93624111  1
  Zn  Zn161  1  0.93704613  0.68795316  0.43651634  1
  Zn  Zn162  1  0.93304386  0.68660323  0.93945420  1
  Zn  Zn163  1  0.06660148  0.30909558  0.06083685  1
  Zn  Zn164  1  0.06041541  0.31669846  0.56512296  1
  Zn  Zn165  1  0.06552512  0.80933321  0.06848513  1
  Zn  Zn166  1  0.05741885  0.81258098  0.56696496  1
  Zn  Zn167  1  0.55801805  0.31229473  0.06571677  1
  Zn  Zn168  1  0.56238088  0.31356384  0.56352373  1
  Zn  Zn169  1  0.56195875  0.81167536  0.06691946  1
  Zn  Zn170  1  0.56171824  0.81702186  0.56540368  1
  O  O171  1  0.12220637  0.10841588  0.12964228  1
  O  O172  1  0.11866682  0.11817553  0.61791144  1
  O  O173  1  0.12034524  0.61571819  0.12099527  1
  O  O174  1  0.12987346  0.60973909  0.62484477  1
  O  O175  1  0.62364725  0.11281011  0.12692779  1
  O  O176  1  0.63180139  0.11062543  0.62238832  1
  O  O177  1  0.62211897  0.62591469  0.11292561  1
  O  O178  1  0.61924210  0.61952580  0.62027867  1
  O  O179  1  0.37872732  0.38452812  0.38131047  1
  O  O180  1  0.37710897  0.37890024  0.88297402  1
  O  O181  1  0.37116528  0.88511718  0.38748685  1
  O  O182  1  0.37624583  0.88530507  0.87403530  1
  O  O183  1  0.88178087  0.38118934  0.38304949  1
  O  O184  1  0.86555258  0.37515036  0.89021384  1
  O  O185  1  0.88023865  0.88052481  0.38038996  1
  O  O186  1  0.87375255  0.88556215  0.88699569  1
  O  O187  1  0.25943806  0.00721101  0.37386037  1
  O  O188  1  0.26598887  -0.00065749  0.86709647  1
  O  O189  1  0.26185142  0.51377372  0.38448302  1
  O  O190  1  0.25035101  0.51418843  0.86882081  1
  O  O191  1  0.75350618  0.00590727  0.37186940  1
  O  O192  1  0.75631683  0.01194334  0.88082952  1
  O  O193  1  0.75894763  0.49618388  0.36462934  1
  O  O194  1  0.74956776  0.50045840  0.86093376  1
  O  O195  1  0.23776608  0.50666057  0.12413996  1
  O  O196  1  0.24568845  0.49440535  0.62762966  1
  O  O197  1  0.24486837  0.99271375  0.12417987  1
  O  O198  1  0.24118773  1.00480680  0.62955233  1
  O  O199  1  0.75656385  0.48503718  0.13696723  1
  O  O200  1  0.73834489  0.50333951  0.63381138  1
  O  O201  1  0.74295621  0.99568290  0.12960736  1
  O  O202  1  0.73495477  0.99010192  0.61659258  1
  O  O203  1  0.00567665  0.36476679  0.25448223  1
  O  O204  1  0.01769722  0.37342453  0.74415618  1
  O  O205  1  0.00802535  0.87528998  0.25870982  1
  O  O206  1  -0.00388716  0.86062474  0.74785485  1
  O  O207  1  0.50601613  0.37216504  0.25559753  1
  O  O208  1  0.51135821  0.36531194  0.75264802  1
  O  O209  1  0.51479973  0.86775528  0.24355271  1
  O  O210  1  0.49718797  0.85951949  0.74173865  1
  O  O211  1  0.50622250  0.13408572  0.24042714  1
  O  O212  1  0.49201234  0.13799897  0.74950893  1
  O  O213  1  0.48979524  0.63288100  0.24987762  1
  O  O214  1  0.49422101  0.63013051  0.74506780  1
  O  O215  1  0.99834440  0.13803129  0.25075743  1
  O  O216  1  0.98851936  0.12459140  0.74162849  1
  O  O217  1  1.00428178  0.62672180  0.23901456  1
  O  O218  1  0.98828068  0.63062846  0.75175317  1
  O  O219  1  0.36006688  0.24627758  0.00152368  1
  O  O220  1  0.37251694  0.25509759  0.50718415  1
  O  O221  1  0.36951421  0.74055521  0.01197875  1
  O  O222  1  0.37748702  0.76273244  0.49995820  1
  O  O223  1  0.86748699  0.25367374  0.00864134  1
  O  O224  1  0.87006743  0.25708006  0.50689605  1
  O  O225  1  0.87908564  0.76537589  0.00808913  1
  O  O226  1  0.86911410  0.75340746  0.50678574  1
  O  O227  1  0.12890753  0.24677649  0.49426321  1
  O  O228  1  0.13085900  0.23785642  0.99787410  1
  O  O229  1  0.13449640  0.75744971  0.50166740  1
  O  O230  1  0.13481724  0.74105721  1.00290520  1
  O  O231  1  0.63413809  0.25024287  0.49957844  1
  O  O232  1  0.62855131  0.24797106  0.99156458  1
  O  O233  1  0.63060023  0.74976383  0.49348079  1
  O  O234  1  0.61756644  0.73575999  1.00316371  1
  O  O235  1  0.50052883  0.23728222  0.13167448  1
  O  O236  1  0.49027586  0.25571875  0.63319141  1
  O  O237  1  0.49143378  0.74836336  0.13696610  1
  O  O238  1  0.49807431  0.73852319  0.62829679  1
  O  O239  1  0.99209296  0.24873321  0.13283530  1
  O  O240  1  0.99049198  0.24159812  0.62535287  1
  O  O241  1  0.99349608  0.74066706  0.12741245  1
  O  O242  1  0.98561826  0.75214750  0.63294484  1
  O  O243  1  0.00419802  0.25558173  0.36905320  1
  O  O244  1  -0.00955122  0.26024117  0.86681505  1
  O  O245  1  -0.00448840  0.76381186  0.37391759  1
  O  O246  1  -0.00218528  0.74620952  0.86082305  1
  O  O247  1  0.49975606  0.25645883  0.36868199  1
  O  O248  1  0.50921331  0.24942625  0.86828600  1
  O  O249  1  0.50738486  0.75008243  0.36309236  1
  O  O250  1  0.49925624  0.74652832  0.86174266  1
  O  O251  1  0.24471155  0.13025866  0.49158864  1
  O  O252  1  0.23181858  0.13134688  0.99682072  1
  O  O253  1  0.25503160  0.63989400  0.48800085  1
  O  O254  1  0.24251143  0.63219004  0.99361178  1
  O  O255  1  0.74932695  0.13398043  0.49223337  1
  O  O256  1  0.74592296  0.13135701  0.99282857  1
  O  O257  1  0.74398510  0.63905107  0.50651421  1
  O  O258  1  0.73515370  0.61508991  1.00093473  1
  O  O259  1  0.24429079  0.36004002  -0.00460699  1
  O  O260  1  0.25616866  0.36935909  0.50366766  1
  O  O261  1  0.24770678  0.86174194  0.00707808  1
  O  O262  1  0.25921075  0.86011573  0.49435953  1
  O  O263  1  0.75186760  0.36989984  0.00950264  1
  O  O264  1  0.76352362  0.36864042  0.49505253  1
  O  O265  1  0.75743767  0.88222922  0.01072409  1
  O  O266  1  0.75356786  0.86447398  0.50694433  1
  O  O267  1  0.12312416  0.49124411  0.23716518  1
  O  O268  1  0.13110102  0.49311824  0.74060423  1
  O  O269  1  0.12936063  0.98985192  0.23789709  1
  O  O270  1  0.13570918  1.00151263  0.74039178  1
  O  O271  1  0.63192810  0.48838051  0.25774425  1
  O  O272  1  0.62998361  0.49413607  0.74484991  1
  O  O273  1  0.62801621  0.99278166  0.24520214  1
  O  O274  1  0.61760917  1.00127209  0.73665122  1
  O  O275  1  0.37520052  -0.00672572  0.26250884  1
  O  O276  1  0.37461816  0.00591495  0.75692876  1
  O  O277  1  0.37957611  0.51021556  0.26157618  1
  O  O278  1  0.36837724  0.50789683  0.74985911  1
  O  O279  1  0.86839062  0.00048675  0.25531397  1
  O  O280  1  0.87640503  0.00485548  0.76413780  1
  O  O281  1  0.86417337  0.49171525  0.25892239  1
  O  O282  1  0.86861780  0.50392500  0.74794995  1
  O  O283  1  0.11930388  0.37056059  0.36790223  1
  O  O284  1  0.12969154  0.37995533  0.85549918  1
  O  O285  1  0.11680330  0.88281830  0.36506373  1
  O  O286  1  0.13225394  0.87032548  0.86711475  1
  O  O287  1  0.61601221  0.37377744  0.36997595  1
  O  O288  1  0.62709808  0.36168557  0.86706053  1
  O  O289  1  0.62996686  0.86308582  0.36550430  1
  O  O290  1  0.62073577  0.87456842  0.87186637  1
  O  O291  1  0.38026312  0.12331519  0.12586784  1
  O  O292  1  0.37260213  0.13524368  0.62923123  1
  O  O293  1  0.37432259  0.63354638  0.13599189  1
  O  O294  1  0.38279724  0.62541333  0.63531249  1
  O  O295  1  0.87579645  0.13537900  0.12540457  1
  O  O296  1  0.87752543  0.12809944  0.63212233  1
  O  O297  1  0.88444294  0.63479728  0.11660538  1
  O  O298  1  0.87039337  0.63479093  0.63397826  1
  O  O299  1  0.24649661  0.24183744  0.10658427  1
  O  O300  1  0.25843568  0.25463847  0.61854557  1
  O  O301  1  0.25782917  0.75495535  0.11853412  1
  O  O302  1  0.25284121  0.74379434  0.60770836  1
  O  O303  1  0.75560469  0.25685289  0.12383997  1
  O  O304  1  0.75905389  0.24524257  0.61199887  1
  O  O305  1  0.75847822  0.76174027  0.12741867  1
  O  O306  1  0.75770607  0.75790572  0.62019505  1
  O  O307  1  0.24728357  0.24265896  0.38141366  1
  O  O308  1  0.25019540  0.24415090  0.88794648  1
  O  O309  1  0.25205005  0.74034245  0.38596904  1
  O  O310  1  0.25239049  0.74031967  0.88177804  1
  O  O311  1  0.75163137  0.24345297  0.38556812  1
  O  O312  1  0.74315623  0.23933153  0.87945737  1
  O  O313  1  0.74382711  0.75267575  0.38422183  1
  O  O314  1  0.74410257  0.74475443  0.86811760  1
  O  O315  1  0.01749069  0.12882806  0.00244595  1
  O  O316  1  0.00446729  0.11957765  0.50286935  1
  O  O317  1  0.01241642  0.62667171  0.00711751  1
  O  O318  1  -0.00143185  0.61309094  0.49683945  1
  O  O319  1  0.50071742  0.11703617  0.01184288  1
  O  O320  1  0.50115494  0.11255562  0.49856679  1
  O  O321  1  0.50899199  0.61462150  0.00380889  1
  O  O322  1  0.50592160  0.62139874  0.50816795  1
  O  O323  1  0.49435348  0.38180772  0.49505502  1
  O  O324  1  0.50611555  0.38742936  0.99722982  1
  O  O325  1  0.49033871  0.88356247  0.49921550  1
  O  O326  1  0.49735491  0.88916729  1.01283581  1
  O  O327  1  0.98856892  0.37926383  0.49400741  1
  O  O328  1  0.98915151  0.37361392  1.00322956  1
  O  O329  1  0.99429139  0.88071543  0.49343616  1
  O  O330  1  0.99153328  0.87426147  1.00428959  1
  O  O331  1  0.49074008  0.49743889  0.38224139  1
  O  O332  1  0.49958457  0.49734261  0.88620438  1
  O  O333  1  0.49191836  1.00242029  0.38221110  1
  O  O334  1  0.48655893  1.00430682  0.88431104  1
  O  O335  1  0.99395334  0.49438024  0.38025496  1
  O  O336  1  0.99781170  0.49013331  0.88067930  1
  O  O337  1  0.99517414  0.99305730  0.37938292  1
  O  O338  1  0.98900643  1.00016328  0.87495021  1
  O  O339  1  0.01424290  -0.00149766  0.12656442  1
  O  O340  1  0.00497319  0.00599246  0.61865078  1
  O  O341  1  0.00571611  0.50790115  0.12249349  1
  O  O342  1  0.00923896  0.49576279  0.61368574  1
  O  O343  1  0.50530041  0.00722541  0.12201974  1
  O  O344  1  0.51413851  -0.00365609  0.61584263  1
  O  O345  1  0.49894885  0.50192622  0.11259851  1
  O  O346  1  0.50917914  0.51072830  0.62340350  1
  O  O347  1  0.23711452  0.37023160  0.25561014  1
  O  O348  1  0.24368925  0.37928924  0.74368546  1
  O  O349  1  0.24463429  0.87634125  0.24179261  1
  O  O350  1  0.25531473  0.88858119  0.74478885  1
  O  O351  1  0.74069733  0.37728356  0.24524820  1
  O  O352  1  0.73795514  0.37949094  0.75061644  1
  O  O353  1  0.74034019  0.88113671  0.24183472  1
  O  O354  1  0.75156944  0.87429643  0.73736311  1
  O  O355  1  0.24449296  0.12486733  0.26381051  1
  O  O356  1  0.26265841  0.11237787  0.74517978  1
  O  O357  1  0.26186313  0.63499947  0.26400890  1
  O  O358  1  0.25616878  0.62483478  0.75523775  1
  O  O359  1  0.75076451  0.11982225  0.25870137  1
  O  O360  1  0.76262652  0.12756579  0.75807108  1
  O  O361  1  0.74296627  0.60954251  0.24384826  1
  O  O362  1  0.76093500  0.61503990  0.74915978  1
  O  O363  1  0.36607156  0.11240319  0.38083723  1
  O  O364  1  0.37869910  0.12008167  0.86511887  1
  O  O365  1  0.37007135  0.62037241  0.37057124  1
  O  O366  1  0.36838111  0.62455102  0.86313358  1
  O  O367  1  0.86421462  0.11887120  0.37392058  1
  O  O368  1  0.87095233  0.11370436  0.87101650  1
  O  O369  1  0.87659856  0.61262933  0.37474841  1
  O  O370  1  0.87194575  0.61953098  0.86803987  1
  O  O371  1  0.12127092  0.38813692  0.13076999  1
  O  O372  1  0.13456092  0.38061648  0.63102250  1
  O  O373  1  0.13493630  0.88477815  0.12667602  1
  O  O374  1  0.11923901  0.88837268  0.62928355  1
  O  O375  1  0.63363130  0.37003948  0.13490302  1
  O  O376  1  0.62005325  0.38659045  0.63281698  1
  O  O377  1  0.63254886  0.88441361  0.13017724  1
  O  O378  1  0.63197525  0.88397164  0.62971777  1
  O  O379  1  0.11801398  0.25534302  0.25459028  1
  O  O380  1  0.12734859  0.26245969  0.74003788  1
  O  O381  1  0.12245244  0.76607104  0.24032916  1
  O  O382  1  0.10777754  0.74935675  0.74485434  1
  O  O383  1  0.61465501  0.26165167  0.25413006  1
  O  O384  1  0.62028335  0.25430973  0.75151694  1
  O  O385  1  0.62062867  0.75467603  0.25509329  1
  O  O386  1  0.60872485  0.74986608  0.74599217  1
  O  O387  1  0.38885900  0.25294288  0.24928866  1
  O  O388  1  0.38048797  0.24447240  0.74461014  1
  O  O389  1  0.38190981  0.74693419  0.24633118  1
  O  O390  1  0.38419997  0.74349452  0.74589144  1
  O  O391  1  0.88152941  0.25114478  0.24288446  1
  O  O392  1  0.87217438  0.24273694  0.73871801  1
  O  O393  1  0.87909857  0.75933351  0.23339310  1
  O  O394  1  0.88328294  0.74402131  0.74457286  1
  O  O395  1  0.38093933  0.49742698  0.49602403  1
  O  O396  1  0.38924916  0.50349640  0.99739034  1
  O  O397  1  0.38226760  0.99165280  0.49415070  1
  O  O398  1  0.37812990  1.00283080  0.98722106  1
  O  O399  1  0.87883217  0.49450060  0.49556946  1
  O  O400  1  0.87557722  0.48847424  1.00173718  1
  O  O401  1  0.87935871  0.99524871  0.49509302  1
  O  O402  1  0.87624745  0.99045410  0.98950819  1
  O  O403  1  0.13135367  0.01124096  0.01023364  1
  O  O404  1  0.12199472  0.00387560  0.50530016  1
  O  O405  1  0.12557657  0.50666612  0.01053265  1
  O  O406  1  0.11376263  0.49190915  0.50759446  1
  O  O407  1  0.61613498  0.00243576  0.00872708  1
  O  O408  1  0.61597756  -0.00024890  0.50613343  1
  O  O409  1  0.61431691  0.50857349  -0.00174803  1
  O  O410  1  0.62253686  0.50416008  0.50688461  1
  O  O411  1  0.37902217  0.36839693  0.11741229  1
  O  O412  1  0.36902235  0.36908720  0.62181473  1
  O  O413  1  0.36349650  0.86628736  0.12973273  1
  O  O414  1  0.37488298  0.87725054  0.60621534  1
  O  O415  1  0.86801783  0.36430187  0.11860240  1
  O  O416  1  0.87924876  0.36432242  0.61763831  1
  O  O417  1  0.87026732  0.87342878  0.11348626  1
  O  O418  1  0.86709195  0.87070282  0.61782485  1
  O  O419  1  0.13054441  0.12959716  0.38074803  1
  O  O420  1  0.12176230  0.12117588  0.87990815  1
  O  O421  1  0.14117313  0.61952085  0.36986621  1
  O  O422  1  0.13079571  0.62911480  0.88334852  1
  O  O423  1  0.63711293  0.12724562  0.37799615  1
  O  O424  1  0.63161807  0.13313964  0.87245147  1
  O  O425  1  0.62015579  0.63870219  0.38192248  1
  O  O426  1  0.62721339  0.63025003  0.89008363  1
