# generated using pymatgen
data_V85Zn86O256
_symmetry_space_group_name_H-M   'P 1'
_cell_length_a   16.93322295
_cell_length_b   16.93370559
_cell_length_c   16.92586427
_cell_angle_alpha   89.96997620
_cell_angle_beta   89.98358531
_cell_angle_gamma   89.92152864
_symmetry_Int_Tables_number   1
_chemical_formula_structural   V85Zn86O256
_chemical_formula_sum   'V85 Zn86 O256'
_cell_volume   4853.35434454
_cell_formula_units_Z   1
loop_
 _symmetry_equiv_pos_site_id
 _symmetry_equiv_pos_as_xyz
  1  'x, y, z'
loop_
 _atom_site_type_symbol
 _atom_site_label
 _atom_site_symmetry_multiplicity
 _atom_site_fract_x
 _atom_site_fract_y
 _atom_site_fract_z
 _atom_site_occupancy
  V  V0  1  0.36131528  0.62489708  0.75080210  1
  V  V1  1  0.87872736  0.62513924  0.74624371  1
  V  V2  1  0.62337591  0.87468712  0.24753305  1
  V  V3  1  0.87239515  0.62956165  0.25088507  1
  V  V4  1  0.76219112  0.01131756  0.76252673  1
  V  V5  1  0.49887703  0.24987470  0.74990267  1
  V  V6  1  -0.00542384  0.13123568  0.12080421  1
  V  V7  1  0.62744691  -0.00175482  0.62338980  1
  V  V8  1  0.63734759  0.24645684  0.87155271  1
  V  V9  1  0.12292073  0.49358457  0.12754377  1
  V  V10  1  0.37209182  0.62602054  0.25385458  1
  V  V11  1  0.37211696  0.87299208  0.49847515  1
  V  V12  1  0.25072037  0.74467407  -0.00711526  1
  V  V13  1  0.62710311  0.37500247  0.74681781  1
  V  V14  1  0.49651430  0.24527762  0.24536658  1
  V  V15  1  0.11906236  -0.00346251  0.12226891  1
  V  V16  1  0.76007077  -0.00337515  0.24988282  1
  V  V17  1  0.76348397  0.37626747  0.62254188  1
  V  V18  1  0.50009898  -0.00011303  0.49862005  1
  V  V19  1  0.88498109  0.87852046  0.48485927  1
  V  V20  1  -0.05982157  0.93526077  0.94231754  1
  V  V21  1  0.75794928  0.11924954  0.37422696  1
  V  V22  1  0.24702455  0.00075174  0.74613979  1
  V  V23  1  0.37219369  0.74708123  0.12375849  1
  V  V24  1  0.62864568  0.12374593  0.49772488  1
  V  V25  1  0.13058241  0.50616154  0.62977877  1
  V  V26  1  0.37444122  -0.00299168  0.87250393  1
  V  V27  1  0.35640487  0.50168258  0.87072787  1
  V  V28  1  0.50136338  0.62471288  0.62651170  1
  V  V29  1  0.25035425  0.00233679  0.25095130  1
  V  V30  1  0.50093341  0.62424106  0.12354483  1
  V  V31  1  0.50278283  -0.00206576  -0.00163632  1
  V  V32  1  0.23115908  0.13104166  0.37774985  1
  V  V33  1  0.23314344  0.62836534  0.37950880  1
  V  V34  1  0.00504815  0.50715413  0.50115275  1
  V  V35  1  0.37722366  0.12419003  0.74754060  1
  V  V36  1  0.11387169  0.01507361  0.62250197  1
  V  V37  1  0.75296305  0.50016219  0.74860585  1
  V  V38  1  -0.00291546  0.36901415  0.38385503  1
  V  V39  1  0.63389151  0.37456934  0.24700151  1
  V  V40  1  0.50087071  0.12505565  0.62333289  1
  V  V41  1  0.24927243  0.37499843  0.64029389  1
  V  V42  1  0.62762940  0.62511819  0.49348225  1
  V  V43  1  0.23571566  0.25215883  0.50027742  1
  V  V44  1  0.75876649  0.25490707  0.49835667  1
  V  V45  1  0.24399842  0.87636350  0.62440028  1
  V  V46  1  -0.00148454  0.75817456  0.75012871  1
  V  V47  1  0.63261568  0.12347014  -0.00532941  1
  V  V48  1  -0.00336662  0.23889817  0.74564888  1
  V  V49  1  0.50002467  0.37545737  0.37786000  1
  V  V50  1  0.87179007  0.13307466  0.23981599  1
  V  V51  1  0.13602479  0.62115108  -0.00231344  1
  V  V52  1  0.62824425  0.25069311  0.37501933  1
  V  V53  1  0.25048752  0.12542546  0.87717340  1
  V  V54  1  0.00214713  0.75426490  0.26401541  1
  V  V55  1  0.24873274  0.49362237  0.25023449  1
  V  V56  1  0.75665071  0.87581909  0.62329588  1
  V  V57  1  0.37253982  0.50330907  0.38125957  1
  V  V58  1  0.12303288  0.87058383  0.26245443  1
  V  V59  1  0.76318081  0.86892728  0.12326846  1
  V  V60  1  -0.00038254  0.01122417  0.48730566  1
  V  V61  1  0.87141064  0.37291150  0.01264244  1
  V  V62  1  0.12106747  0.75008319  0.87408799  1
  V  V63  1  0.63142717  0.49778162  0.12236190  1
  V  V64  1  0.75006737  0.62674206  0.87380056  1
  V  V65  1  0.49713720  0.87610560  0.37227375  1
  V  V66  1  0.75312209  0.25571758  0.01617406  1
  V  V67  1  0.87240116  0.50090940  0.38277869  1
  V  V68  1  0.23349955  0.74910578  0.49567570  1
  V  V69  1  0.12063071  0.12044804  -0.00111021  1
  V  V70  1  0.50149441  0.49844414  -0.00820799  1
  V  V71  1  0.49828370  0.75147577  0.24872794  1
  V  V72  1  0.75116551  0.50497017  0.25408024  1
  V  V73  1  0.62892720  0.87304753  0.74865304  1
  V  V74  1  0.76238498  0.75084100  0.00288825  1
  V  V75  1  0.37362304  0.01362019  0.37357379  1
  V  V76  1  0.12135863  0.36839149  0.25503132  1
  V  V77  1  0.12333878  0.25139536  0.87574587  1
  V  V78  1  0.87719897  0.23516953  0.62834114  1
  V  V79  1  0.75184843  0.74933800  0.49092695  1
  V  V80  1  0.62857517  -0.00051795  0.12400723  1
  V  V81  1  -0.00250425  0.49911066  -0.00145086  1
  V  V82  1  0.24845385  0.87257101  0.12412249  1
  V  V83  1  -0.00275791  0.63591044  0.12338455  1
  V  V84  1  0.50085039  0.87190993  0.87327439  1
  Zn  Zn85  1  0.49955089  0.74868914  0.74902212  1
  Zn  Zn86  1  0.00609268  0.62832199  0.62153157  1
  Zn  Zn87  1  0.62771130  0.74626559  0.37043313  1
  Zn  Zn88  1  0.37530015  0.87183246  -0.00206362  1
  Zn  Zn89  1  0.49607690  0.12797220  0.12142144  1
  Zn  Zn90  1  0.50142681  0.49998731  0.50214712  1
  Zn  Zn91  1  0.12144035  0.37846951  0.75295859  1
  Zn  Zn92  1  0.11903876  0.87983253  0.75533059  1
  Zn  Zn93  1  0.50013656  0.37367812  0.87762997  1
  Zn  Zn94  1  -0.00589497  0.37224232  0.87498454  1
  Zn  Zn95  1  0.87923964  0.75097303  0.62088840  1
  Zn  Zn96  1  0.25000914  0.25141583  0.02845505  1
  Zn  Zn97  1  0.37527755  0.25238608  0.62127528  1
  Zn  Zn98  1  0.87448919  0.49675387  0.87583381  1
  Zn  Zn99  1  -0.00631622  0.25370937  0.24896833  1
  Zn  Zn100  1  0.62729914  0.62702242  -0.00125990  1
  Zn  Zn101  1  0.62726125  0.75113488  0.87706273  1
  Zn  Zn102  1  0.37307922  0.74938693  0.62482909  1
  Zn  Zn103  1  0.33636544  0.17645934  0.19200466  1
  Zn  Zn104  1  0.37802076  0.35283789  0.03875432  1
  Zn  Zn105  1  0.37223834  0.37322252  0.50304010  1
  Zn  Zn106  1  0.62644050  0.49963213  0.62163845  1
  Zn  Zn107  1  0.17488370  0.18680054  0.19121059  1
  Zn  Zn108  1  0.18701889  0.19114666  0.68993216  1
  Zn  Zn109  1  0.18400154  0.68315811  0.18756764  1
  Zn  Zn110  1  0.18521459  0.69104519  0.68389845  1
  Zn  Zn111  1  0.68352862  0.18393580  0.18601741  1
  Zn  Zn112  1  0.69021005  0.18691637  0.68462953  1
  Zn  Zn113  1  0.68863549  0.68676823  0.18601958  1
  Zn  Zn114  1  0.68950290  0.69002984  0.68217795  1
  Zn  Zn115  1  0.31071532  0.31390422  0.31853451  1
  Zn  Zn116  1  0.31590878  0.31332591  0.88844441  1
  Zn  Zn117  1  0.30896822  0.81360155  0.31437740  1
  Zn  Zn118  1  0.31088959  0.80963157  0.81041955  1
  Zn  Zn119  1  0.81523557  0.31539276  0.31123374  1
  Zn  Zn120  1  0.81795824  0.31289077  0.81553641  1
  Zn  Zn121  1  0.81580576  0.81128330  0.30977746  1
  Zn  Zn122  1  0.81763195  0.81619539  0.81515339  1
  Zn  Zn123  1  0.18299180  0.43704793  0.44054134  1
  Zn  Zn124  1  0.18734244  0.43194508  0.94368467  1
  Zn  Zn125  1  0.18398781  0.94348644  0.44121306  1
  Zn  Zn126  1  0.18202915  0.93472882  0.93743109  1
  Zn  Zn127  1  0.68896277  0.43885571  0.43744247  1
  Zn  Zn128  1  0.68948782  0.43562341  0.93428193  1
  Zn  Zn129  1  0.69013925  0.93430953  0.43411015  1
  Zn  Zn130  1  0.69469040  0.93226190  0.93742864  1
  Zn  Zn131  1  0.31195366  0.05826509  0.05822437  1
  Zn  Zn132  1  0.30886638  0.06555077  0.55941567  1
  Zn  Zn133  1  0.32787347  0.52758976  0.07676281  1
  Zn  Zn134  1  0.30940417  0.56420456  0.56348171  1
  Zn  Zn135  1  0.83848648  0.07673034  0.02030416  1
  Zn  Zn136  1  0.81611049  0.05721062  0.56105832  1
  Zn  Zn137  1  0.81421785  0.56391266  0.06491813  1
  Zn  Zn138  1  0.81213289  0.56485817  0.56170718  1
  Zn  Zn139  1  0.44522018  0.43840088  0.19423086  1
  Zn  Zn140  1  0.43542377  0.43956374  0.68956942  1
  Zn  Zn141  1  0.43265674  0.94714184  0.18330639  1
  Zn  Zn142  1  0.43727424  0.93602975  0.68580528  1
  Zn  Zn143  1  0.93798880  0.44055057  0.18882929  1
  Zn  Zn144  1  0.94314198  0.43424487  0.68957731  1
  Zn  Zn145  1  0.93864901  0.93831431  0.17939919  1
  Zn  Zn146  1  0.93590244  0.94027486  0.68575831  1
  Zn  Zn147  1  0.05739365  0.05989438  0.30664660  1
  Zn  Zn148  1  0.05584927  0.05901724  0.81421206  1
  Zn  Zn149  1  0.05699184  0.56062715  0.31220510  1
  Zn  Zn150  1  0.06504296  0.56671776  0.81299628  1
  Zn  Zn151  1  0.56642576  0.06255809  0.31291612  1
  Zn  Zn152  1  0.56965110  0.05978879  0.81150713  1
  Zn  Zn153  1  0.56177575  0.56220779  0.31328670  1
  Zn  Zn154  1  0.56621150  0.56434803  0.80722140  1
  Zn  Zn155  1  0.43555884  0.19290286  0.43991238  1
  Zn  Zn156  1  0.44533543  0.18482701  0.93530652  1
  Zn  Zn157  1  0.43715572  0.68914886  0.43919142  1
  Zn  Zn158  1  0.43661979  0.68373022  0.93476115  1
  Zn  Zn159  1  0.93399811  0.18635773  0.43517927  1
  Zn  Zn160  1  0.93536729  0.17877297  0.92061848  1
  Zn  Zn161  1  0.93611825  0.68609259  0.43512314  1
  Zn  Zn162  1  0.93936519  0.68740757  0.93446123  1
  Zn  Zn163  1  0.06235042  0.31118819  0.06117863  1
  Zn  Zn164  1  0.06039784  0.31698272  0.56595605  1
  Zn  Zn165  1  0.06216192  0.81191186  0.06237697  1
  Zn  Zn166  1  0.05988818  0.81717291  0.56518877  1
  Zn  Zn167  1  0.56536084  0.31468472  0.06198400  1
  Zn  Zn168  1  0.56767667  0.31187556  0.56295640  1
  Zn  Zn169  1  0.56814437  0.80947150  0.05933503  1
  Zn  Zn170  1  0.56260098  0.80887645  0.56188195  1
  O  O171  1  0.11979940  0.11478494  0.11880217  1
  O  O172  1  0.12873709  0.11269165  0.62533546  1
  O  O173  1  0.11482651  0.61554587  0.11950536  1
  O  O174  1  0.12678606  0.61067122  0.62512421  1
  O  O175  1  0.61979040  0.11380092  0.11833665  1
  O  O176  1  0.62129859  0.11854946  0.61623474  1
  O  O177  1  0.61438874  0.61833578  0.12583656  1
  O  O178  1  0.61811983  0.62595829  0.61517446  1
  O  O179  1  0.38376928  0.38417535  0.37696884  1
  O  O180  1  0.38455124  0.39901340  0.85874245  1
  O  O181  1  0.37766784  0.88316580  0.38268620  1
  O  O182  1  0.38321784  0.87898772  0.87247794  1
  O  O183  1  0.88715405  0.38642344  0.36843538  1
  O  O184  1  0.87561654  0.37872467  0.88965434  1
  O  O185  1  0.87221961  0.87769384  0.38656233  1
  O  O186  1  0.87636431  0.88471891  0.88051055  1
  O  O187  1  0.25415353  0.01364507  0.37571160  1
  O  O188  1  0.25098359  0.00810493  0.86810214  1
  O  O189  1  0.25490330  0.50769200  0.37332683  1
  O  O190  1  0.25813214  0.50011612  0.87605429  1
  O  O191  1  0.74328594  0.00825326  0.36245359  1
  O  O192  1  0.74476845  -0.00304659  0.86070173  1
  O  O193  1  0.75702129  0.49640745  0.36329227  1
  O  O194  1  0.75098102  0.50915127  0.86723699  1
  O  O195  1  0.23385275  0.51290450  0.14208734  1
  O  O196  1  0.23779224  0.49107286  0.61814300  1
  O  O197  1  0.24141343  0.99016085  0.12962505  1
  O  O198  1  0.24035988  0.99557183  0.62535149  1
  O  O199  1  0.73829457  0.50646702  0.13537624  1
  O  O200  1  0.75050191  0.49166662  0.62963259  1
  O  O201  1  0.73773464  0.98695099  0.13246294  1
  O  O202  1  0.74442612  0.98943498  0.62554141  1
  O  O203  1  0.00446298  0.37708946  0.26019084  1
  O  O204  1  0.00259825  0.36313082  0.75667215  1
  O  O205  1  0.00632168  0.86131718  0.24364746  1
  O  O206  1  0.00043736  0.86272392  0.74364230  1
  O  O207  1  0.50990548  0.36888974  0.26083740  1
  O  O208  1  0.51085814  0.36611779  0.74531688  1
  O  O209  1  0.50505049  0.87219617  0.25036151  1
  O  O210  1  0.50856450  0.87380672  0.75491230  1
  O  O211  1  0.50943919  0.14286106  0.25139443  1
  O  O212  1  0.50019755  0.12926632  0.74397973  1
  O  O213  1  0.49445062  0.63060548  0.24369130  1
  O  O214  1  0.49819876  0.62839331  0.74030521  1
  O  O215  1  0.98853300  0.12678565  0.24270590  1
  O  O216  1  1.00122518  0.13907051  0.75264215  1
  O  O217  1  0.99678967  0.63490827  0.24376641  1
  O  O218  1  0.99210328  0.63229522  0.74726033  1
  O  O219  1  0.37071051  0.25473278  -0.01889799  1
  O  O220  1  0.36335626  0.25347803  0.50273077  1
  O  O221  1  0.36792682  0.74789039  0.00547332  1
  O  O222  1  0.37018621  0.76432043  0.50030319  1
  O  O223  1  0.85827731  0.25613515  0.00020594  1
  O  O224  1  0.86425941  0.24775756  0.50650217  1
  O  O225  1  0.86180615  0.74096428  0.00050915  1
  O  O226  1  0.87066410  0.76016884  0.49825880  1
  O  O227  1  0.13603043  0.25233787  0.50401408  1
  O  O228  1  0.13030757  0.24135027  0.99289144  1
  O  O229  1  0.13442314  0.75661792  0.50141938  1
  O  O230  1  0.13149042  0.74046768  0.99532711  1
  O  O231  1  0.63716025  0.24256787  0.49534122  1
  O  O232  1  0.63073522  0.24573483  0.99233926  1
  O  O233  1  0.63344206  0.74524752  0.49582278  1
  O  O234  1  0.63728899  0.74497954  0.99577984  1
  O  O235  1  0.50225590  0.25144444  0.14008358  1
  O  O236  1  0.50251490  0.24221141  0.63053335  1
  O  O237  1  0.49361625  0.74319638  0.12758900  1
  O  O238  1  0.49499580  0.73966545  0.62507965  1
  O  O239  1  1.00707592  0.23565300  0.12943149  1
  O  O240  1  0.99243359  0.25387599  0.63628162  1
  O  O241  1  1.00350057  0.73802146  0.12999446  1
  O  O242  1  0.99962352  0.74595435  0.63258710  1
  O  O243  1  -0.00947372  0.26583201  0.37366176  1
  O  O244  1  0.00576623  0.24809854  0.86790084  1
  O  O245  1  0.00309147  0.74788371  0.36277342  1
  O  O246  1  0.00954143  0.74255550  0.86390262  1
  O  O247  1  0.50808317  0.25676532  0.36904543  1
  O  O248  1  0.51361637  0.25230765  0.86471401  1
  O  O249  1  0.49894482  0.75902559  0.36614241  1
  O  O250  1  0.50187391  0.76120734  0.87366389  1
  O  O251  1  0.24987502  0.13590991  0.48769484  1
  O  O252  1  0.24275546  0.12581691  0.99116060  1
  O  O253  1  0.25550555  0.63773524  0.49162823  1
  O  O254  1  0.23872603  0.62846020  1.01110910  1
  O  O255  1  0.74906812  0.12783615  0.49053491  1
  O  O256  1  0.73727748  0.13931308  1.00946071  1
  O  O257  1  0.74163840  0.63715402  0.50493485  1
  O  O258  1  0.75062441  0.63133584  0.99213896  1
  O  O259  1  0.26296622  0.36103262  -0.01491953  1
  O  O260  1  0.24945464  0.36198914  0.49999689  1
  O  O261  1  0.24987615  0.86390945  0.00791489  1
  O  O262  1  0.25507220  0.87200423  0.50398518  1
  O  O263  1  0.75338087  0.36442502  -0.00024307  1
  O  O264  1  0.74449917  0.36555855  0.50891424  1
  O  O265  1  0.74819447  0.86017263  0.00861020  1
  O  O266  1  0.75981436  0.87276667  0.50446081  1
  O  O267  1  0.12785917  0.49335081  0.24520640  1
  O  O268  1  0.11860457  0.49840200  0.73520434  1
  O  O269  1  0.13073740  0.99153386  0.24255396  1
  O  O270  1  0.12730137  0.99963435  0.73901256  1
  O  O271  1  0.63146748  0.49526055  0.24632916  1
  O  O272  1  0.63367124  0.49062146  0.74534021  1
  O  O273  1  0.63018656  0.99367922  0.24224881  1
  O  O274  1  0.63118804  0.98846815  0.74148983  1
  O  O275  1  0.36348815  -0.01117548  0.26478929  1
  O  O276  1  0.36904783  0.00444305  0.75315594  1
  O  O277  1  0.36591562  0.50511449  0.26397664  1
  O  O278  1  0.37839787  0.51495482  0.75887099  1
  O  O279  1  0.86311190  0.00764080  0.24260944  1
  O  O280  1  0.86086573  -0.00023472  0.74501475  1
  O  O281  1  0.86737476  0.50622546  0.25659687  1
  O  O282  1  0.87138622  0.50723863  0.75105792  1
  O  O283  1  0.10687090  0.38354498  0.36875858  1
  O  O284  1  0.12283482  0.35996114  0.87650622  1
  O  O285  1  0.13410083  0.87849376  0.36113865  1
  O  O286  1  0.13438451  0.85626301  0.87117764  1
  O  O287  1  0.61966519  0.37088613  0.36839494  1
  O  O288  1  0.62509875  0.36775091  0.86110815  1
  O  O289  1  0.61705161  0.87632610  0.36145960  1
  O  O290  1  0.61859188  0.87465158  0.86519595  1
  O  O291  1  0.38702756  0.09638470  0.13329879  1
  O  O292  1  0.38236708  0.12441254  0.62999834  1
  O  O293  1  0.38539082  0.62377232  0.13237062  1
  O  O294  1  0.38131803  0.62404917  0.63481186  1
  O  O295  1  0.88450860  0.11886761  0.12564924  1
  O  O296  1  0.86851317  0.13624866  0.62383263  1
  O  O297  1  0.88538970  0.61775937  0.13918948  1
  O  O298  1  0.87418140  0.62860501  0.63643219  1
  O  O299  1  0.25905027  0.23993680  0.13964605  1
  O  O300  1  0.24996877  0.25632824  0.61531120  1
  O  O301  1  0.25268169  0.75349441  0.11795205  1
  O  O302  1  0.25125716  0.76002458  0.61599168  1
  O  O303  1  0.73998981  0.25511827  0.11453879  1
  O  O304  1  0.75684384  0.25578973  0.61808930  1
  O  O305  1  0.74647542  0.75388421  0.11226431  1
  O  O306  1  0.75146762  0.76295906  0.61329983  1
  O  O307  1  0.24933033  0.23929199  0.38373639  1
  O  O308  1  0.23892114  0.23250279  0.86188899  1
  O  O309  1  0.25298754  0.74036526  0.38299967  1
  O  O310  1  0.24821443  0.74807021  0.88842328  1
  O  O311  1  0.74781065  0.24567435  0.38099264  1
  O  O312  1  0.73966331  0.25307235  0.88079582  1
  O  O313  1  0.74719647  0.75693496  0.38639718  1
  O  O314  1  0.75181969  0.74487032  0.88435765  1
  O  O315  1  0.01525480  0.13070693  0.00689662  1
  O  O316  1  -0.00801318  0.11065155  0.49689286  1
  O  O317  1  0.00594521  0.61903625  0.00690481  1
  O  O318  1  -0.00681120  0.61201000  0.50234497  1
  O  O319  1  0.51353988  0.11676689  0.00027066  1
  O  O320  1  0.50682836  0.11937049  0.50202496  1
  O  O321  1  0.50379172  0.61855332  0.00721147  1
  O  O322  1  0.50643924  0.62543327  0.50795253  1
  O  O323  1  0.50255021  0.37490626  0.48864271  1
  O  O324  1  0.49472170  0.38425570  0.99998112  1
  O  O325  1  0.49279395  0.88075322  0.49505362  1
  O  O326  1  0.50120735  0.87891373  0.99019886  1
  O  O327  1  1.00030426  0.38432722  0.48887994  1
  O  O328  1  0.99282263  0.38192848  0.99949155  1
  O  O329  1  0.98825569  0.88045943  0.50070222  1
  O  O330  1  0.99988628  0.86582964  0.98847913  1
  O  O331  1  0.49149996  0.49235412  0.37553323  1
  O  O332  1  0.51157843  0.50013507  0.88661857  1
  O  O333  1  0.49279245  0.99677999  0.37818723  1
  O  O334  1  0.49803707  0.98909616  0.87723712  1
  O  O335  1  0.99205778  0.49434399  0.38228416  1
  O  O336  1  1.00189686  0.50176343  0.88967759  1
  O  O337  1  1.00610070  0.99879776  0.38811276  1
  O  O338  1  1.00703801  0.99407276  0.88932462  1
  O  O339  1  0.01409046  0.00949995  0.13193573  1
  O  O340  1  0.01066103  -0.00096536  0.61926701  1
  O  O341  1  0.00601984  0.50843278  0.11662413  1
  O  O342  1  0.00885385  0.49939078  0.61721825  1
  O  O343  1  0.51546727  -0.00885562  0.11567153  1
  O  O344  1  0.50695818  0.00390165  0.61795319  1
  O  O345  1  0.51183906  0.50885854  0.11789661  1
  O  O346  1  0.50263966  0.51075181  0.62294643  1
  O  O347  1  0.23914194  0.38755211  0.26436686  1
  O  O348  1  0.24433383  0.36739099  0.73915592  1
  O  O349  1  0.24222732  0.87718058  0.24167912  1
  O  O350  1  0.24941306  0.88227020  0.74045564  1
  O  O351  1  0.73945456  0.38283809  0.25311419  1
  O  O352  1  0.74671965  0.37843269  0.74325372  1
  O  O353  1  0.74205409  0.87910121  0.24720729  1
  O  O354  1  0.74553464  0.87910940  0.74090293  1
  O  O355  1  0.24903062  0.12102117  0.26435374  1
  O  O356  1  0.25630705  0.11803078  0.75358123  1
  O  O357  1  0.25327133  0.61825779  0.25955130  1
  O  O358  1  0.26277175  0.62797732  0.74426556  1
  O  O359  1  0.75293344  0.11702031  0.25200064  1
  O  O360  1  0.74256027  0.10924698  0.74681664  1
  O  O361  1  0.75877955  0.61889905  0.24792081  1
  O  O362  1  0.75617743  0.62242033  0.75382085  1
  O  O363  1  0.37261527  0.11564349  0.37827442  1
  O  O364  1  0.36874210  0.11708557  0.86790168  1
  O  O365  1  0.37205014  0.61860959  0.37072674  1
  O  O366  1  0.37918156  0.61667524  0.85927661  1
  O  O367  1  0.86256655  0.12691196  0.36222520  1
  O  O368  1  0.86996611  0.09554153  0.91394018  1
  O  O369  1  0.88040343  0.61501315  0.36101364  1
  O  O370  1  0.86569346  0.62293549  0.86375099  1
  O  O371  1  0.11778169  0.38677326  0.13394910  1
  O  O372  1  0.13255253  0.38496323  0.62688663  1
  O  O373  1  0.13298238  0.87868595  0.12953509  1
  O  O374  1  0.13531946  0.88387318  0.62684916  1
  O  O375  1  0.61897345  0.38619049  0.13568422  1
  O  O376  1  0.63657032  0.37261907  0.63515891  1
  O  O377  1  0.63080347  0.87703518  0.13483483  1
  O  O378  1  0.63137812  0.87901721  0.62886386  1
  O  O379  1  0.11831779  0.26526408  0.25278502  1
  O  O380  1  0.11333430  0.24989702  0.75708345  1
  O  O381  1  0.11263005  0.75619203  0.24514665  1
  O  O382  1  0.11766349  0.74901110  0.75702222  1
  O  O383  1  0.62001339  0.25820162  0.25448409  1
  O  O384  1  0.62113230  0.25372193  0.75348852  1
  O  O385  1  0.61890215  0.75751458  0.24985273  1
  O  O386  1  0.62635923  0.76307051  0.74970251  1
  O  O387  1  0.39265448  0.25418711  0.25935900  1
  O  O388  1  0.39258416  0.24218290  0.74781372  1
  O  O389  1  0.37746609  0.74584031  0.24316040  1
  O  O390  1  0.37704937  0.73800043  0.74763517  1
  O  O391  1  0.87026245  0.23725937  0.24637596  1
  O  O392  1  0.88634793  0.25026849  0.74475212  1
  O  O393  1  0.88823944  0.74239661  0.25401340  1
  O  O394  1  0.88166609  0.74381001  0.74847802  1
  O  O395  1  0.37620889  0.49868673  0.49031730  1
  O  O396  1  0.38583595  0.51316750  0.97682843  1
  O  O397  1  0.37774673  0.99180056  0.49293278  1
  O  O398  1  0.38195287  0.99383273  0.98834384  1
  O  O399  1  0.87696327  0.50357374  0.48737981  1
  O  O400  1  0.88201752  0.49524889  1.00010106  1
  O  O401  1  0.88732476  0.98871353  0.50200449  1
  O  O402  1  0.88786935  0.97418673  1.02349266  1
  O  O403  1  0.13302795  0.00741814  0.01075559  1
  O  O404  1  0.11089271  -0.00295728  0.51142523  1
  O  O405  1  0.12022273  0.50312452  0.00789463  1
  O  O406  1  0.11511480  0.49709923  0.51235785  1
  O  O407  1  0.62691094  0.00551399  0.00446093  1
  O  O408  1  0.62121028  0.00352059  0.50276577  1
  O  O409  1  0.62161472  0.50051581  0.00740612  1
  O  O410  1  0.62450910  0.50957952  0.50164617  1
  O  O411  1  0.36506575  0.42438625  0.12103688  1
  O  O412  1  0.36448604  0.37617807  0.62398813  1
  O  O413  1  0.36167183  0.87018208  0.12358307  1
  O  O414  1  0.36332275  0.87783308  0.61609093  1
  O  O415  1  0.87743928  0.38004274  0.11315831  1
  O  O416  1  0.86566123  0.36648364  0.62863393  1
  O  O417  1  0.86077665  0.86582736  0.14052228  1
  O  O418  1  0.86787560  0.87341570  0.61506674  1
  O  O419  1  0.13318532  0.12352815  0.37213042  1
  O  O420  1  0.13044382  0.12902169  0.88164562  1
  O  O421  1  0.13440937  0.61980154  0.37322660  1
  O  O422  1  0.12574434  0.63379551  0.88604343  1
  O  O423  1  0.63673360  0.13101361  0.37777074  1
  O  O424  1  0.62306050  0.13235176  0.88342595  1
  O  O425  1  0.61828909  0.62781224  0.38823377  1
  O  O426  1  0.63965380  0.62869186  0.87169195  1
