# generated using pymatgen
data_V85Zn86O256
_symmetry_space_group_name_H-M   'P 1'
_cell_length_a   16.94372038
_cell_length_b   16.95641137
_cell_length_c   16.95049677
_cell_angle_alpha   90.10071203
_cell_angle_beta   90.00589719
_cell_angle_gamma   89.95937084
_symmetry_Int_Tables_number   1
_chemical_formula_structural   V85Zn86O256
_chemical_formula_sum   'V85 Zn86 O256'
_cell_volume   4869.94849493
_cell_formula_units_Z   1
loop_
 _symmetry_equiv_pos_site_id
 _symmetry_equiv_pos_as_xyz
  1  'x, y, z'
loop_
 _atom_site_type_symbol
 _atom_site_label
 _atom_site_symmetry_multiplicity
 _atom_site_fract_x
 _atom_site_fract_y
 _atom_site_fract_z
 _atom_site_occupancy
  V  V0  1  0.75103611  0.24086017  0.49394394  1
  V  V1  1  0.87209817  0.24852465  0.12495455  1
  V  V2  1  0.50180100  0.62480511  0.62079524  1
  V  V3  1  0.87499620  0.37451512  0.00093575  1
  V  V4  1  0.37953267  0.37863560  0.50252533  1
  V  V5  1  0.25545617  0.26099512  0.01000504  1
  V  V6  1  0.37201608  0.87419987  0.49488656  1
  V  V7  1  0.37475335  0.75086045  0.62194053  1
  V  V8  1  0.37560686  0.62678097  0.24459921  1
  V  V9  1  0.74918988  0.87793846  0.63403159  1
  V  V10  1  0.10996900  0.49749179  0.62089381  1
  V  V11  1  0.00201173  0.00103330  0.50083906  1
  V  V12  1  0.25166376  0.49847585  0.24786931  1
  V  V13  1  0.24951368  0.49895522  0.73949786  1
  V  V14  1  0.11256609  0.62569656  0.50631274  1
  V  V15  1  0.74789154  0.49655961  0.74653456  1
  V  V16  1  0.13177851  0.87518797  0.24647287  1
  V  V17  1  0.73784802  0.61796006  0.88537826  1
  V  V18  1  0.50290238  0.74862662  0.75712920  1
  V  V19  1  0.26565771  -0.00229447  0.75849494  1
  V  V20  1  0.87509498  0.38209007  0.49959707  1
  V  V21  1  0.62929065  0.50287539  0.11481294  1
  V  V22  1  0.62514534  0.00361596  0.62495635  1
  V  V23  1  0.24811227  0.62482862  0.87662182  1
  V  V24  1  0.75029582  0.74637293  0.50060771  1
  V  V25  1  0.87468392  0.87563001  0.50278101  1
  V  V26  1  0.12885122  -0.00223623  0.12570206  1
  V  V27  1  0.62788284  0.24041695  0.36398396  1
  V  V28  1  -0.00107437  0.38668522  0.37841628  1
  V  V29  1  0.62499317  0.62024599  0.49436967  1
  V  V30  1  0.49888638  0.88107102  0.37191140  1
  V  V31  1  0.87583026  0.24957745  0.62242735  1
  V  V32  1  -0.00302222  0.88191062  0.88214428  1
  V  V33  1  0.87521709  0.74994166  0.62924091  1
  V  V34  1  0.87548526  0.49948246  0.87410780  1
  V  V35  1  0.74893134  0.50573519  0.25915135  1
  V  V36  1  0.87603473  0.62478141  0.74745271  1
  V  V37  1  0.12314092  0.62432243  -0.00047981  1
  V  V38  1  0.12817831  0.37538259  0.25073324  1
  V  V39  1  0.26028027  -0.00109903  0.25266477  1
  V  V40  1  0.37416994  0.62652522  0.75064092  1
  V  V41  1  -0.00233503  0.74850807  0.74839170  1
  V  V42  1  0.50164610  0.75106744  0.24949558  1
  V  V43  1  0.38765482  0.50209972  0.37828172  1
  V  V44  1  0.26256291  0.11918058  0.87987237  1
  V  V45  1  0.86668018  0.12655184  0.25573265  1
  V  V46  1  0.25219730  0.62585641  0.38533036  1
  V  V47  1  0.12793559  0.12762756  0.50025477  1
  V  V48  1  0.12467164  0.49624515  0.12580947  1
  V  V49  1  0.25011328  0.87151604  0.62183257  1
  V  V50  1  0.49398243  0.00319064  -0.00380515  1
  V  V51  1  0.12436977  0.87883945  0.75075358  1
  V  V52  1  0.86383676  0.00477922  0.87928202  1
  V  V53  1  0.63019486  -0.00250212  0.12103286  1
  V  V54  1  0.48410925  0.87872933  0.87382522  1
  V  V55  1  0.12274623  0.75054728  0.87514054  1
  V  V56  1  -0.00519684  0.62525014  0.12433636  1
  V  V57  1  0.37447063  0.49548391  0.88404638  1
  V  V58  1  0.00550057  0.12419143  0.62576553  1
  V  V59  1  0.26162491  0.12199432  0.37732489  1
  V  V60  1  0.86697874  0.76617747  0.11103376  1
  V  V61  1  0.50047618  0.36106776  0.87646711  1
  V  V62  1  0.49772391  0.13389101  0.12912176  1
  V  V63  1  0.74579074  0.24415668  -0.01022512  1
  V  V64  1  0.63073089  0.74831360  0.37347637  1
  V  V65  1  0.86593880  0.00342124  0.37705967  1
  V  V66  1  0.49657385  0.00328011  0.49737358  1
  V  V67  1  0.13042952  0.75086852  0.38224143  1
  V  V68  1  0.62315904  0.49868396  0.62057639  1
  V  V69  1  0.00595269  0.24512704  0.74965753  1
  V  V70  1  0.50430183  0.36850805  0.37209564  1
  V  V71  1  -0.00156006  0.75043309  0.24964320  1
  V  V72  1  0.25436392  0.25758437  0.50113494  1
  V  V73  1  0.86199446  0.12013917  0.75093266  1
  V  V74  1  -0.00071702  0.25014832  0.25220167  1
  V  V75  1  0.63660195  0.87411852  0.24438187  1
  V  V76  1  0.00196392  0.87695388  0.37692041  1
  V  V77  1  0.36782876  0.87930321  0.00942721  1
  V  V78  1  0.00084120  0.37253441  0.87147641  1
  V  V79  1  0.24768983  0.75183323  0.01011216  1
  V  V80  1  0.12384752  0.12644658  0.00159236  1
  V  V81  1  0.48561694  0.13490446  0.63408017  1
  V  V82  1  0.50518137  0.62760762  0.11544304  1
  V  V83  1  0.62153809  0.87940632  0.74944599  1
  V  V84  1  0.65689402  0.77748099  0.89773610  1
  Zn  Zn85  1  0.12688957  0.24864814  0.87704439  1
  Zn  Zn86  1  0.62471466  0.37380371  0.24643149  1
  Zn  Zn87  1  0.62735547  0.12257248  0.49542117  1
  Zn  Zn88  1  0.37138027  0.75335094  0.12894141  1
  Zn  Zn89  1  0.12578300  0.25108550  0.37448763  1
  Zn  Zn90  1  0.62528616  0.12386855  -0.00613056  1
  Zn  Zn91  1  0.00036573  0.12269546  0.12767535  1
  Zn  Zn92  1  0.74541889  0.37009756  0.62318385  1
  Zn  Zn93  1  0.74784934  0.37668430  0.12625027  1
  Zn  Zn94  1  0.61328603  0.37147584  0.74537057  1
  Zn  Zn95  1  0.38182418  0.13045036  0.25478598  1
  Zn  Zn96  1  0.62481930  0.23197660  0.85317867  1
  Zn  Zn97  1  -0.00008310  0.49885184  -0.00054304  1
  Zn  Zn98  1  0.86819143  0.62983244  0.25483478  1
  Zn  Zn99  1  0.13000459  0.00225424  0.62676915  1
  Zn  Zn100  1  0.49901566  0.49840349  -0.00009717  1
  Zn  Zn101  1  0.31590292  0.32102901  0.66493280  1
  Zn  Zn102  1  0.87286993  0.51348313  0.38227848  1
  Zn  Zn103  1  0.37934902  0.26959619  0.13522201  1
  Zn  Zn104  1  0.13209954  0.37042575  0.74257680  1
  Zn  Zn105  1  -0.00450090  0.00054005  0.00422627  1
  Zn  Zn106  1  0.75300351  -0.00113229  0.24409029  1
  Zn  Zn107  1  0.19097871  0.18504234  0.18963330  1
  Zn  Zn108  1  0.21407791  0.19498649  0.70202317  1
  Zn  Zn109  1  0.18477731  0.68248178  0.19068180  1
  Zn  Zn110  1  0.18575152  0.68812967  0.68526209  1
  Zn  Zn111  1  0.68764707  0.18492101  0.18087729  1
  Zn  Zn112  1  0.68385824  0.18781301  0.67927918  1
  Zn  Zn113  1  0.69007744  0.68694419  0.18192815  1
  Zn  Zn114  1  0.68742666  0.68796258  0.69368795  1
  Zn  Zn115  1  0.31471598  0.31142481  0.31444712  1
  Zn  Zn116  1  0.31257213  0.30949892  0.82947712  1
  Zn  Zn117  1  0.31190979  0.81250942  0.31419132  1
  Zn  Zn118  1  0.31036112  0.81014333  0.81298019  1
  Zn  Zn119  1  0.80896541  0.31938041  0.31288756  1
  Zn  Zn120  1  0.81201000  0.30969147  0.80782368  1
  Zn  Zn121  1  0.81524685  0.81071252  0.31377767  1
  Zn  Zn122  1  0.80847699  0.81884522  0.82826044  1
  Zn  Zn123  1  0.18892417  0.44093080  0.43802116  1
  Zn  Zn124  1  0.18247214  0.43995225  0.93126136  1
  Zn  Zn125  1  0.18975190  0.94011203  0.43723758  1
  Zn  Zn126  1  0.18659572  0.93852823  0.94001198  1
  Zn  Zn127  1  0.68837999  0.43172234  0.43789790  1
  Zn  Zn128  1  0.68477068  0.43071563  0.93652892  1
  Zn  Zn129  1  0.68613992  0.93372115  0.44015313  1
  Zn  Zn130  1  0.68142013  0.94841181  0.92915355  1
  Zn  Zn131  1  0.31196349  0.06324994  0.06638625  1
  Zn  Zn132  1  0.31198100  0.05685030  0.56301754  1
  Zn  Zn133  1  0.30994658  0.43817749  0.06331942  1
  Zn  Zn134  1  0.31292839  0.56156753  0.56113879  1
  Zn  Zn135  1  0.81311265  0.06418723  0.06327111  1
  Zn  Zn136  1  0.81274339  0.06229287  0.56624274  1
  Zn  Zn137  1  0.81417759  0.56291329  0.06554884  1
  Zn  Zn138  1  0.81109039  0.56456997  0.56437353  1
  Zn  Zn139  1  0.44565245  0.44191237  0.19164466  1
  Zn  Zn140  1  0.44190101  0.44500417  0.69387017  1
  Zn  Zn141  1  0.44237831  0.94037336  0.18378377  1
  Zn  Zn142  1  0.43877633  0.94055621  0.68220089  1
  Zn  Zn143  1  0.93511455  0.43871738  0.19057893  1
  Zn  Zn144  1  0.93709771  0.43457413  0.68657923  1
  Zn  Zn145  1  0.94116910  0.93810535  0.18917076  1
  Zn  Zn146  1  0.93910053  0.93965294  0.69105107  1
  Zn  Zn147  1  0.06313198  0.06321899  0.31449241  1
  Zn  Zn148  1  0.06629336  0.06253756  0.81617123  1
  Zn  Zn149  1  0.06155536  0.56635724  0.31394764  1
  Zn  Zn150  1  0.06113609  0.56097762  0.80740054  1
  Zn  Zn151  1  0.56529785  0.06035409  0.30866346  1
  Zn  Zn152  1  0.55595596  0.06443489  0.81243152  1
  Zn  Zn153  1  0.56645739  0.56317328  0.30758797  1
  Zn  Zn154  1  0.56196095  0.55861848  0.81285160  1
  Zn  Zn155  1  0.43979786  0.19155662  0.44106098  1
  Zn  Zn156  1  0.43545941  0.18877181  0.94526849  1
  Zn  Zn157  1  0.44112873  0.69134165  0.43626506  1
  Zn  Zn158  1  0.43240944  0.68978779  0.93851650  1
  Zn  Zn159  1  0.93915214  0.19035345  0.43584683  1
  Zn  Zn160  1  0.93801288  0.18463427  0.93694811  1
  Zn  Zn161  1  0.93753060  0.68821226  0.43628667  1
  Zn  Zn162  1  0.93376439  0.68697106  0.93527687  1
  Zn  Zn163  1  0.06183815  0.31091184  0.06413014  1
  Zn  Zn164  1  0.06400087  0.31343614  0.56028435  1
  Zn  Zn165  1  0.06032804  0.81362213  0.06465328  1
  Zn  Zn166  1  0.06334495  0.81068128  0.56416040  1
  Zn  Zn167  1  0.56090061  0.31868509  0.05855556  1
  Zn  Zn168  1  0.56041640  0.31028598  0.55512305  1
  Zn  Zn169  1  0.55876439  0.81537493  0.06190147  1
  Zn  Zn170  1  0.56086072  0.81192045  0.56112490  1
  O  O171  1  0.12398661  0.11802479  0.11789852  1
  O  O172  1  0.12379650  0.12381875  0.61294602  1
  O  O173  1  0.11563957  0.61555866  0.12183690  1
  O  O174  1  0.12912454  0.61732091  0.61567178  1
  O  O175  1  0.61507098  0.11762857  0.11907244  1
  O  O176  1  0.61969976  0.11211086  0.61934914  1
  O  O177  1  0.61530559  0.61911442  0.12790874  1
  O  O178  1  0.62025803  0.61968413  0.61955030  1
  O  O179  1  0.38263065  0.38441139  0.37990876  1
  O  O180  1  0.38460625  0.38401862  0.87455920  1
  O  O181  1  0.38630678  0.86846792  0.38226954  1
  O  O182  1  0.38004374  0.86984824  0.88376028  1
  O  O183  1  0.88213823  0.37905990  0.38245349  1
  O  O184  1  0.88395442  0.37806292  0.87909215  1
  O  O185  1  0.88194586  0.88068121  0.38263106  1
  O  O186  1  0.88538015  0.89598836  0.86295671  1
  O  O187  1  0.24668323  0.00951104  0.36607452  1
  O  O188  1  0.25008586  0.00888307  0.87415943  1
  O  O189  1  0.25537389  0.50961967  0.36528123  1
  O  O190  1  0.25167710  0.50842392  0.86575775  1
  O  O191  1  0.76341431  -0.00648901  0.37656382  1
  O  O192  1  0.76525379  0.00444111  0.87253668  1
  O  O193  1  0.74857298  0.49715298  0.36236627  1
  O  O194  1  0.75357282  0.50346999  0.86756226  1
  O  O195  1  0.24057340  0.50045596  0.13957009  1
  O  O196  1  0.24427897  0.50866042  0.63666261  1
  O  O197  1  0.23735625  1.00526322  0.13684410  1
  O  O198  1  0.25011993  0.98796085  0.63641118  1
  O  O199  1  0.74381179  0.49963494  0.13086278  1
  O  O200  1  0.74003425  0.49842953  0.63017193  1
  O  O201  1  0.73595358  1.00284638  0.12176758  1
  O  O202  1  0.73925882  0.98923924  0.61898916  1
  O  O203  1  0.00746997  0.37034495  0.25647493  1
  O  O204  1  -0.00199880  0.36095925  0.75542820  1
  O  O205  1  0.01153959  0.86967117  0.25758925  1
  O  O206  1  0.00766066  0.87072126  0.75798569  1
  O  O207  1  0.50597627  0.38090674  0.26730736  1
  O  O208  1  0.49754365  0.38163664  0.76882005  1
  O  O209  1  0.50664753  0.87099411  0.25643244  1
  O  O210  1  0.50092543  0.86824341  0.75327861  1
  O  O211  1  0.50023035  0.11737096  0.23340148  1
  O  O212  1  0.49680145  0.12002352  0.73294342  1
  O  O213  1  0.49390590  0.63313052  0.24680246  1
  O  O214  1  0.49666288  0.63325806  0.74518781  1
  O  O215  1  0.99329878  0.13537951  0.25085806  1
  O  O216  1  1.00196418  0.13354934  0.74565509  1
  O  O217  1  1.00383822  0.63611763  0.24115513  1
  O  O218  1  0.98944914  0.63672344  0.75663827  1
  O  O219  1  0.35810743  0.24938520  0.00852496  1
  O  O220  1  0.36750722  0.26436436  0.49575500  1
  O  O221  1  0.36314323  0.75727491  0.00338375  1
  O  O222  1  0.38314934  0.76326612  0.50733505  1
  O  O223  1  0.87014182  0.25388473  0.00669301  1
  O  O224  1  0.87011196  0.25638272  0.50197574  1
  O  O225  1  0.88021838  0.75168876  0.01181590  1
  O  O226  1  0.86863561  0.75605248  0.50744701  1
  O  O227  1  0.12902149  0.24292450  0.49433863  1
  O  O228  1  0.13149504  0.24251758  1.00218903  1
  O  O229  1  0.12385708  0.74338977  0.49162685  1
  O  O230  1  0.12863911  0.74552059  0.99519513  1
  O  O231  1  0.63560854  0.24606192  0.49018962  1
  O  O232  1  0.64194908  0.25350290  1.00085563  1
  O  O233  1  0.63141836  0.74512583  0.49361537  1
  O  O234  1  0.61735311  0.75194823  0.98546422  1
  O  O235  1  0.50127966  0.23663190  0.11728429  1
  O  O236  1  0.50372777  0.23314203  0.61692337  1
  O  O237  1  0.49886365  0.74402306  0.13261728  1
  O  O238  1  0.49916939  0.74279538  0.63617972  1
  O  O239  1  0.98942375  0.25184770  0.13700247  1
  O  O240  1  0.99656251  0.24389777  0.63101391  1
  O  O241  1  0.99566258  0.74430615  0.13240437  1
  O  O242  1  0.99206983  0.75874868  0.64045783  1
  O  O243  1  0.00039975  0.25971455  0.36261316  1
  O  O244  1  0.00123531  0.25506387  0.86692948  1
  O  O245  1  0.01061670  0.75675807  0.36803574  1
  O  O246  1  0.00225238  0.75820501  0.86629386  1
  O  O247  1  0.51625093  0.25499330  0.37868405  1
  O  O248  1  0.49817970  0.25832060  0.87803254  1
  O  O249  1  0.51219579  0.75998330  0.37027756  1
  O  O250  1  0.49410435  0.75636731  0.86444100  1
  O  O251  1  0.24551624  0.12764015  0.49490181  1
  O  O252  1  0.24391406  0.12715239  0.99518809  1
  O  O253  1  0.24493725  0.62332502  0.48779341  1
  O  O254  1  0.24069074  0.63477862  0.98495936  1
  O  O255  1  0.75254189  0.13641689  0.50147320  1
  O  O256  1  0.75062217  0.14188243  1.00405547  1
  O  O257  1  0.74146538  0.63959871  0.50699725  1
  O  O258  1  0.75554758  0.61895471  0.98327358  1
  O  O259  1  0.24333446  0.36577775  -0.00285179  1
  O  O260  1  0.26179245  0.36868768  0.48968521  1
  O  O261  1  0.25591879  0.86432693  -0.00542875  1
  O  O262  1  0.25857396  0.87985339  0.50910862  1
  O  O263  1  0.76254355  0.36653429  0.00008518  1
  O  O264  1  0.75905369  0.36309147  0.50094850  1
  O  O265  1  0.73461428  0.84728272  -0.07338744  1
  O  O266  1  0.75289616  0.86432645  0.51128125  1
  O  O267  1  0.13091398  0.49663089  0.24564514  1
  O  O268  1  0.13066538  0.50067138  0.73687703  1
  O  O269  1  0.13009181  0.99216613  0.24629176  1
  O  O270  1  0.12837552  0.98698577  0.75011912  1
  O  O271  1  0.63575884  0.50007896  0.24111816  1
  O  O272  1  0.63188008  0.49674553  0.73948536  1
  O  O273  1  0.62925288  0.99093834  0.24145177  1
  O  O274  1  0.61510476  0.98677763  0.73975986  1
  O  O275  1  0.36280721  -0.00000183  0.24465159  1
  O  O276  1  0.36472233  -0.00888625  0.75292091  1
  O  O277  1  0.36822907  0.50852212  0.25883306  1
  O  O278  1  0.36572623  0.51033449  0.75687351  1
  O  O279  1  0.87556509  0.00741668  0.25869980  1
  O  O280  1  0.88074748  0.01516436  0.75584751  1
  O  O281  1  0.86039019  0.50254472  0.24960735  1
  O  O282  1  0.87057272  0.50724482  0.75236482  1
  O  O283  1  0.11642786  0.37624613  0.36866731  1
  O  O284  1  0.11038327  0.37429654  0.87017996  1
  O  O285  1  0.12259882  0.86744724  0.37172304  1
  O  O286  1  0.11908943  0.87051642  0.86765264  1
  O  O287  1  0.61909634  0.36404092  0.37506313  1
  O  O288  1  0.60994794  0.37347681  0.87123531  1
  O  O289  1  0.61870900  0.86830250  0.36795285  1
  O  O290  1  0.60320719  0.87650297  0.86450903  1
  O  O291  1  0.39154588  0.12273816  0.12597342  1
  O  O292  1  0.38661527  0.12164785  0.61809114  1
  O  O293  1  0.38315592  0.62759560  0.14150133  1
  O  O294  1  0.38273827  0.63043225  0.62770308  1
  O  O295  1  0.87902761  0.13310606  0.13346485  1
  O  O296  1  0.88441212  0.12779359  0.63445695  1
  O  O297  1  0.88693003  0.63139563  0.12836346  1
  O  O298  1  0.86896345  0.63281359  0.63934763  1
  O  O299  1  0.24585829  0.24828682  0.11178267  1
  O  O300  1  0.23798832  0.25380129  0.60365304  1
  O  O301  1  0.24723300  0.74170679  0.11303828  1
  O  O302  1  0.25664260  0.76397880  0.63226899  1
  O  O303  1  0.76109868  0.25394348  0.11867405  1
  O  O304  1  0.75945695  0.25080391  0.61295764  1
  O  O305  1  0.76856360  0.74912550  0.12823242  1
  O  O306  1  0.75371491  0.75733725  0.62188363  1
  O  O307  1  0.24582785  0.23974151  0.38481080  1
  O  O308  1  0.24474531  0.23769575  0.89437720  1
  O  O309  1  0.23814769  0.74072395  0.36855523  1
  O  O310  1  0.24089632  0.74320304  0.87909948  1
  O  O311  1  0.73792303  0.25376820  0.37962497  1
  O  O312  1  0.75323289  0.25290647  0.88787641  1
  O  O313  1  0.73911219  0.75708017  0.38481494  1
  O  O314  1  0.74831010  0.72207218  0.85702901  1
  O  O315  1  0.00910915  0.12486146  0.00534380  1
  O  O316  1  0.00785011  0.12226996  0.50447790  1
  O  O317  1  0.00503806  0.62382119  0.00680169  1
  O  O318  1  0.01326061  0.62973353  0.50035513  1
  O  O319  1  0.49952469  0.11691555  0.00882213  1
  O  O320  1  0.50046926  0.11129211  0.50095317  1
  O  O321  1  0.49052396  0.62513187  0.01366712  1
  O  O322  1  0.51208464  0.63420559  0.50972943  1
  O  O323  1  0.49131909  0.37470369  0.48605659  1
  O  O324  1  0.50054461  0.38095129  0.98288178  1
  O  O325  1  0.49627724  0.88259620  0.49226556  1
  O  O326  1  0.48792002  0.88034144  0.99186574  1
  O  O327  1  0.98983570  0.36813176  0.48848138  1
  O  O328  1  0.99027957  0.37226539  0.99153228  1
  O  O329  1  0.99466364  0.87977320  0.49748767  1
  O  O330  1  1.00633508  0.87723664  0.98521133  1
  O  O331  1  0.49114309  0.49874342  0.37204598  1
  O  O332  1  0.48676095  0.50385651  0.87894867  1
  O  O333  1  0.50657619  0.98849160  0.38019245  1
  O  O334  1  0.49682973  0.99240780  0.88724470  1
  O  O335  1  0.99699153  0.48985434  0.36967840  1
  O  O336  1  0.99344198  0.49094017  0.87382824  1
  O  O337  1  0.99330960  0.99407880  0.38150855  1
  O  O338  1  0.99491043  0.99482526  0.87732804  1
  O  O339  1  0.01291281  0.00187331  0.12540047  1
  O  O340  1  0.00343467  0.00677909  0.61926829  1
  O  O341  1  0.00496952  0.50912799  0.12570120  1
  O  O342  1  0.01138487  0.50406854  0.63061661  1
  O  O343  1  0.50951715  0.00521060  0.11406842  1
  O  O344  1  0.50741913  0.00364136  0.61438366  1
  O  O345  1  0.51085718  0.51171152  0.12397527  1
  O  O346  1  0.50810387  0.51700281  0.62979485  1
  O  O347  1  0.23553837  0.38408481  0.26113755  1
  O  O348  1  0.24955089  0.38945281  0.75234093  1
  O  O349  1  0.23939009  0.88213477  0.25746868  1
  O  O350  1  0.24200716  0.87958223  0.74777324  1
  O  O351  1  0.74702464  0.38847580  0.24553233  1
  O  O352  1  0.75717373  0.38905969  0.74498239  1
  O  O353  1  0.73941713  0.87589191  0.25424891  1
  O  O354  1  0.73845303  0.87007228  0.74122438  1
  O  O355  1  0.24753231  0.11507704  0.26182759  1
  O  O356  1  0.23680128  0.10719148  0.77221778  1
  O  O357  1  0.25690488  0.61887091  0.25835874  1
  O  O358  1  0.25243571  0.62331172  0.75946884  1
  O  O359  1  0.76353189  0.12264215  0.24577314  1
  O  O360  1  0.76455372  0.12470732  0.74060500  1
  O  O361  1  0.74965398  0.61088882  0.24605963  1
  O  O362  1  0.75521321  0.61061641  0.75290713  1
  O  O363  1  0.36519283  0.12596823  0.37760846  1
  O  O364  1  0.36106147  0.12591590  0.88139668  1
  O  O365  1  0.37086870  0.62150614  0.37068475  1
  O  O366  1  0.36457642  0.62205440  0.86930208  1
  O  O367  1  0.88136028  0.11531545  0.36816191  1
  O  O368  1  0.88021661  0.11678128  0.86090664  1
  O  O369  1  0.87851991  0.62569718  0.36864851  1
  O  O370  1  0.86851473  0.61701673  0.86510782  1
  O  O371  1  0.11574200  0.38862788  0.13421492  1
  O  O372  1  0.12086171  0.39175268  0.62395704  1
  O  O373  1  0.12243296  0.88154247  0.13641861  1
  O  O374  1  0.13300492  0.87515475  0.63269542  1
  O  O375  1  0.62488410  0.38635753  0.12701644  1
  O  O376  1  0.62089920  0.38962678  0.61848609  1
  O  O377  1  0.61851001  0.88229015  0.13405643  1
  O  O378  1  0.62872005  0.87986173  0.63048538  1
  O  O379  1  0.11802486  0.25865282  0.24978005  1
  O  O380  1  0.11927336  0.25146259  0.75246423  1
  O  O381  1  0.11807485  0.75623265  0.25564893  1
  O  O382  1  0.11756503  0.75857921  0.75382244  1
  O  O383  1  0.63284720  0.25058917  0.26071818  1
  O  O384  1  0.64197294  0.26299875  0.74698100  1
  O  O385  1  0.62373685  0.75515310  0.25609692  1
  O  O386  1  0.61914980  0.76113908  0.76033235  1
  O  O387  1  0.36394787  0.24222085  0.24454776  1
  O  O388  1  0.31659758  0.24194875  0.74127598  1
  O  O389  1  0.38050779  0.74378359  0.25089716  1
  O  O390  1  0.38239814  0.74530878  0.74349846  1
  O  O391  1  0.87878731  0.24623440  0.24583701  1
  O  O392  1  0.88286442  0.23791458  0.74488522  1
  O  O393  1  0.88921817  0.75306445  0.24569499  1
  O  O394  1  0.87973536  0.74539477  0.75117436  1
  O  O395  1  0.36848822  0.49441033  0.48686997  1
  O  O396  1  0.36648771  0.50476938  0.98560631  1
  O  O397  1  0.38384090  0.98489174  0.50286675  1
  O  O398  1  0.38024247  0.99115522  1.00620932  1
  O  O399  1  0.86726388  0.48702067  0.50122001  1
  O  O400  1  0.87758068  0.49001153  0.99493321  1
  O  O401  1  0.88069363  0.99554865  0.49567623  1
  O  O402  1  0.87719824  1.00905599  0.98456784  1
  O  O403  1  0.12454994  0.00637933  0.01046348  1
  O  O404  1  0.11928831  0.00738016  0.50234786  1
  O  O405  1  0.12315475  0.50536970  0.00868730  1
  O  O406  1  0.12889377  0.50898872  0.51325836  1
  O  O407  1  0.61483841  -0.00276183  0.00552459  1
  O  O408  1  0.61690032  -0.00108493  0.50653715  1
  O  O409  1  0.62654662  0.49875045  0.01112087  1
  O  O410  1  0.63347852  0.51293599  0.50451418  1
  O  O411  1  0.38147509  0.38218596  0.12516196  1
  O  O412  1  0.38257695  0.39031385  0.61037690  1
  O  O413  1  0.37820359  0.87133651  0.11380098  1
  O  O414  1  0.36946501  0.86988978  0.61786814  1
  O  O415  1  0.87672909  0.36721708  0.11611706  1
  O  O416  1  0.87631154  0.36624870  0.61642147  1
  O  O417  1  0.88073148  0.86550217  0.12523350  1
  O  O418  1  0.86631168  0.87256259  0.62444161  1
  O  O419  1  0.13062790  0.12536899  0.38768219  1
  O  O420  1  0.13021497  0.12420961  0.89099773  1
  O  O421  1  0.13148275  0.63112832  0.38274674  1
  O  O422  1  0.12840654  0.62919543  0.87746390  1
  O  O423  1  0.62306112  0.13623770  0.37475953  1
  O  O424  1  0.62055804  0.12317062  0.88035554  1
  O  O425  1  0.61921809  0.63507037  0.38378633  1
  O  O426  1  0.63642287  0.62256901  0.87400958  1
