# generated using pymatgen
data_V85Zn86O256
_symmetry_space_group_name_H-M   'P 1'
_cell_length_a   16.96023502
_cell_length_b   16.95074676
_cell_length_c   16.97016613
_cell_angle_alpha   89.93949311
_cell_angle_beta   90.03664389
_cell_angle_gamma   90.04466992
_symmetry_Int_Tables_number   1
_chemical_formula_structural   V85Zn86O256
_chemical_formula_sum   'V85 Zn86 O256'
_cell_volume   4878.72493213
_cell_formula_units_Z   1
loop_
 _symmetry_equiv_pos_site_id
 _symmetry_equiv_pos_as_xyz
  1  'x, y, z'
loop_
 _atom_site_type_symbol
 _atom_site_label
 _atom_site_symmetry_multiplicity
 _atom_site_fract_x
 _atom_site_fract_y
 _atom_site_fract_z
 _atom_site_occupancy
  V  V0  1  0.86375076  0.61864269  0.25780034  1
  V  V1  1  0.87182439  -0.00064022  0.86562754  1
  V  V2  1  0.25236002  0.50047653  0.74208360  1
  V  V3  1  0.37469671  0.62378151  0.24638277  1
  V  V4  1  0.87599037  0.75008960  0.12904468  1
  V  V5  1  0.75743840  0.12227190  0.37564978  1
  V  V6  1  -0.00261572  0.63965855  0.62244768  1
  V  V7  1  0.24881707  0.49954223  0.25234371  1
  V  V8  1  0.49871655  0.25261164  0.75142042  1
  V  V9  1  0.49817122  0.87569786  0.87475785  1
  V  V10  1  0.49641823  0.75499741  0.74495852  1
  V  V11  1  0.44584111  0.07657844  0.17898284  1
  V  V12  1  0.76207439  0.25395703  0.49938211  1
  V  V13  1  0.62181430  0.87341747  0.25533056  1
  V  V14  1  0.12546908  0.64153463  0.49349017  1
  V  V15  1  -0.00012168  0.11217688  0.12442789  1
  V  V16  1  0.12897125  0.62493412  0.00224793  1
  V  V17  1  0.01414642  0.75193593  0.25564822  1
  V  V18  1  0.49132601  -0.00062711  0.49672061  1
  V  V19  1  0.24830376  0.63505866  0.37917624  1
  V  V20  1  0.49738929  0.62526244  0.12308734  1
  V  V21  1  0.00126022  0.11305915  0.62969478  1
  V  V22  1  -0.00216913  0.50053062  -0.00277588  1
  V  V23  1  0.23595786  0.63096728  0.86175338  1
  V  V24  1  -0.00885507  0.49418034  0.49584587  1
  V  V25  1  0.50264614  0.74755555  0.25240099  1
  V  V26  1  0.63856749  0.87964413  0.74907675  1
  V  V27  1  0.37071696  -0.00721911  0.87340348  1
  V  V28  1  0.26354501  0.11729680  0.36691959  1
  V  V29  1  0.24479046  0.86102056  0.61964880  1
  V  V30  1  0.37488617  0.25019744  0.62642317  1
  V  V31  1  0.63049924  0.38251900  0.25065251  1
  V  V32  1  0.37830443  0.62706509  0.74491580  1
  V  V33  1  0.24952649  0.24669562  0.49948023  1
  V  V34  1  0.49970637  0.49999117  -0.00143743  1
  V  V35  1  -0.00152417  0.62338918  0.12701637  1
  V  V36  1  0.75015052  0.75168159  -0.00066834  1
  V  V37  1  0.37222981  0.76061205  0.11632594  1
  V  V38  1  0.63874715  -0.00076251  0.63082280  1
  V  V39  1  0.24971951  0.37502474  0.62325711  1
  V  V40  1  0.68259706  0.69417525  0.43438741  1
  V  V41  1  0.12568404  0.11786590  0.50611053  1
  V  V42  1  0.11810773  0.12110969  -0.00006695  1
  V  V43  1  0.37398376  0.37514860  -0.00143825  1
  V  V44  1  0.62457687  0.62660606  -0.00115079  1
  V  V45  1  0.74692517  0.87943551  0.12375069  1
  V  V46  1  0.76089326  0.37794169  0.62479059  1
  V  V47  1  0.37221197  0.12175711  0.75276494  1
  V  V48  1  0.00108167  0.87211794  0.85503731  1
  V  V49  1  0.13823970  -0.01173457  0.12347677  1
  V  V50  1  0.25237461  0.76235705  -0.00318287  1
  V  V51  1  0.23308985  -0.00755136  0.74124621  1
  V  V52  1  0.12357646  0.50160319  0.61847212  1
  V  V53  1  0.49518457  0.00117206  -0.00391864  1
  V  V54  1  0.50140035  0.12296176  0.62810628  1
  V  V55  1  0.24759374  0.25029048  -0.00022836  1
  V  V56  1  0.74935190  0.24802567  -0.00228922  1
  V  V57  1  0.49968970  0.37386381  0.37378060  1
  V  V58  1  0.87563183  0.24642153  0.12468345  1
  V  V59  1  0.75499041  -0.00134368  0.25474651  1
  V  V60  1  0.63118215  0.37943906  0.75015410  1
  V  V61  1  0.37376822  0.49850658  0.37620578  1
  V  V62  1  0.75203734  0.61898034  0.86734666  1
  V  V63  1  0.63128801  0.50259782  0.62473489  1
  V  V64  1  0.50310966  0.49902132  0.49901120  1
  V  V65  1  0.50201930  0.62926657  0.61758170  1
  V  V66  1  -0.00123380  0.37962267  0.87154405  1
  V  V67  1  0.50257454  0.25069499  0.24413421  1
  V  V68  1  0.00059619  0.24576936  0.24820206  1
  V  V69  1  0.12313290  0.24988799  0.87510098  1
  V  V70  1  0.62121548  0.12504586  0.00461064  1
  V  V71  1  0.37564501  0.37445779  0.49948130  1
  V  V72  1  0.37471789  0.24912831  0.12908158  1
  V  V73  1  0.12432918  0.24289372  0.37400988  1
  V  V74  1  -0.00169876  0.24896609  0.74687827  1
  V  V75  1  0.88676771  0.88220515  0.00102693  1
  V  V76  1  0.24854764  0.37396422  0.12565319  1
  V  V77  1  0.50021481  0.37522848  0.87423489  1
  V  V78  1  0.85469048  0.75677154  0.62499197  1
  V  V79  1  0.75182073  0.38245377  0.12643838  1
  V  V80  1  0.12352344  0.49631247  0.12933108  1
  V  V81  1  0.86255837  0.87126316  0.49051280  1
  V  V82  1  0.62442718  0.75203376  0.87442398  1
  V  V83  1  -0.00647009  -0.00224123  0.49177052  1
  V  V84  1  0.62840446  0.12681792  0.50206749  1
  Zn  Zn85  1  0.01293099  0.86526928  0.37503812  1
  Zn  Zn86  1  0.24358251  0.12062238  0.87184962  1
  Zn  Zn87  1  0.87177540  0.49827343  0.86510090  1
  Zn  Zn88  1  0.62712263  0.24811021  0.87312125  1
  Zn  Zn89  1  0.62090013  0.00387675  0.12555777  1
  Zn  Zn90  1  0.37187254  0.85799571  0.50381350  1
  Zn  Zn91  1  0.12434500  0.37182625  0.25432711  1
  Zn  Zn92  1  0.74364296  0.11484246  0.87093541  1
  Zn  Zn93  1  0.37030980  0.50219150  0.87331809  1
  Zn  Zn94  1  0.62672157  0.24850875  0.37255515  1
  Zn  Zn95  1  0.87399513  0.62439412  0.74362157  1
  Zn  Zn96  1  0.85820645  0.48996956  0.37632598  1
  Zn  Zn97  1  -0.00428295  0.36834707  0.37999897  1
  Zn  Zn98  1  0.49841446  0.87168295  0.38058285  1
  Zn  Zn99  1  0.88008351  0.25179059  0.62191520  1
  Zn  Zn100  1  0.23888673  -0.02147210  0.26331282  1
  Zn  Zn101  1  0.86360845  0.12188767  0.74381876  1
  Zn  Zn102  1  0.87940019  0.11660127  0.25344070  1
  Zn  Zn103  1  0.12096835  0.76176655  0.87095697  1
  Zn  Zn104  1  0.12445568  0.37776197  0.74753376  1
  Zn  Zn105  1  0.62995592  0.50338701  0.12646211  1
  Zn  Zn106  1  0.87421578  0.37543351  -0.00087941  1
  Zn  Zn107  1  0.18728942  0.17910996  0.18891673  1
  Zn  Zn108  1  0.18562325  0.18481321  0.68887730  1
  Zn  Zn109  1  0.19389454  0.68940461  0.18606595  1
  Zn  Zn110  1  0.17858358  0.68909681  0.68899429  1
  Zn  Zn111  1  0.68814389  0.18826911  0.18653631  1
  Zn  Zn112  1  0.68980073  0.19193687  0.68866485  1
  Zn  Zn113  1  0.68656452  0.69180281  0.18470711  1
  Zn  Zn114  1  0.68153711  0.68947062  0.68607028  1
  Zn  Zn115  1  0.31077657  0.30809124  0.31119702  1
  Zn  Zn116  1  0.31064830  0.31415578  0.81265840  1
  Zn  Zn117  1  0.31354856  0.81615583  0.33062270  1
  Zn  Zn118  1  0.31144105  0.81411146  0.80817271  1
  Zn  Zn119  1  0.81445289  0.31201924  0.31346796  1
  Zn  Zn120  1  0.81380233  0.31133308  0.81089630  1
  Zn  Zn121  1  0.81472452  0.81234968  0.31478116  1
  Zn  Zn122  1  0.81734178  0.80632474  0.81204401  1
  Zn  Zn123  1  0.18382178  0.43675739  0.43721632  1
  Zn  Zn124  1  0.18449247  0.44148410  0.93447456  1
  Zn  Zn125  1  0.18511599  0.93484701  0.44304783  1
  Zn  Zn126  1  0.18133363  0.94036358  0.93438216  1
  Zn  Zn127  1  0.68586505  0.43368645  0.44107906  1
  Zn  Zn128  1  0.68614976  0.43657323  0.94043735  1
  Zn  Zn129  1  0.68146976  0.93872645  0.43726856  1
  Zn  Zn130  1  0.68675154  0.93782498  0.93889525  1
  Zn  Zn131  1  0.30578676  0.06049957  0.05287480  1
  Zn  Zn132  1  0.30951421  0.06116419  0.56680334  1
  Zn  Zn133  1  0.31034027  0.56485801  0.05844279  1
  Zn  Zn134  1  0.31346708  0.68354154  0.56212297  1
  Zn  Zn135  1  0.81219629  0.06138996  0.05852372  1
  Zn  Zn136  1  0.81754340  0.06262302  0.56218151  1
  Zn  Zn137  1  0.81458236  0.56481210  0.05885693  1
  Zn  Zn138  1  0.80803906  0.56971283  0.55389498  1
  Zn  Zn139  1  0.43889692  0.43770161  0.18683428  1
  Zn  Zn140  1  0.43863685  0.44031338  0.68501567  1
  Zn  Zn141  1  0.39656517  0.90596777  0.21939216  1
  Zn  Zn142  1  0.43459593  0.93584708  0.68149375  1
  Zn  Zn143  1  0.93625943  0.43277224  0.19278135  1
  Zn  Zn144  1  0.93756965  0.44712579  0.68936405  1
  Zn  Zn145  1  0.93879614  0.93476998  0.18924161  1
  Zn  Zn146  1  0.93148617  0.93456655  0.68241921  1
  Zn  Zn147  1  0.08231101  0.02986014  0.32871247  1
  Zn  Zn148  1  0.05316118  0.05882697  0.81746055  1
  Zn  Zn149  1  0.05862070  0.56748830  0.31440472  1
  Zn  Zn150  1  0.06724004  0.57720185  0.80398392  1
  Zn  Zn151  1  0.57349576  0.05938041  0.31710399  1
  Zn  Zn152  1  0.56442970  0.06410931  0.81374639  1
  Zn  Zn153  1  0.68328927  0.56338599  0.31297883  1
  Zn  Zn154  1  0.56442655  0.56237915  0.81059532  1
  Zn  Zn155  1  0.44176294  0.18782532  0.43868687  1
  Zn  Zn156  1  0.43702678  0.18576350  0.93745047  1
  Zn  Zn157  1  0.44580594  0.68372687  0.43413701  1
  Zn  Zn158  1  0.43232085  0.68657409  0.93119016  1
  Zn  Zn159  1  0.93954247  0.18219298  0.43749368  1
  Zn  Zn160  1  0.93701406  0.18567429  0.93757074  1
  Zn  Zn161  1  0.93426712  0.68981680  0.43711754  1
  Zn  Zn162  1  0.93721171  0.69170793  0.93797337  1
  Zn  Zn163  1  0.05971813  0.31222392  0.06224884  1
  Zn  Zn164  1  0.06311330  0.31105903  0.56248825  1
  Zn  Zn165  1  0.06429868  0.80860766  0.06297611  1
  Zn  Zn166  1  0.06674596  0.82272415  0.56636320  1
  Zn  Zn167  1  0.56462931  0.31249446  0.06408377  1
  Zn  Zn168  1  0.56730351  0.31224867  0.56510506  1
  Zn  Zn169  1  0.55903127  0.81747833  0.06325687  1
  Zn  Zn170  1  0.56827544  0.81626958  0.56437544  1
  O  O171  1  0.11813404  0.12174197  0.11516696  1
  O  O172  1  0.11490357  0.13140359  0.61656250  1
  O  O173  1  0.12235660  0.61630251  0.11810873  1
  O  O174  1  0.11585805  0.62217589  0.61192968  1
  O  O175  1  0.62990796  0.12374627  0.10999447  1
  O  O176  1  0.62105668  0.11864344  0.62231781  1
  O  O177  1  0.61608505  0.62440807  0.11653527  1
  O  O178  1  0.61489243  0.61183174  0.63396687  1
  O  O179  1  0.37923422  0.37606603  0.37925638  1
  O  O180  1  0.38089778  0.37712604  0.88145444  1
  O  O181  1  0.38617629  0.87453202  0.39059007  1
  O  O182  1  0.38262182  0.88465265  0.86847495  1
  O  O183  1  0.88523297  0.37999829  0.36267890  1
  O  O184  1  0.88764734  0.37604535  0.87736721  1
  O  O185  1  0.88556560  0.86960991  0.38818206  1
  O  O186  1  0.88112447  0.87862818  0.88168317  1
  O  O187  1  0.25042524  0.01392039  0.37705127  1
  O  O188  1  0.25585091  -0.00127954  0.86434987  1
  O  O189  1  0.25480614  0.50272672  0.36974533  1
  O  O190  1  0.24802004  0.50314637  0.85634222  1
  O  O191  1  0.74255649  0.00877458  0.36596398  1
  O  O192  1  0.76707544  -0.00353871  0.88073753  1
  O  O193  1  0.74604774  0.49502062  0.37382747  1
  O  O194  1  0.75087803  0.51589224  0.88563165  1
  O  O195  1  0.24148674  0.49581533  0.12996772  1
  O  O196  1  0.24189825  0.49367945  0.63295001  1
  O  O197  1  0.24058054  0.99910990  0.12197535  1
  O  O198  1  0.24645966  0.99956182  0.63896071  1
  O  O199  1  0.75196078  0.48620732  0.11737071  1
  O  O200  1  0.73915119  0.49392118  0.61437271  1
  O  O201  1  0.74991790  0.98905552  0.12795058  1
  O  O202  1  0.73706057  1.00716045  0.62463023  1
  O  O203  1  0.00547838  0.35667514  0.24554575  1
  O  O204  1  0.00383424  0.36997472  0.75575459  1
  O  O205  1  -0.00825611  0.85417356  0.24924302  1
  O  O206  1  -0.00413473  0.87251262  0.75649570  1
  O  O207  1  0.50602521  0.36806840  0.25347053  1
  O  O208  1  0.50408195  0.37232497  0.75587038  1
  O  O209  1  0.50355188  0.86441192  0.24632790  1
  O  O210  1  0.50413879  0.86889990  0.75292088  1
  O  O211  1  0.50969502  0.13022497  0.24319993  1
  O  O212  1  0.49205831  0.13133475  0.74771464  1
  O  O213  1  0.49553167  0.63051799  0.23052844  1
  O  O214  1  0.49600787  0.63197578  0.74481946  1
  O  O215  1  0.99833572  0.13409604  0.23922944  1
  O  O216  1  0.99844627  0.13102187  0.74383477  1
  O  O217  1  0.99205635  0.63467019  0.24417707  1
  O  O218  1  0.99626423  0.62171244  0.72484440  1
  O  O219  1  0.36975045  0.25395282  0.00868864  1
  O  O220  1  0.37152632  0.25500333  0.50755158  1
  O  O221  1  0.36681657  0.74132992  0.00830084  1
  O  O222  1  0.38671842  0.74362930  0.50567653  1
  O  O223  1  0.86986176  0.25010112  0.00942235  1
  O  O224  1  0.86551895  0.24747826  0.50007195  1
  O  O225  1  0.86997241  0.75651906  0.01211285  1
  O  O226  1  0.87978430  0.76337357  0.50816204  1
  O  O227  1  0.12783063  0.23978478  0.49307152  1
  O  O228  1  0.12788730  0.24561919  0.99269727  1
  O  O229  1  0.11822562  0.73979517  0.49723946  1
  O  O230  1  0.13169069  0.73898525  0.99609561  1
  O  O231  1  0.63151307  0.23652190  0.50293089  1
  O  O232  1  0.63173248  0.24399944  0.99937889  1
  O  O233  1  0.62188046  0.75802056  0.48681856  1
  O  O234  1  0.62800541  0.74703050  0.99378258  1
  O  O235  1  0.49173345  0.25438692  0.13499598  1
  O  O236  1  0.49461682  0.24395226  0.63142345  1
  O  O237  1  0.49007827  0.74120574  0.12063142  1
  O  O238  1  0.51212538  0.74026256  0.63424377  1
  O  O239  1  0.99317151  0.24188586  0.12823234  1
  O  O240  1  1.00032290  0.24412415  0.63310406  1
  O  O241  1  0.99263817  0.74298218  0.13031025  1
  O  O242  1  1.00189289  0.74042951  0.61901391  1
  O  O243  1  0.00748188  0.24370976  0.36629650  1
  O  O244  1  0.00769336  0.25680106  0.87081680  1
  O  O245  1  0.00309107  0.74577170  0.36006951  1
  O  O246  1  -0.00186204  0.76644584  0.87645526  1
  O  O247  1  0.49917198  0.25433929  0.36080989  1
  O  O248  1  0.50004225  0.25911374  0.87008378  1
  O  O249  1  0.49800965  0.74605130  0.35409577  1
  O  O250  1  0.50521673  0.75507074  0.86875519  1
  O  O251  1  0.24221295  0.12871641  0.49760028  1
  O  O252  1  0.23772600  0.13429005  0.99333097  1
  O  O253  1  0.23523473  0.62570170  0.49462487  1
  O  O254  1  0.24280611  0.63175115  0.99130814  1
  O  O255  1  0.74643309  0.12976721  0.49513821  1
  O  O256  1  0.74332987  0.13148310  0.99482013  1
  O  O257  1  0.73578548  0.63237715  0.49669265  1
  O  O258  1  0.74363800  0.63340219  0.99554868  1
  O  O259  1  0.25327875  0.37077004  0.00407818  1
  O  O260  1  0.25551794  0.36762334  0.50395839  1
  O  O261  1  0.24286400  0.86138409  -0.00770524  1
  O  O262  1  0.24872732  0.87644518  0.51485397  1
  O  O263  1  0.75124299  0.36711527  0.00849644  1
  O  O264  1  0.74112578  0.36219735  0.51184397  1
  O  O265  1  0.75615334  0.86983055  0.00724872  1
  O  O266  1  0.76412792  0.88097540  0.49118561  1
  O  O267  1  0.12522486  0.49967563  0.24115142  1
  O  O268  1  0.13093917  0.50297568  0.73417472  1
  O  O269  1  0.13156713  1.01089090  0.22702674  1
  O  O270  1  0.13639728  1.00556065  0.75619359  1
  O  O271  1  0.62315836  0.48604396  0.24448559  1
  O  O272  1  0.61974923  0.48777929  0.74107731  1
  O  O273  1  0.63445395  0.99308402  0.24348278  1
  O  O274  1  0.62125236  0.99529019  0.73926290  1
  O  O275  1  0.39326997  0.02034708  0.24101229  1
  O  O276  1  0.37122968  0.00759276  0.75695944  1
  O  O277  1  0.37064649  0.50475187  0.25379604  1
  O  O278  1  0.36868712  0.50644733  0.74913620  1
  O  O279  1  0.85993097  -0.00174539  0.24512024  1
  O  O280  1  0.87431797  -0.00150716  0.76190543  1
  O  O281  1  0.88149979  0.51733700  0.24762542  1
  O  O282  1  0.87351932  0.51079697  0.75295770  1
  O  O283  1  0.12161777  0.35725160  0.37551741  1
  O  O284  1  0.11442400  0.36901248  0.87338500  1
  O  O285  1  0.11177854  0.91934708  0.36156488  1
  O  O286  1  0.10571877  0.87746338  0.87444957  1
  O  O287  1  0.61561825  0.36880817  0.36672050  1
  O  O288  1  0.61915437  0.37521067  0.86746913  1
  O  O289  1  0.61633508  0.88232913  0.35947489  1
  O  O290  1  0.61754387  0.87330203  0.86811656  1
  O  O291  1  0.37671456  0.13089101  0.12078104  1
  O  O292  1  0.37929388  0.12933540  0.63692261  1
  O  O293  1  0.38159673  0.62572766  0.12678687  1
  O  O294  1  0.38840265  0.62452957  0.63680553  1
  O  O295  1  0.88280686  0.12904530  0.12305235  1
  O  O296  1  0.88619633  0.12920021  0.62703245  1
  O  O297  1  0.87893908  0.63283957  0.12971546  1
  O  O298  1  0.88302922  0.64071445  0.61406987  1
  O  O299  1  0.25591738  0.25228242  0.12119447  1
  O  O300  1  0.25466434  0.25346924  0.61969366  1
  O  O301  1  0.26431476  0.74465744  0.11422551  1
  O  O302  1  0.24906023  0.75461697  0.63004920  1
  O  O303  1  0.75794696  0.25369715  0.11510843  1
  O  O304  1  0.75406508  0.25916811  0.61656126  1
  O  O305  1  0.75695965  0.76194988  0.12107241  1
  O  O306  1  0.75600308  0.74942358  0.62279775  1
  O  O307  1  0.24282450  0.24153588  0.38077705  1
  O  O308  1  0.23555231  0.25077314  0.87752811  1
  O  O309  1  0.24836701  0.73433138  0.36961417  1
  O  O310  1  0.25004301  0.74753588  0.88112579  1
  O  O311  1  0.74682875  0.24351290  0.38277527  1
  O  O312  1  0.75067060  0.25563966  0.89095979  1
  O  O313  1  0.74512119  0.74550634  0.37125551  1
  O  O314  1  0.74409275  0.74297796  0.88150641  1
  O  O315  1  0.01052232  0.13144255  0.00899707  1
  O  O316  1  0.00460518  0.11900015  0.51036067  1
  O  O317  1  0.00609529  0.61929305  0.00632981  1
  O  O318  1  0.00885474  0.61901212  0.50294267  1
  O  O319  1  0.50644841  0.11342755  -0.00553729  1
  O  O320  1  0.50985347  0.12176528  0.50777559  1
  O  O321  1  0.50149901  0.61826079  0.00314456  1
  O  O322  1  0.49932129  0.61191956  0.50999743  1
  O  O323  1  0.49540438  0.37293592  0.49400308  1
  O  O324  1  0.49616682  0.38196730  0.99565085  1
  O  O325  1  0.50220612  0.89311211  0.50620612  1
  O  O326  1  0.50598261  0.89209148  0.99132807  1
  O  O327  1  1.00360094  0.39051669  0.50176122  1
  O  O328  1  0.99961983  0.38375298  0.99182701  1
  O  O329  1  1.00127945  0.88838854  0.49689861  1
  O  O330  1  0.98684549  0.86939127  1.00044235  1
  O  O331  1  0.49168168  0.48662133  0.38438022  1
  O  O332  1  0.49816395  0.49598019  0.88483524  1
  O  O333  1  0.50823587  1.00590378  0.39504252  1
  O  O334  1  0.49163982  0.99630869  0.87863134  1
  O  O335  1  1.00544903  0.49909056  0.39064965  1
  O  O336  1  1.00274509  0.49440653  0.88120133  1
  O  O337  1  0.98583990  1.01830759  0.39392285  1
  O  O338  1  0.98579508  0.98377252  0.87450002  1
  O  O339  1  0.00443713  0.00966355  0.12892449  1
  O  O340  1  -0.00360067  0.00939461  0.61943228  1
  O  O341  1  0.00548127  0.50255998  0.11998577  1
  O  O342  1  0.00591022  0.50834099  0.61176842  1
  O  O343  1  0.49546966  0.00887344  0.11761730  1
  O  O344  1  0.50754237  0.00890278  0.61967242  1
  O  O345  1  0.49945989  0.50605944  0.11252184  1
  O  O346  1  0.50682791  0.50618019  0.61835028  1
  O  O347  1  0.24679727  0.38058671  0.24369166  1
  O  O348  1  0.24765931  0.38157663  0.74210093  1
  O  O349  1  0.28743736  0.88112038  0.24394397  1
  O  O350  1  0.25120368  0.88641895  0.74207754  1
  O  O351  1  0.74008166  0.36220299  0.23770452  1
  O  O352  1  0.74030440  0.36891224  0.74145223  1
  O  O353  1  0.74265873  0.87895077  0.24401465  1
  O  O354  1  0.73696290  0.86942322  0.75747235  1
  O  O355  1  0.25166744  0.12312659  0.26523494  1
  O  O356  1  0.25633800  0.11542686  0.75101708  1
  O  O357  1  0.25432289  0.61735186  0.25610295  1
  O  O358  1  0.26368557  0.61591866  0.74142397  1
  O  O359  1  0.74884582  0.11686178  0.25730031  1
  O  O360  1  0.75352453  0.13922556  0.76154829  1
  O  O361  1  0.75944457  0.62268693  0.24108743  1
  O  O362  1  0.74481451  0.63059444  0.76605562  1
  O  O363  1  0.36076915  0.13267035  0.38113829  1
  O  O364  1  0.37106752  0.12071662  0.86350557  1
  O  O365  1  0.36863616  0.61593822  0.36802293  1
  O  O366  1  0.36429529  0.62336323  0.85969092  1
  O  O367  1  0.86134411  0.12830782  0.37230314  1
  O  O368  1  0.88008210  0.10625450  0.87703080  1
  O  O369  1  0.87682528  0.62301056  0.35924170  1
  O  O370  1  0.86071847  0.62950853  0.87626368  1
  O  O371  1  0.13095188  0.38051484  0.12727192  1
  O  O372  1  0.13139744  0.38370934  0.62398165  1
  O  O373  1  0.12097125  0.89028710  0.11809067  1
  O  O374  1  0.14359533  0.87305543  0.63180746  1
  O  O375  1  0.63413420  0.37653793  0.13136962  1
  O  O376  1  0.63152588  0.38231187  0.63349944  1
  O  O377  1  0.63272584  0.87964124  0.13030101  1
  O  O378  1  0.62417927  0.89128240  0.63387160  1
  O  O379  1  0.11855884  0.24505436  0.25769298  1
  O  O380  1  0.11598487  0.25100364  0.75856959  1
  O  O381  1  0.11243750  0.74601134  0.24135031  1
  O  O382  1  0.13908202  0.68140563  0.79241968  1
  O  O383  1  0.61642050  0.25807293  0.24756234  1
  O  O384  1  0.61513744  0.26277519  0.75043592  1
  O  O385  1  0.61328032  0.76174083  0.23539628  1
  O  O386  1  0.61558446  0.75877975  0.75587799  1
  O  O387  1  0.38133525  0.25266861  0.23617165  1
  O  O388  1  0.37758411  0.24340907  0.74616710  1
  O  O389  1  0.38329618  0.73983749  0.23229945  1
  O  O390  1  0.38892986  0.74345234  0.75349096  1
  O  O391  1  0.88056998  0.24341660  0.23669093  1
  O  O392  1  0.89071653  0.24897457  0.75140616  1
  O  O393  1  0.87540936  0.73988003  0.23951907  1
  O  O394  1  0.87068675  0.74485065  0.72998229  1
  O  O395  1  0.38795445  0.48586465  0.49659343  1
  O  O396  1  0.38103760  0.49394247  0.99655121  1
  O  O397  1  0.39183485  1.00914603  0.50709392  1
  O  O398  1  0.38007307  1.00803938  0.98311940  1
  O  O399  1  0.88886017  0.50802826  0.49633747  1
  O  O400  1  0.88911701  0.49974615  0.99632927  1
  O  O401  1  0.88534169  0.98456432  0.50960359  1
  O  O402  1  0.87333621  0.98605207  0.99330265  1
  O  O403  1  0.12794154  0.01121988  0.00898590  1
  O  O404  1  0.11063797  0.01229729  0.50218917  1
  O  O405  1  0.11631975  0.49838576  0.01544237  1
  O  O406  1  0.12045974  0.50595550  0.50899175  1
  O  O407  1  0.61625802  0.00730043  0.00179598  1
  O  O408  1  0.62121195  0.01026739  0.51257721  1
  O  O409  1  0.61506887  0.50655583  0.00244962  1
  O  O410  1  0.60932331  0.48706613  0.51149163  1
  O  O411  1  0.36868672  0.36797282  0.11877797  1
  O  O412  1  0.36994311  0.36954384  0.61964148  1
  O  O413  1  0.38619691  0.85758035  0.11153583  1
  O  O414  1  0.35472308  0.88141622  0.62217710  1
  O  O415  1  0.86877219  0.36537810  0.12389592  1
  O  O416  1  0.86354951  0.37574626  0.62994499  1
  O  O417  1  0.86936775  0.86988371  0.11756089  1
  O  O418  1  0.87568822  0.86153754  0.61405030  1
  O  O419  1  0.13266414  0.13007907  0.38385816  1
  O  O420  1  0.11993379  0.13215998  0.88210558  1
  O  O421  1  0.13321002  0.61819559  0.38770773  1
  O  O422  1  0.12890786  0.59226958  0.90223654  1
  O  O423  1  0.63574576  0.12848279  0.38618656  1
  O  O424  1  0.62535634  0.12828417  0.88713204  1
  O  O425  1  0.62301182  0.63565728  0.37434547  1
  O  O426  1  0.63288562  0.62973728  0.87955820  1
