# generated using pymatgen
data_V85Zn86O256
_symmetry_space_group_name_H-M   'P 1'
_cell_length_a   16.95447054
_cell_length_b   16.96942545
_cell_length_c   16.95707602
_cell_angle_alpha   89.97019994
_cell_angle_beta   90.02116678
_cell_angle_gamma   89.95739321
_symmetry_Int_Tables_number   1
_chemical_formula_structural   V85Zn86O256
_chemical_formula_sum   'V85 Zn86 O256'
_cell_volume   4878.67770565
_cell_formula_units_Z   1
loop_
 _symmetry_equiv_pos_site_id
 _symmetry_equiv_pos_as_xyz
  1  'x, y, z'
loop_
 _atom_site_type_symbol
 _atom_site_label
 _atom_site_symmetry_multiplicity
 _atom_site_fract_x
 _atom_site_fract_y
 _atom_site_fract_z
 _atom_site_occupancy
  V  V0  1  0.50122472  0.87466952  0.37238175  1
  V  V1  1  0.21994658  0.87901653  0.13080820  1
  V  V2  1  0.62475565  0.25195426  0.36483457  1
  V  V3  1  0.12905304  0.75972692  0.37003954  1
  V  V4  1  0.62680348  0.74998250  0.37549071  1
  V  V5  1  0.25498623  0.75120827  0.50112905  1
  V  V6  1  0.87817020  -0.00130689  0.87767697  1
  V  V7  1  0.23646494  0.00807534  0.24811071  1
  V  V8  1  0.13020170  0.62595427  0.50047254  1
  V  V9  1  0.25945680  0.50274797  0.24797514  1
  V  V10  1  0.61786797  0.61190906  0.50204405  1
  V  V11  1  0.62379297  -0.00045762  0.62556554  1
  V  V12  1  0.25082661  0.12333613  0.86889182  1
  V  V13  1  0.50291198  0.62185563  0.62966470  1
  V  V14  1  0.24689203  0.63031147  0.87646470  1
  V  V15  1  0.62939503  0.87215267  0.24104657  1
  V  V16  1  0.74152645  0.37924476  0.13997744  1
  V  V17  1  0.49050402  0.24983304  0.25152285  1
  V  V18  1  0.12590138  0.37812822  0.25642976  1
  V  V19  1  0.24716282  0.24753547  -0.00016537  1
  V  V20  1  0.62147615  0.63214924  -0.00975872  1
  V  V21  1  -0.00199793  0.63192329  0.62108061  1
  V  V22  1  0.38115904  0.63604010  0.75712108  1
  V  V23  1  0.74824838  0.00280725  0.75072534  1
  V  V24  1  0.87577764  -0.00108186  0.37639637  1
  V  V25  1  0.74557002  0.37546507  0.61879707  1
  V  V26  1  -0.00942288  0.75556439  0.74506754  1
  V  V27  1  0.74826256  0.25493572  0.00044302  1
  V  V28  1  0.87561480  0.25561439  0.12704748  1
  V  V29  1  0.49408281  0.00206250  -0.00256588  1
  V  V30  1  0.12254540  0.36511846  0.74652610  1
  V  V31  1  0.87821143  0.86913396  0.50212939  1
  V  V32  1  0.24817313  0.37226653  0.12595619  1
  V  V33  1  0.49236068  0.12872458  0.62339143  1
  V  V34  1  0.37689534  -0.00080170  0.87408975  1
  V  V35  1  0.14066576  0.25140159  0.37445217  1
  V  V36  1  -0.00214845  -0.00174903  0.00252414  1
  V  V37  1  0.12916636  0.12627207  0.49501533  1
  V  V38  1  0.49407506  0.12390184  0.13054422  1
  V  V39  1  -0.00410023  0.00919000  0.50557735  1
  V  V40  1  -0.00236000  0.49500700  -0.00631547  1
  V  V41  1  -0.00354667  0.74868145  0.24866867  1
  V  V42  1  0.49874170  -0.00025841  0.49780532  1
  V  V43  1  0.37941320  0.50110242  0.38597703  1
  V  V44  1  0.12265364  0.00801906  0.62669325  1
  V  V45  1  0.87514873  0.12500622  0.24954795  1
  V  V46  1  -0.05389419  0.43212911  0.32227901  1
  V  V47  1  0.25088014  0.87679789  0.62608347  1
  V  V48  1  0.11157036  0.75563384  0.87553032  1
  V  V49  1  0.87604352  0.62216180  0.74609674  1
  V  V50  1  0.62057050  0.86028586  0.75181477  1
  V  V51  1  0.37669560  0.87741630  0.49738849  1
  V  V52  1  0.62181551  0.25407217  0.87047114  1
  V  V53  1  0.50392412  0.38037457  0.37630336  1
  V  V54  1  0.62631556  0.12792482  0.50110400  1
  V  V55  1  0.25962657  0.24847836  0.51462889  1
  V  V56  1  0.00054920  0.24913805  0.26101560  1
  V  V57  1  0.11992698  0.87588942  0.75163674  1
  V  V58  1  0.75390371  0.87191970  0.62626777  1
  V  V59  1  0.37224485  0.01082659  0.36300336  1
  V  V60  1  0.75248127  0.12890107  0.87334835  1
  V  V61  1  0.49650994  0.85864048  0.86982368  1
  V  V62  1  0.24901324  0.50243697  0.75298949  1
  V  V63  1  0.74920503  0.12261309  0.37449594  1
  V  V64  1  0.75199419  0.74657581  0.50275513  1
  V  V65  1  0.43054965  0.82475066  0.05303526  1
  V  V66  1  0.11627838  0.50226289  0.12612851  1
  V  V67  1  0.62061448  0.49998084  0.13969543  1
  V  V68  1  0.12691355  0.11995339  0.00584335  1
  V  V69  1  -0.00065104  0.36479884  0.86950587  1
  V  V70  1  0.11264654  0.62598833  0.00149966  1
  V  V71  1  0.50553003  0.49389932  0.00114866  1
  V  V72  1  0.74713255  0.50026826  0.74524515  1
  V  V73  1  0.75483813  0.61081953  0.37131647  1
  V  V74  1  0.75425784  -0.00698163  0.24617811  1
  V  V75  1  0.63109525  -0.00296118  0.12097648  1
  V  V76  1  0.62321694  0.12771069  -0.00135281  1
  V  V77  1  0.26068996  0.63040274  0.36858349  1
  V  V78  1  0.62077747  0.38163119  0.74100837  1
  V  V79  1  0.37363618  0.37274850  -0.00058399  1
  V  V80  1  0.00046195  0.12229973  0.12716054  1
  V  V81  1  0.88493242  0.38086833  0.50441116  1
  V  V82  1  0.12579942  0.50223317  0.62569957  1
  V  V83  1  0.49154331  0.25294740  0.74268970  1
  V  V84  1  0.24561931  0.75850796  0.00769591  1
  Zn  Zn85  1  0.25750224  0.37263476  0.62893364  1
  Zn  Zn86  1  -0.07159280  0.83617661  0.94295871  1
  Zn  Zn87  1  0.25219444  -0.00174915  0.75086892  1
  Zn  Zn88  1  0.49672310  0.75110424  0.23541089  1
  Zn  Zn89  1  0.87446322  0.62286723  0.25124719  1
  Zn  Zn90  1  0.49510819  0.37338750  0.87178597  1
  Zn  Zn91  1  0.87259619  0.37223727  -0.00557233  1
  Zn  Zn92  1  0.37163925  0.12824224  0.74489844  1
  Zn  Zn93  1  0.37450718  0.50104525  0.87734050  1
  Zn  Zn94  1  0.11958252  0.24277730  0.86821562  1
  Zn  Zn95  1  0.39170732  0.64114760  0.20105718  1
  Zn  Zn96  1  0.00061143  0.50406458  0.49259416  1
  Zn  Zn97  1  0.87302648  0.49368977  0.86939944  1
  Zn  Zn98  1  0.89549706  0.12785891  0.73680691  1
  Zn  Zn99  1  0.89068791  0.24356178  0.62556233  1
  Zn  Zn100  1  0.73880299  0.63812740  0.86954045  1
  Zn  Zn101  1  0.75562945  0.25073216  0.49721525  1
  Zn  Zn102  1  0.86386149  0.76922216  0.12113150  1
  Zn  Zn103  1  0.37007171  0.24174100  0.12974945  1
  Zn  Zn104  1  0.00746465  0.87876741  0.37659391  1
  Zn  Zn105  1  0.38299168  0.37289860  0.50955753  1
  Zn  Zn106  1  0.38663890  0.75691836  0.63495258  1
  Zn  Zn107  1  0.18552732  0.18658442  0.18873683  1
  Zn  Zn108  1  0.05901951  0.18811691  0.68214438  1
  Zn  Zn109  1  0.18714389  0.68652277  0.18585178  1
  Zn  Zn110  1  0.18726061  0.69124196  0.68882506  1
  Zn  Zn111  1  0.68644789  0.18399104  0.18546098  1
  Zn  Zn112  1  0.69594915  0.19418809  0.68787408  1
  Zn  Zn113  1  0.67788450  0.67920986  0.19159775  1
  Zn  Zn114  1  0.68865438  0.68466881  0.68155414  1
  Zn  Zn115  1  0.31658228  0.31615296  0.31497700  1
  Zn  Zn116  1  0.30848542  0.31194418  0.81252600  1
  Zn  Zn117  1  0.31663512  0.81687729  0.30116170  1
  Zn  Zn118  1  0.30826422  0.81511813  0.81969449  1
  Zn  Zn119  1  0.80923427  0.31018457  0.31517644  1
  Zn  Zn120  1  0.81519635  0.31158108  0.80469561  1
  Zn  Zn121  1  0.81603014  0.81031666  0.31385413  1
  Zn  Zn122  1  0.80536707  0.80860573  0.81528151  1
  Zn  Zn123  1  0.19228134  0.43659684  0.43826264  1
  Zn  Zn124  1  0.18276994  0.43492876  0.93416793  1
  Zn  Zn125  1  0.19302648  0.94311394  0.43666389  1
  Zn  Zn126  1  0.18418548  0.93827112  0.93975619  1
  Zn  Zn127  1  0.68685744  0.43444903  0.43504224  1
  Zn  Zn128  1  0.68866277  0.44026975  0.93131190  1
  Zn  Zn129  1  0.68817608  0.93623404  0.43685972  1
  Zn  Zn130  1  0.67816900  0.93845614  0.92957633  1
  Zn  Zn131  1  0.31026231  0.05528359  0.06686309  1
  Zn  Zn132  1  0.31052232  0.06277220  0.55830973  1
  Zn  Zn133  1  0.30024405  0.55363971  0.05723570  1
  Zn  Zn134  1  0.31795280  0.56576492  0.56934134  1
  Zn  Zn135  1  0.81427169  -0.05431871  0.06168921  1
  Zn  Zn136  1  0.81256376  0.06407880  0.56554799  1
  Zn  Zn137  1  0.78489344  0.61263050  0.07985760  1
  Zn  Zn138  1  0.81174783  0.55915682  0.56216623  1
  Zn  Zn139  1  0.43919290  0.43247699  0.18895682  1
  Zn  Zn140  1  0.43440999  0.44507982  0.68577844  1
  Zn  Zn141  1  0.44206328  0.94073943  0.19170544  1
  Zn  Zn142  1  0.43796067  0.93924043  0.69067828  1
  Zn  Zn143  1  0.89614531  0.48464094  0.14098463  1
  Zn  Zn144  1  0.94013510  0.43597045  0.68262584  1
  Zn  Zn145  1  0.95111842  0.93350459  0.19285138  1
  Zn  Zn146  1  0.93460664  0.94393950  0.68816911  1
  Zn  Zn147  1  0.06251788  0.06530426  0.31891894  1
  Zn  Zn148  1  0.06714861  0.05753617  0.81940564  1
  Zn  Zn149  1  0.07340832  0.57367417  0.31034077  1
  Zn  Zn150  1  0.05927064  0.56281501  0.81211246  1
  Zn  Zn151  1  0.56307004  0.06202062  0.31036592  1
  Zn  Zn152  1  0.56348735  0.06347955  0.80900178  1
  Zn  Zn153  1  0.55409244  0.57146039  0.30999110  1
  Zn  Zn154  1  0.55762425  0.56041041  0.81633170  1
  Zn  Zn155  1  0.43860092  0.18804916  0.43600634  1
  Zn  Zn156  1  0.43562752  0.18809147  0.93691316  1
  Zn  Zn157  1  0.44041210  0.69009366  0.43543056  1
  Zn  Zn158  1  0.41283732  0.66047448  0.98831686  1
  Zn  Zn159  1  0.93852026  0.19061466  0.44273252  1
  Zn  Zn160  1  0.93456299  0.18451181  0.93793556  1
  Zn  Zn161  1  0.93937494  0.68705608  0.43337655  1
  Zn  Zn162  1  0.90161605  0.68148280  0.93788365  1
  Zn  Zn163  1  0.06257570  0.31174462  0.06482173  1
  Zn  Zn164  1  0.06976808  0.32038639  0.55502379  1
  Zn  Zn165  1  0.04283592  0.80196226  0.06112780  1
  Zn  Zn166  1  0.06541820  0.81534481  0.56097340  1
  Zn  Zn167  1  0.56135798  0.31299336  0.06561566  1
  Zn  Zn168  1  0.56311615  0.31258771  0.55923302  1
  Zn  Zn169  1  0.69589183  0.80061770  0.05308241  1
  Zn  Zn170  1  0.56381040  0.80757924  0.56404630  1
  O  O171  1  0.11257118  0.13349620  0.11735250  1
  O  O172  1  0.12572799  0.11236784  0.61520065  1
  O  O173  1  0.13008868  0.61428481  0.11382757  1
  O  O174  1  0.12113568  0.62234880  0.61960014  1
  O  O175  1  0.61725296  0.11711454  0.11771775  1
  O  O176  1  0.61995344  0.12068849  0.61640282  1
  O  O177  1  0.63024750  0.60313371  0.11401641  1
  O  O178  1  0.62036404  0.62784249  0.61022944  1
  O  O179  1  0.38300326  0.38623888  0.37778932  1
  O  O180  1  0.37057583  0.37494722  0.88849347  1
  O  O181  1  0.38275655  0.88270557  0.37918588  1
  O  O182  1  0.38408035  0.88904989  0.86774435  1
  O  O183  1  0.87954406  0.37657935  0.38090541  1
  O  O184  1  0.88280583  0.37528658  0.87297792  1
  O  O185  1  0.87448423  0.88291569  0.38622896  1
  O  O186  1  0.87257279  0.89309636  0.86503061  1
  O  O187  1  0.26237626  -0.00456397  0.36097370  1
  O  O188  1  0.25931380  0.00481239  0.87849072  1
  O  O189  1  0.25711986  0.50911561  0.36562319  1
  O  O190  1  0.24433652  0.51102345  0.86723103  1
  O  O191  1  0.75470035  0.00461857  0.36748555  1
  O  O192  1  0.75177546  0.01011062  0.86799109  1
  O  O193  1  0.74759944  0.51262013  0.37724446  1
  O  O194  1  0.75314188  0.50034440  0.85674327  1
  O  O195  1  0.23836719  0.49158074  0.13083242  1
  O  O196  1  0.24058755  0.50982507  0.63928371  1
  O  O197  1  0.24603190  0.98793457  0.13446996  1
  O  O198  1  0.24351995  0.99090066  0.62474137  1
  O  O199  1  0.73482629  0.48384456  0.12373701  1
  O  O200  1  0.74995950  0.49044491  0.63392538  1
  O  O201  1  0.73807720  1.00615704  0.13237059  1
  O  O202  1  0.74302683  0.99298676  0.63201107  1
  O  O203  1  0.00381018  0.36892442  0.25986020  1
  O  O204  1  0.01065447  0.38187925  0.75700559  1
  O  O205  1  0.00132741  0.85726390  0.26265390  1
  O  O206  1  0.01009333  0.86893851  0.73865395  1
  O  O207  1  0.49748373  0.36291159  0.26217847  1
  O  O208  1  0.50479875  0.37055141  0.74817575  1
  O  O209  1  0.51269420  0.87297743  0.25481938  1
  O  O210  1  0.50524196  0.87319140  0.75940905  1
  O  O211  1  0.50535224  0.13239685  0.24044200  1
  O  O212  1  0.50136914  0.13409965  0.73922221  1
  O  O213  1  0.50066814  0.63622627  0.23831508  1
  O  O214  1  0.49072179  0.62445445  0.74731069  1
  O  O215  1  0.99775811  0.13114849  0.24574403  1
  O  O216  1  1.00716415  0.12717068  0.75846797  1
  O  O217  1  0.99263946  0.64367294  0.27465747  1
  O  O218  1  0.99794560  0.63388430  0.73932794  1
  O  O219  1  0.36257864  0.25318186  0.00272758  1
  O  O220  1  0.36224187  0.24846731  0.49448768  1
  O  O221  1  0.36102400  0.76597855  -0.00350688  1
  O  O222  1  0.36543306  0.75797118  0.49831185  1
  O  O223  1  0.86475766  0.25008423  0.00801330  1
  O  O224  1  0.87424057  0.26623362  0.49863591  1
  O  O225  1  0.92782765  0.75433665  0.01948544  1
  O  O226  1  0.86947508  0.76208362  0.49482413  1
  O  O227  1  0.13504005  0.24485256  0.49231597  1
  O  O228  1  0.13561158  0.24269994  0.99963669  1
  O  O229  1  0.13855253  0.74738281  0.49361188  1
  O  O230  1  0.12366578  0.74417773  0.99364446  1
  O  O231  1  0.62321577  0.23647654  0.48857054  1
  O  O232  1  0.62706804  0.24838386  0.99054149  1
  O  O233  1  0.63550941  0.74597570  0.49225666  1
  O  O234  1  0.61837893  0.72952263  1.00544696  1
  O  O235  1  0.49957657  0.24146408  0.13401978  1
  O  O236  1  0.50597686  0.24066165  0.63122732  1
  O  O237  1  0.48910045  0.76952342  0.10914974  1
  O  O238  1  0.49877009  0.73596459  0.62096993  1
  O  O239  1  0.99650342  0.24849492  0.13891058  1
  O  O240  1  1.00420657  0.26364413  0.62322283  1
  O  O241  1  1.01593301  0.73971828  0.15200355  1
  O  O242  1  1.00855344  0.73994138  0.62985975  1
  O  O243  1  0.01094600  0.24262782  0.36468485  1
  O  O244  1  0.00084341  0.26043675  0.88089986  1
  O  O245  1  0.01786113  0.75419436  0.37872485  1
  O  O246  1  0.00545506  0.75764223  0.86457968  1
  O  O247  1  0.50593607  0.25279052  0.36718608  1
  O  O248  1  0.50684744  0.25079081  0.86622294  1
  O  O249  1  0.51627672  0.75822000  0.38061851  1
  O  O250  1  0.48657247  0.76463543  0.88187102  1
  O  O251  1  0.24231982  0.13611224  0.50209660  1
  O  O252  1  0.24428600  0.12923001  0.99907905  1
  O  O253  1  0.25156029  0.63587349  0.49584145  1
  O  O254  1  0.23393950  0.63247496  0.98865590  1
  O  O255  1  0.74108938  0.12352735  0.49286477  1
  O  O256  1  0.73897708  0.14050466  0.98752621  1
  O  O257  1  0.74310140  0.63107344  0.49545042  1
  O  O258  1  0.72592154  0.60449319  0.98729839  1
  O  O259  1  0.25162103  0.36652843  0.00376392  1
  O  O260  1  0.25084199  0.35861762  0.50014976  1
  O  O261  1  0.23806496  0.87023498  0.01633960  1
  O  O262  1  0.25563200  0.87129556  0.50718976  1
  O  O263  1  0.74726721  0.36303789  -0.00151088  1
  O  O264  1  0.75979486  0.37721180  0.50383669  1
  O  O265  1  0.74398747  0.88304153  -0.00129830  1
  O  O266  1  0.75576287  0.86920869  0.50729297  1
  O  O267  1  0.13458532  0.49980365  0.24332883  1
  O  O268  1  0.13102539  0.49716762  0.74358299  1
  O  O269  1  0.13744659  1.00152143  0.26009817  1
  O  O270  1  0.12823218  0.99172165  0.74289734  1
  O  O271  1  0.61889492  0.50210609  0.23787790  1
  O  O272  1  0.62876736  0.48828356  0.75417327  1
  O  O273  1  0.63296808  0.99362984  0.24194523  1
  O  O274  1  0.63056801  0.98931588  0.74519337  1
  O  O275  1  0.36915379  -0.00287235  0.25948721  1
  O  O276  1  0.37246778  0.00654023  0.75836614  1
  O  O277  1  0.36541165  0.50157033  0.25023766  1
  O  O278  1  0.36356393  0.51416014  0.75689585  1
  O  O279  1  0.87018987  0.00478352  0.25562756  1
  O  O280  1  0.86399625  0.00755608  0.75548134  1
  O  O281  1  0.88959077  0.48750505  0.26161147  1
  O  O282  1  0.86649763  0.50526090  0.74314508  1
  O  O283  1  0.13107921  0.36639658  0.36802035  1
  O  O284  1  0.11870916  0.36900519  0.86422018  1
  O  O285  1  0.13067411  0.86197385  0.38290286  1
  O  O286  1  0.12939506  0.86894844  0.86271019  1
  O  O287  1  0.61912780  0.36314099  0.37723540  1
  O  O288  1  0.62399980  0.36373363  0.86467382  1
  O  O289  1  0.62277733  0.86959052  0.36600774  1
  O  O290  1  0.60596325  0.87636916  0.86542280  1
  O  O291  1  0.39019976  0.12216109  0.11898892  1
  O  O292  1  0.38890955  0.11824175  0.62406882  1
  O  O293  1  0.36568760  0.63434465  0.09288590  1
  O  O294  1  0.38160917  0.63202562  0.63898175  1
  O  O295  1  0.88645249  0.14017814  0.13671995  1
  O  O296  1  0.88242388  0.12688831  0.62075308  1
  O  O297  1  0.87372728  0.59542545  0.13967972  1
  O  O298  1  0.88633699  0.62074715  0.63192879  1
  O  O299  1  0.25041633  0.25438863  0.11912911  1
  O  O300  1  0.25181959  0.24957313  0.61215017  1
  O  O301  1  0.23823418  0.76413360  0.11655507  1
  O  O302  1  0.25039740  0.76188079  0.61751518  1
  O  O303  1  0.75016411  0.25793972  0.11803987  1
  O  O304  1  0.74170626  0.26683115  0.61350339  1
  O  O305  1  0.75532187  0.72686782  0.11775386  1
  O  O306  1  0.74874001  0.75730342  0.61135658  1
  O  O307  1  0.24286870  0.24851816  0.37355712  1
  O  O308  1  0.24842526  0.24001965  0.88387822  1
  O  O309  1  0.24627051  0.74764521  0.37928348  1
  O  O310  1  0.23751751  0.74893488  0.88721556  1
  O  O311  1  0.74127462  0.24163224  0.37657637  1
  O  O312  1  0.74181403  0.24577935  0.87838461  1
  O  O313  1  0.74140186  0.74890950  0.38502319  1
  O  O314  1  0.79974537  0.73100244  0.89406553  1
  O  O315  1  0.00677711  0.12265953  0.00840618  1
  O  O316  1  0.00884217  0.11474755  0.49602047  1
  O  O317  1  0.01081296  0.61202318  -0.01318208  1
  O  O318  1  0.00752230  0.62442139  0.50496611  1
  O  O319  1  0.50535607  0.12032603  0.00495225  1
  O  O320  1  0.50663309  0.11978046  0.50480469  1
  O  O321  1  0.51201275  0.60607437  -0.00174314  1
  O  O322  1  0.51351328  0.62824939  0.50309553  1
  O  O323  1  0.49891570  0.36796652  0.48250741  1
  O  O324  1  0.48888221  0.37479119  0.99855335  1
  O  O325  1  0.49810870  0.88212176  0.49456397  1
  O  O326  1  0.49369335  0.88458511  0.98791838  1
  O  O327  1  0.98934146  0.38362926  0.49878618  1
  O  O328  1  1.00283842  0.37873588  0.99010732  1
  O  O329  1  0.99210880  0.88273593  0.50034327  1
  O  O330  1  1.01356371  0.89594189  1.00056550  1
  O  O331  1  0.49058185  0.49382403  0.36872360  1
  O  O332  1  0.49445240  0.49124986  0.88561812  1
  O  O333  1  0.49213434  0.99413962  0.37582853  1
  O  O334  1  0.49440763  1.00128650  0.88172102  1
  O  O335  1  1.00811316  0.49707643  0.37266169  1
  O  O336  1  1.00511596  0.48493910  0.88028134  1
  O  O337  1  0.99423207  0.99822546  0.38552302  1
  O  O338  1  0.98860188  1.00838052  0.88759235  1
  O  O339  1  -0.00440987  0.01600694  0.12092774  1
  O  O340  1  0.01031492  -0.00687734  0.61507627  1
  O  O341  1  0.01336721  0.48914370  0.11358422  1
  O  O342  1  0.01355564  0.51167082  0.62404644  1
  O  O343  1  0.51104658  0.00469247  0.11938287  1
  O  O344  1  0.50638760  0.00586635  0.61921343  1
  O  O345  1  0.51345997  0.48514532  0.11755407  1
  O  O346  1  0.49649220  0.52072034  0.62589403  1
  O  O347  1  0.24697234  0.38401807  0.24627529  1
  O  O348  1  0.24225123  0.38680779  0.75211543  1
  O  O349  1  0.24830061  0.88216128  0.23457143  1
  O  O350  1  0.24020397  0.87458509  0.74183733  1
  O  O351  1  0.74818454  0.36878867  0.23815671  1
  O  O352  1  0.74084141  0.38158217  0.73963124  1
  O  O353  1  0.74591931  0.88684050  0.25654679  1
  O  O354  1  0.74527419  0.88142410  0.74515958  1
  O  O355  1  0.25052964  0.10722168  0.23905527  1
  O  O356  1  0.25037127  0.12219725  0.76639349  1
  O  O357  1  0.25309164  0.61872593  0.25525300  1
  O  O358  1  0.25085307  0.62387434  0.76216496  1
  O  O359  1  0.75424832  0.11397566  0.25363303  1
  O  O360  1  0.73400246  0.11086191  0.75799730  1
  O  O361  1  0.74831790  0.62733744  0.26908750  1
  O  O362  1  0.75805819  0.61939156  0.74798613  1
  O  O363  1  0.38062622  0.10834721  0.37573305  1
  O  O364  1  0.36861686  0.11509401  0.87579878  1
  O  O365  1  0.36660841  0.61985613  0.38027619  1
  O  O366  1  0.36174355  0.62476793  0.87845822  1
  O  O367  1  0.86971213  0.11978776  0.37103604  1
  O  O368  1  0.86046840  0.11976016  0.87362797  1
  O  O369  1  0.85824043  0.62784225  0.37732330  1
  O  O370  1  0.89231116  0.60877400  0.85190129  1
  O  O371  1  0.13034579  0.37998029  0.13464759  1
  O  O372  1  0.13398325  0.38803804  0.63004903  1
  O  O373  1  0.12264728  0.87530007  0.12832726  1
  O  O374  1  0.13341917  0.88382457  0.62931842  1
  O  O375  1  0.63436443  0.37979135  0.12394342  1
  O  O376  1  0.62958767  0.37558543  0.63034812  1
  O  O377  1  0.63065101  0.88049388  0.13559894  1
  O  O378  1  0.63432332  0.87910324  0.62968804  1
  O  O379  1  0.11985687  0.25578116  0.25718621  1
  O  O380  1  0.13218297  0.26352452  0.74732949  1
  O  O381  1  0.12385960  0.74241153  0.26769730  1
  O  O382  1  0.11591313  0.75713297  0.75630614  1
  O  O383  1  0.61775376  0.24117350  0.26113951  1
  O  O384  1  0.61661727  0.25944783  0.75381472  1
  O  O385  1  0.62543348  0.75845669  0.25693178  1
  O  O386  1  0.63765847  0.76191871  0.74955520  1
  O  O387  1  0.38573152  0.24901288  0.24953187  1
  O  O388  1  0.38795174  0.24842169  0.75562333  1
  O  O389  1  0.38307324  0.74252128  0.25612517  1
  O  O390  1  0.36407079  0.73885382  0.75392173  1
  O  O391  1  0.88305378  0.24694820  0.24969649  1
  O  O392  1  0.84613769  0.23273484  0.73486217  1
  O  O393  1  0.88459800  0.74833548  0.24534882  1
  O  O394  1  0.88731511  0.74456444  0.74598656  1
  O  O395  1  0.36693195  0.50022115  0.48774173  1
  O  O396  1  0.38074199  0.48763006  0.99950458  1
  O  O397  1  0.37871434  0.99520046  0.48910946  1
  O  O398  1  0.38722983  1.00561344  0.99325274  1
  O  O399  1  0.87833883  0.48673538  0.50099345  1
  O  O400  1  0.89300529  0.49444396  0.99717378  1
  O  O401  1  0.88137981  0.99163086  0.49729450  1
  O  O402  1  0.88427587  1.00638931  0.99020236  1
  O  O403  1  0.11805588  0.01468639  -0.00245276  1
  O  O404  1  0.12091042  0.00784757  0.50394669  1
  O  O405  1  0.12067636  0.50532330  0.00575308  1
  O  O406  1  0.12906370  0.50725182  0.50831468  1
  O  O407  1  0.61342180  0.00581336  0.00478928  1
  O  O408  1  0.61933654  0.00868122  0.50251339  1
  O  O409  1  0.61260191  0.49186722  0.00120218  1
  O  O410  1  0.62662943  0.51425470  0.49604315  1
  O  O411  1  0.36644707  0.37110802  0.11498805  1
  O  O412  1  0.36900857  0.38400769  0.62134806  1
  O  O413  1  0.37676772  0.88332076  0.11532892  1
  O  O414  1  0.36816503  0.87550487  0.62010679  1
  O  O415  1  0.85652840  0.37512016  0.11823408  1
  O  O416  1  0.86777681  0.37438277  0.61430152  1
  O  O417  1  0.87914812  0.88133085  0.12579153  1
  O  O418  1  0.86120154  0.88161970  0.61872874  1
  O  O419  1  0.12544624  0.13332031  0.38786846  1
  O  O420  1  0.13564711  0.12596429  0.88662897  1
  O  O421  1  0.14336903  0.63397832  0.38307590  1
  O  O422  1  0.12675775  0.63707393  0.87715633  1
  O  O423  1  0.62933949  0.12774468  0.38145464  1
  O  O424  1  0.62997452  0.13626655  0.87650888  1
  O  O425  1  0.63140009  0.63228269  0.38481527  1
  O  O426  1  0.62198266  0.62688658  0.88375280  1
