# generated using pymatgen
data_V85Zn86O256
_symmetry_space_group_name_H-M   'P 1'
_cell_length_a   16.93803283
_cell_length_b   16.95548476
_cell_length_c   16.95697438
_cell_angle_alpha   90.04247138
_cell_angle_beta   89.98747113
_cell_angle_gamma   90.04783355
_symmetry_Int_Tables_number   1
_chemical_formula_structural   V85Zn86O256
_chemical_formula_sum   'V85 Zn86 O256'
_cell_volume   4869.91368987
_cell_formula_units_Z   1
loop_
 _symmetry_equiv_pos_site_id
 _symmetry_equiv_pos_as_xyz
  1  'x, y, z'
loop_
 _atom_site_type_symbol
 _atom_site_label
 _atom_site_symmetry_multiplicity
 _atom_site_fract_x
 _atom_site_fract_y
 _atom_site_fract_z
 _atom_site_occupancy
  V  V0  1  0.88624077  0.00394147  0.37503810  1
  V  V1  1  0.62795638  0.24981313  0.88680388  1
  V  V2  1  0.01268245  0.62127133  0.12118440  1
  V  V3  1  0.12939025  0.37842226  0.23618399  1
  V  V4  1  0.63096104  -0.00751692  0.62476999  1
  V  V5  1  0.37258467  0.36128320  0.00903399  1
  V  V6  1  0.86621627  0.62710798  0.25350008  1
  V  V7  1  0.00181951  0.87772056  0.38266196  1
  V  V8  1  0.13543355  0.62744320  0.50079112  1
  V  V9  1  0.24392612  0.87668305  0.12167726  1
  V  V10  1  0.62402766  0.74918535  0.87353574  1
  V  V11  1  0.87413155  0.87399852  0.00548765  1
  V  V12  1  0.36353843  0.11775851  0.74586952  1
  V  V13  1  -0.00023207  0.38215071  0.37168937  1
  V  V14  1  0.75574010  0.00296194  0.24733133  1
  V  V15  1  0.62184006  0.10626516  0.00445297  1
  V  V16  1  0.12277489  0.25510677  0.37747708  1
  V  V17  1  0.50164870  0.49704619  0.49974186  1
  V  V18  1  -0.01532385  0.24535354  0.24747366  1
  V  V19  1  0.12405646  0.87811373  0.24893649  1
  V  V20  1  0.62373447  0.37673681  0.24895135  1
  V  V21  1  0.12031229  0.10807683  0.49588557  1
  V  V22  1  0.37500520  0.88261517  -0.00162263  1
  V  V23  1  0.75662408  0.37956480  0.11317596  1
  V  V24  1  0.62925851  0.87252195  0.74763887  1
  V  V25  1  0.36459897  0.74733301  0.61678167  1
  V  V26  1  0.25759045  0.50168397  0.74817984  1
  V  V27  1  0.87588377  0.37774625  0.50052188  1
  V  V28  1  0.00147207  0.11443053  0.61796387  1
  V  V29  1  0.37469272  0.36736178  0.49799880  1
  V  V30  1  0.75112873  0.13032943  0.87840877  1
  V  V31  1  0.12465848  0.49951051  0.62547869  1
  V  V32  1  0.12244093  0.74187087  0.87728261  1
  V  V33  1  0.75101043  0.37334648  0.62721414  1
  V  V34  1  0.75806023  0.12626942  0.36866586  1
  V  V35  1  0.24593631  0.24073908  0.00585440  1
  V  V36  1  0.49816502  0.62482882  0.62821062  1
  V  V37  1  0.61836898  0.62549936  0.00362819  1
  V  V38  1  0.49078564  0.50350279  -0.00070326  1
  V  V39  1  0.87512994  0.88294456  0.50992664  1
  V  V40  1  0.88453901  0.49506231  0.89014354  1
  V  V41  1  0.00300193  0.01230704  0.00893042  1
  V  V42  1  0.37474670  0.49990217  0.37062216  1
  V  V43  1  0.75259821  0.25016190  0.50048233  1
  V  V44  1  0.88456839  0.25282686  0.62986200  1
  V  V45  1  0.24548235  0.89513378  0.62291480  1
  V  V46  1  0.49084894  0.74517934  0.75112886  1
  V  V47  1  0.24895931  0.37269945  0.62620316  1
  V  V48  1  0.25138550  0.12585458  0.37074777  1
  V  V49  1  0.11408757  0.37046783  0.75073927  1
  V  V50  1  0.61505906  0.50479856  0.12692907  1
  V  V51  1  0.50142850  0.24726611  0.75082608  1
  V  V52  1  0.87025351  0.75402918  0.62597419  1
  V  V53  1  0.63054663  0.12290771  0.50253276  1
  V  V54  1  0.12109510  0.23914793  0.86878230  1
  V  V55  1  0.74375737  0.74874300  0.00360482  1
  V  V56  1  0.75385001  0.75126860  0.49368178  1
  V  V57  1  -0.00009185  0.87222385  0.87724022  1
  V  V58  1  0.86931743  0.24227613  0.11423405  1
  V  V59  1  0.25745114  0.62459198  0.87159051  1
  V  V60  1  0.37437332  0.12962517  0.23635583  1
  V  V61  1  0.13506918  0.75009521  0.37944734  1
  V  V62  1  0.61756332  0.75188635  0.37822627  1
  V  V63  1  0.00052268  0.62708310  0.62342868  1
  V  V64  1  0.74389446  0.87770883  0.12919648  1
  V  V65  1  0.36256792  -0.00407064  0.86558183  1
  V  V66  1  0.37605436  0.24776214  0.62446040  1
  V  V67  1  0.38909632  0.74975133  0.12301305  1
  V  V68  1  0.61765454  0.88226974  0.25972656  1
  V  V69  1  0.49974645  0.88372964  0.87235095  1
  V  V70  1  0.62442163  0.24815825  0.37156229  1
  V  V71  1  -0.00134692  0.74861604  0.25227390  1
  V  V72  1  0.86436159  0.50712250  0.37733687  1
  V  V73  1  0.88352249  0.13043000  0.75136074  1
  V  V74  1  0.63152640  0.62347656  0.49509732  1
  V  V75  1  0.87460061  0.00181703  0.87867577  1
  V  V76  1  0.75108500  0.49918697  0.75281119  1
  V  V77  1  0.75062004  0.62453862  0.87720038  1
  V  V78  1  0.87555754  0.62425283  0.75084270  1
  V  V79  1  0.50276125  0.11892013  0.62747895  1
  V  V80  1  0.50064718  0.24855713  0.23037537  1
  V  V81  1  0.24634769  0.74352430  0.00185232  1
  V  V82  1  0.75690745  -0.00560852  0.74625769  1
  V  V83  1  0.49401748  0.37227649  0.87270728  1
  V  V84  1  0.62669474  0.37133622  0.75072921  1
  Zn  Zn85  1  0.25703076  0.62708214  0.37537942  1
  Zn  Zn86  1  0.50120130  0.75003633  0.24883248  1
  Zn  Zn87  1  0.24333308  0.11820133  0.87451305  1
  Zn  Zn88  1  0.25182008  0.00147242  0.24683836  1
  Zn  Zn89  1  0.00140798  0.74905838  0.75034696  1
  Zn  Zn90  1  0.49814215  0.36810048  0.37329631  1
  Zn  Zn91  1  0.50253512  0.09787247  0.11847853  1
  Zn  Zn92  1  0.38617395  -0.00227722  0.37309846  1
  Zn  Zn93  1  0.06087824  0.46369562  0.04884863  1
  Zn  Zn94  1  0.37675797  0.87367324  0.49127557  1
  Zn  Zn95  1  0.12841557  0.02603203  0.11386903  1
  Zn  Zn96  1  0.23944753  0.50750378  0.24511702  1
  Zn  Zn97  1  0.87358214  0.74657989  0.12734701  1
  Zn  Zn98  1  0.13649386  0.88163295  0.74995103  1
  Zn  Zn99  1  0.50495903  -0.01340950  0.49093063  1
  Zn  Zn100  1  0.62679110  0.50008692  0.62572736  1
  Zn  Zn101  1  0.24712779  0.24882689  0.49953980  1
  Zn  Zn102  1  0.00008665  0.37093968  0.89166249  1
  Zn  Zn103  1  0.00050583  0.50237712  0.49929924  1
  Zn  Zn104  1  0.37741223  0.50268881  0.86943538  1
  Zn  Zn105  1  0.74298168  0.50644808  0.25293161  1
  Zn  Zn106  1  0.37757968  0.62556143  0.24015807  1
  Zn  Zn107  1  0.18270754  0.19399908  0.18901718  1
  Zn  Zn108  1  0.18320667  0.18490168  0.68247312  1
  Zn  Zn109  1  0.19350426  0.69085679  0.19302832  1
  Zn  Zn110  1  0.18365770  0.68859217  0.69516001  1
  Zn  Zn111  1  0.69277903  0.18842792  0.18151725  1
  Zn  Zn112  1  0.69268901  0.18545857  0.69183690  1
  Zn  Zn113  1  0.68189848  0.69050158  0.18918890  1
  Zn  Zn114  1  0.68768147  0.68730317  0.68349256  1
  Zn  Zn115  1  0.31335014  0.30958546  0.30817131  1
  Zn  Zn116  1  0.30695268  0.30587126  0.81124438  1
  Zn  Zn117  1  0.31435722  0.81487087  0.30876326  1
  Zn  Zn118  1  0.30956134  0.81127315  0.80622503  1
  Zn  Zn119  1  0.80827130  0.32099973  0.31065469  1
  Zn  Zn120  1  0.81644016  0.31348053  0.81751091  1
  Zn  Zn121  1  0.81231692  0.81503635  0.31775393  1
  Zn  Zn122  1  0.81716680  0.81289370  0.81433026  1
  Zn  Zn123  1  0.18960220  0.44041517  0.43664645  1
  Zn  Zn124  1  0.19274878  0.42814391  0.93033037  1
  Zn  Zn125  1  0.20378463  0.93268631  0.43428885  1
  Zn  Zn126  1  0.18255622  0.93495875  0.93844793  1
  Zn  Zn127  1  0.68660741  0.43578094  0.43766738  1
  Zn  Zn128  1  0.68335959  0.44049445  0.93762574  1
  Zn  Zn129  1  0.69585736  0.93817605  0.43818141  1
  Zn  Zn130  1  0.69127578  0.93526416  0.93281454  1
  Zn  Zn131  1  0.31318369  0.06041156  0.06005885  1
  Zn  Zn132  1  0.31179018  0.06112049  0.55389404  1
  Zn  Zn133  1  0.23987273  0.54331672  0.05944197  1
  Zn  Zn134  1  0.31662249  0.56013024  0.56250520  1
  Zn  Zn135  1  0.80877960  0.06286698  0.06170908  1
  Zn  Zn136  1  0.81669504  0.06323310  0.56315767  1
  Zn  Zn137  1  0.81173488  0.56498056  0.07051536  1
  Zn  Zn138  1  0.81192018  0.56371045  0.56395776  1
  Zn  Zn139  1  0.39972542  0.46543528  0.15813674  1
  Zn  Zn140  1  0.43833741  0.43566870  0.68505846  1
  Zn  Zn141  1  0.43059992  0.94101990  0.19252875  1
  Zn  Zn142  1  0.43723093  0.93170674  0.67995350  1
  Zn  Zn143  1  0.93475123  0.44060772  0.18998434  1
  Zn  Zn144  1  0.93767080  0.44083650  0.69091291  1
  Zn  Zn145  1  0.93580329  0.93698164  0.18933424  1
  Zn  Zn146  1  0.96419345  0.94488774  0.69767380  1
  Zn  Zn147  1  0.07311166  0.08151717  0.28169579  1
  Zn  Zn148  1  0.06036280  0.05604733  0.80996945  1
  Zn  Zn149  1  0.06070501  0.56305685  0.31103784  1
  Zn  Zn150  1  0.06606361  0.56143644  0.81277312  1
  Zn  Zn151  1  0.56690661  0.06672849  0.30558945  1
  Zn  Zn152  1  0.56423365  0.06142718  0.81125552  1
  Zn  Zn153  1  0.55210067  0.56730980  0.31215840  1
  Zn  Zn154  1  0.56354415  0.56149486  0.81349287  1
  Zn  Zn155  1  0.45465842  0.15431907  0.42377997  1
  Zn  Zn156  1  0.43790815  0.17981419  0.93667470  1
  Zn  Zn157  1  0.44118961  0.68551710  0.43972315  1
  Zn  Zn158  1  0.43463812  0.69167513  0.94077189  1
  Zn  Zn159  1  0.93997175  0.19122189  0.43607635  1
  Zn  Zn160  1  0.93972748  0.19116983  0.93981921  1
  Zn  Zn161  1  0.94167643  0.68915489  0.43854359  1
  Zn  Zn162  1  0.93494269  0.68464564  0.94249482  1
  Zn  Zn163  1  0.05931669  0.29230824  0.06050488  1
  Zn  Zn164  1  0.06031589  0.31298612  0.56019745  1
  Zn  Zn165  1  0.06133441  0.80833652  0.06337219  1
  Zn  Zn166  1  0.06499587  0.81376379  0.56264679  1
  Zn  Zn167  1  0.56593777  0.31843348  0.05967975  1
  Zn  Zn168  1  0.56355912  0.30950114  0.56262067  1
  Zn  Zn169  1  0.54368632  0.88652588  0.07962201  1
  Zn  Zn170  1  0.56176683  0.81127570  0.56259635  1
  O  O171  1  0.10503038  0.11671226  0.17389945  1
  O  O172  1  0.11619422  0.12798650  0.60685152  1
  O  O173  1  0.11284219  0.63127643  0.13366618  1
  O  O174  1  0.11814477  0.62335311  0.62010137  1
  O  O175  1  0.63122586  0.12384283  0.10623789  1
  O  O176  1  0.62268210  0.11473621  0.62620498  1
  O  O177  1  0.62784489  0.61233708  0.12045605  1
  O  O178  1  0.61597832  0.62381599  0.61523214  1
  O  O179  1  0.37730685  0.37722500  0.38322333  1
  O  O180  1  0.38782701  0.36991820  0.86998992  1
  O  O181  1  0.35676107  0.88742701  0.37845407  1
  O  O182  1  0.37896984  0.87897510  0.87570138  1
  O  O183  1  0.87981384  0.38502999  0.37969800  1
  O  O184  1  0.87959042  0.39044247  0.87358281  1
  O  O185  1  0.88354064  0.88205429  0.38492269  1
  O  O186  1  0.87173739  0.88066920  0.89343704  1
  O  O187  1  0.24250320  0.01908939  0.36785840  1
  O  O188  1  0.25758833  -0.00272353  0.87281182  1
  O  O189  1  0.26152042  0.50033114  0.36981746  1
  O  O190  1  0.25411437  0.50661746  0.86439080  1
  O  O191  1  0.76030312  0.00895445  0.36844969  1
  O  O192  1  0.75709232  0.00738649  0.86772080  1
  O  O193  1  0.76022787  0.49776315  0.37396474  1
  O  O194  1  0.75624076  0.50434484  0.86983516  1
  O  O195  1  0.29351669  0.50507527  0.14451033  1
  O  O196  1  0.24468783  0.49430319  0.62957146  1
  O  O197  1  0.24233135  0.99268489  0.12407247  1
  O  O198  1  0.24925570  0.99457963  0.62556062  1
  O  O199  1  0.73965870  0.49280889  0.12873156  1
  O  O200  1  0.75063224  0.49298305  0.63556578  1
  O  O201  1  0.75569970  0.99006794  0.13454450  1
  O  O202  1  0.74462153  1.00654202  0.63581361  1
  O  O203  1  0.00441328  0.37197603  0.25702982  1
  O  O204  1  0.01230155  0.37903207  0.75260684  1
  O  O205  1  0.00304130  0.86744583  0.25916170  1
  O  O206  1  -0.03313236  0.85990355  0.77766720  1
  O  O207  1  0.51482492  0.36193899  0.25385944  1
  O  O208  1  0.50725986  0.36978976  0.75450924  1
  O  O209  1  0.51538935  0.87556755  0.25434463  1
  O  O210  1  0.50639705  0.86421773  0.75374807  1
  O  O211  1  0.49707903  0.13235751  0.23816863  1
  O  O212  1  0.49678348  0.12781687  0.74079016  1
  O  O213  1  0.49154799  0.63668903  0.25175284  1
  O  O214  1  0.50837579  0.63209788  0.74107125  1
  O  O215  1  0.98033760  0.14962520  0.27232482  1
  O  O216  1  0.98771098  0.12422428  0.73899990  1
  O  O217  1  0.99198748  0.63371708  0.24651368  1
  O  O218  1  0.99579424  0.62609161  0.73938583  1
  O  O219  1  0.36659642  0.25504346  -0.01161908  1
  O  O220  1  0.37682234  0.26001736  0.50394850  1
  O  O221  1  0.36719573  0.76374196  0.00466221  1
  O  O222  1  0.37808769  0.74766390  0.51488397  1
  O  O223  1  0.87712022  0.25119418  0.01488146  1
  O  O224  1  0.87045114  0.25776760  0.50741776  1
  O  O225  1  0.86070752  0.75655576  0.00132906  1
  O  O226  1  0.87059234  0.75612978  0.50547992  1
  O  O227  1  0.12377410  0.25150375  0.48572321  1
  O  O228  1  0.13781801  0.24749768  0.98529762  1
  O  O229  1  0.11797077  0.73939496  0.49064016  1
  O  O230  1  0.13519113  0.75640209  0.99055036  1
  O  O231  1  0.63368500  0.24550869  0.49230515  1
  O  O232  1  0.62504536  0.24656449  0.98828005  1
  O  O233  1  0.63439689  0.74453815  0.49767519  1
  O  O234  1  0.63532753  0.74578100  0.99238161  1
  O  O235  1  0.51117395  0.24708221  0.13052241  1
  O  O236  1  0.49636942  0.24381995  0.63356032  1
  O  O237  1  0.48850312  0.77466527  0.11962446  1
  O  O238  1  0.49467434  0.74118201  0.63318567  1
  O  O239  1  0.98322122  0.25001936  0.13861847  1
  O  O240  1  0.98780158  0.24312664  0.61966630  1
  O  O241  1  0.99697196  0.74645392  0.13965662  1
  O  O242  1  0.98968292  0.74404108  0.62644748  1
  O  O243  1  0.00048128  0.26629443  0.36963779  1
  O  O244  1  0.01603538  0.25048486  0.87871588  1
  O  O245  1  0.00594709  0.75854869  0.36748241  1
  O  O246  1  0.00709521  0.75149862  0.88037789  1
  O  O247  1  0.51723954  0.24254765  0.37073250  1
  O  O248  1  0.50811445  0.25345425  0.86934641  1
  O  O249  1  0.51490472  0.75205499  0.38035858  1
  O  O250  1  0.50452542  0.75460734  0.86665385  1
  O  O251  1  0.23578799  0.12904567  0.49156231  1
  O  O252  1  0.25794433  0.13629065  0.99265196  1
  O  O253  1  0.23824098  0.61964532  0.49953684  1
  O  O254  1  0.25324886  0.63887080  0.99180067  1
  O  O255  1  0.74717001  0.13195845  0.49477077  1
  O  O256  1  0.73949461  0.11847101  0.98537046  1
  O  O257  1  0.74148979  0.63400828  0.50672244  1
  O  O258  1  0.74318449  0.63198429  0.99862025  1
  O  O259  1  0.26659342  0.35889068  -0.00876771  1
  O  O260  1  0.25823199  0.37372925  0.50736548  1
  O  O261  1  0.25381827  0.86774823  0.00328723  1
  O  O262  1  0.25668556  0.87645995  0.51741530  1
  O  O263  1  0.74306173  0.37980859  0.01477606  1
  O  O264  1  0.75563072  0.36999690  0.50701200  1
  O  O265  1  0.75164597  0.86961876  0.00944172  1
  O  O266  1  0.76348729  0.86590257  0.50044721  1
  O  O267  1  0.12370389  0.48398640  0.25422499  1
  O  O268  1  0.13340255  0.49098702  0.74412508  1
  O  O269  1  0.12414466  0.98123961  0.25664380  1
  O  O270  1  0.07135943  0.97278041  0.73936139  1
  O  O271  1  0.61968209  0.49443451  0.24427201  1
  O  O272  1  0.63721510  0.49321867  0.75094805  1
  O  O273  1  0.63807118  0.98855750  0.25926293  1
  O  O274  1  0.63580117  0.99404421  0.74484216  1
  O  O275  1  0.37081921  0.01448817  0.25487559  1
  O  O276  1  0.38136732  0.00626941  0.75396305  1
  O  O277  1  0.39326114  0.49643861  0.26929975  1
  O  O278  1  0.36247756  0.49440654  0.74809850  1
  O  O279  1  0.86444498  -0.00479267  0.25962996  1
  O  O280  1  0.87226786  0.00805835  0.75752624  1
  O  O281  1  0.87086782  0.50994631  0.26010222  1
  O  O282  1  0.86490157  0.50542484  0.75671264  1
  O  O283  1  0.11541330  0.37242007  0.37403282  1
  O  O284  1  0.12472869  0.36261644  0.86417198  1
  O  O285  1  0.12045977  0.86800770  0.37234145  1
  O  O286  1  0.11322012  0.86636499  0.87353100  1
  O  O287  1  0.62607182  0.36498546  0.36805026  1
  O  O288  1  0.61662958  0.36763370  0.87110180  1
  O  O289  1  0.63446171  0.86907821  0.36631317  1
  O  O290  1  0.61778788  0.86984510  0.86830968  1
  O  O291  1  0.37929187  0.12103774  0.13271103  1
  O  O292  1  0.38381273  0.12766642  0.62882011  1
  O  O293  1  0.38360411  0.65161735  0.11567249  1
  O  O294  1  0.38927318  0.63129849  0.62015596  1
  O  O295  1  0.85826478  0.14365478  0.12630655  1
  O  O296  1  0.87769746  0.13569090  0.63134561  1
  O  O297  1  0.88238854  0.62795462  0.13783450  1
  O  O298  1  0.88248155  0.63176997  0.62952527  1
  O  O299  1  0.24052229  0.24609635  0.10522724  1
  O  O300  1  0.25754946  0.25437802  0.62183625  1
  O  O301  1  0.25555265  0.75808432  0.11614138  1
  O  O302  1  0.26621396  0.73658137  0.63006078  1
  O  O303  1  0.75967243  0.26740115  0.12967442  1
  O  O304  1  0.75944423  0.25476229  0.62166073  1
  O  O305  1  0.74967030  0.75688693  0.11825183  1
  O  O306  1  0.76421343  0.74707229  0.61653838  1
  O  O307  1  0.23821229  0.24431447  0.37442833  1
  O  O308  1  0.23756610  0.24308143  0.87814598  1
  O  O309  1  0.23768092  0.74898410  0.37212506  1
  O  O310  1  0.24449789  0.74413023  0.87871240  1
  O  O311  1  0.74528341  0.24529690  0.37715709  1
  O  O312  1  0.74208650  0.24109310  0.86913958  1
  O  O313  1  0.74315179  0.75194173  0.38867597  1
  O  O314  1  0.74555620  0.74420898  0.88164701  1
  O  O315  1  -0.00577049  0.11072468  0.00259443  1
  O  O316  1  0.01370394  0.13031193  0.50084100  1
  O  O317  1  -0.00238059  0.63376283  0.02262481  1
  O  O318  1  0.00541340  0.62400775  0.51239964  1
  O  O319  1  0.51745580  0.12490527  -0.00084505  1
  O  O320  1  0.51429196  0.13448834  0.52082992  1
  O  O321  1  0.50402434  0.61338613  -0.00965757  1
  O  O322  1  0.50938301  0.61540456  0.50782266  1
  O  O323  1  0.49471414  0.38004254  0.50012028  1
  O  O324  1  0.49309690  0.37549863  0.98898824  1
  O  O325  1  0.49242320  0.87637569  0.50869311  1
  O  O326  1  0.48715080  0.86834271  0.98216863  1
  O  O327  1  0.99195630  0.37923167  0.49195313  1
  O  O328  1  1.00979396  0.37602721  1.00417152  1
  O  O329  1  0.99469399  0.87136863  0.48788244  1
  O  O330  1  0.98862471  0.87267899  0.99482170  1
  O  O331  1  0.49892100  0.49476496  0.39040054  1
  O  O332  1  0.49912403  0.48944772  0.87807407  1
  O  O333  1  0.49664756  1.04265557  0.38877794  1
  O  O334  1  0.49284978  0.98692730  0.86581332  1
  O  O335  1  0.99076147  0.49267594  0.37581230  1
  O  O336  1  0.98742281  0.50327322  0.87460109  1
  O  O337  1  0.98888801  0.99421091  0.36559814  1
  O  O338  1  0.99167126  0.99072328  0.89090304  1
  O  O339  1  -0.00106295  -0.00893247  0.11058852  1
  O  O340  1  -0.02076342  0.01784357  0.60926418  1
  O  O341  1  -0.00000487  0.51594679  0.13160798  1
  O  O342  1  0.00605818  0.50931874  0.62520070  1
  O  O343  1  0.50179626  -0.01583645  0.11878847  1
  O  O344  1  0.51274288  0.00657594  0.62801451  1
  O  O345  1  0.50317827  0.49465914  0.11156864  1
  O  O346  1  0.50207576  0.50492008  0.61642612  1
  O  O347  1  0.23148186  0.37058970  0.25169033  1
  O  O348  1  0.24262682  0.37986105  0.74284402  1
  O  O349  1  0.24048788  0.87505129  0.23727794  1
  O  O350  1  0.25102407  0.87288038  0.73179255  1
  O  O351  1  0.73538794  0.38087229  0.24317289  1
  O  O352  1  0.74700092  0.38150356  0.74836977  1
  O  O353  1  0.74656191  0.88113711  0.24588770  1
  O  O354  1  0.74925721  0.88765576  0.75667825  1
  O  O355  1  0.25934336  0.13211581  0.25396600  1
  O  O356  1  0.26118494  0.12591932  0.74723658  1
  O  O357  1  0.26052362  0.62560294  0.25672036  1
  O  O358  1  0.24527867  0.61338233  0.75792780  1
  O  O359  1  0.74507352  0.11655290  0.25793132  1
  O  O360  1  0.75966329  0.11587477  0.75954339  1
  O  O361  1  0.76184819  0.62733247  0.24703305  1
  O  O362  1  0.75287469  0.61665670  0.75465903  1
  O  O363  1  0.36115727  0.13288269  0.36354518  1
  O  O364  1  0.37619485  0.11173832  0.86292091  1
  O  O365  1  0.37523850  0.61176936  0.38431650  1
  O  O366  1  0.36201124  0.62565965  0.87690392  1
  O  O367  1  0.86474344  0.11936601  0.38505547  1
  O  O368  1  0.87014691  0.12495694  0.86977020  1
  O  O369  1  0.88256432  0.61712513  0.36897194  1
  O  O370  1  0.86980128  0.61769406  0.87015664  1
  O  O371  1  0.11704590  0.36989606  0.13693136  1
  O  O372  1  0.12876102  0.37750541  0.63027925  1
  O  O373  1  0.13205037  0.87086217  0.13211390  1
  O  O374  1  0.14276002  0.86805452  0.62436225  1
  O  O375  1  0.63036014  0.38609191  0.13042490  1
  O  O376  1  0.63267043  0.37464750  0.63257977  1
  O  O377  1  0.63751767  0.87081553  0.14423850  1
  O  O378  1  0.62638637  0.88566463  0.63117661  1
  O  O379  1  0.10954593  0.26324132  0.26101503  1
  O  O380  1  0.12932547  0.25623441  0.75863184  1
  O  O381  1  0.11746875  0.75871970  0.25891981  1
  O  O382  1  0.11929114  0.75768008  0.76129622  1
  O  O383  1  0.62345054  0.25387856  0.25437816  1
  O  O384  1  0.62124353  0.25297644  0.75816715  1
  O  O385  1  0.62651989  0.76132922  0.26194063  1
  O  O386  1  0.62164933  0.75491413  0.75369852  1
  O  O387  1  0.39051195  0.24383619  0.25188194  1
  O  O388  1  0.38146235  0.23923157  0.74480791  1
  O  O389  1  0.37769861  0.75789592  0.23223509  1
  O  O390  1  0.38739442  0.74937752  0.74205811  1
  O  O391  1  0.88172758  0.26422345  0.24326474  1
  O  O392  1  0.87013082  0.24284076  0.74202954  1
  O  O393  1  0.88183371  0.74516369  0.25453083  1
  O  O394  1  0.87064426  0.73970584  0.74198214  1
  O  O395  1  0.38334698  0.48723524  0.49572244  1
  O  O396  1  0.38469133  0.47910780  0.99070983  1
  O  O397  1  0.38456459  1.00327599  0.49414116  1
  O  O398  1  0.36989831  0.98828434  0.98628158  1
  O  O399  1  0.87581961  0.49636369  0.49459254  1
  O  O400  1  0.86985696  0.50762518  0.98729380  1
  O  O401  1  0.86733931  0.99096123  0.48952778  1
  O  O402  1  0.87999010  0.99278956  0.99876297  1
  O  O403  1  0.10902960  -0.00087344  0.00068924  1
  O  O404  1  0.12458340  0.01085072  0.48893585  1
  O  O405  1  0.15313336  0.50306246  0.00351022  1
  O  O406  1  0.12222702  0.50744330  0.50764671  1
  O  O407  1  0.62531509  0.00688907  -0.00612769  1
  O  O408  1  0.62978751  0.00517799  0.50893074  1
  O  O409  1  0.61169454  0.50341825  0.00641842  1
  O  O410  1  0.62044549  0.50569472  0.50228735  1
  O  O411  1  0.38411935  0.36050155  0.10658739  1
  O  O412  1  0.37056301  0.36757480  0.61847790  1
  O  O413  1  0.36054843  0.87571184  0.11507904  1
  O  O414  1  0.36367077  0.86018298  0.62603938  1
  O  O415  1  0.85959641  0.37755335  0.12825840  1
  O  O416  1  0.87206482  0.37003888  0.62314135  1
  O  O417  1  0.86538155  0.87068882  0.11822922  1
  O  O418  1  0.88871330  0.86856040  0.61544957  1
  O  O419  1  0.12645695  0.13564362  0.37932073  1
  O  O420  1  0.12476649  0.13343344  0.86192444  1
  O  O421  1  0.12278906  0.63223536  0.38414452  1
  O  O422  1  0.13415227  0.63616549  0.87043537  1
  O  O423  1  0.64097727  0.13220248  0.37995209  1
  O  O424  1  0.63168528  0.13013891  0.87997583  1
  O  O425  1  0.62292620  0.63261284  0.38842966  1
  O  O426  1  0.63199059  0.62853849  0.88251632  1
