# generated using pymatgen
data_V85Zn86O256
_symmetry_space_group_name_H-M   'P 1'
_cell_length_a   16.94310318
_cell_length_b   16.94568310
_cell_length_c   16.93954008
_cell_angle_alpha   89.99034631
_cell_angle_beta   89.92809231
_cell_angle_gamma   90.06919431
_symmetry_Int_Tables_number   1
_chemical_formula_structural   V85Zn86O256
_chemical_formula_sum   'V85 Zn86 O256'
_cell_volume   4863.54552898
_cell_formula_units_Z   1
loop_
 _symmetry_equiv_pos_site_id
 _symmetry_equiv_pos_as_xyz
  1  'x, y, z'
loop_
 _atom_site_type_symbol
 _atom_site_label
 _atom_site_symmetry_multiplicity
 _atom_site_fract_x
 _atom_site_fract_y
 _atom_site_fract_z
 _atom_site_occupancy
  V  V0  1  0.12766511  0.49883556  0.13111719  1
  V  V1  1  0.24986060  0.75556014  0.50125627  1
  V  V2  1  0.75055369  0.50333059  0.25437699  1
  V  V3  1  0.37642760  -0.00431644  0.87983653  1
  V  V4  1  0.36797345  0.51006010  0.37878039  1
  V  V5  1  -0.00328458  0.24988369  0.74790773  1
  V  V6  1  0.37351524  0.25310958  0.62608640  1
  V  V7  1  0.87581309  -0.00209912  0.87058038  1
  V  V8  1  0.12586361  0.24911932  0.87410143  1
  V  V9  1  0.00149413  -0.00818099  0.50150002  1
  V  V10  1  0.74731609  0.36883237  0.62403919  1
  V  V11  1  0.24984541  0.50111305  0.74457605  1
  V  V12  1  0.50407359  0.75062465  0.24746218  1
  V  V13  1  0.37675130  0.75194416  0.11158688  1
  V  V14  1  0.37285586  0.37531699  0.00206268  1
  V  V15  1  0.01914915  0.64144416  0.63652268  1
  V  V16  1  0.24056031  0.62463315  0.87943219  1
  V  V17  1  0.62361973  0.24422167  0.87485791  1
  V  V18  1  0.50033114  0.62562294  0.12486174  1
  V  V19  1  0.25296487  0.87535081  0.11346878  1
  V  V20  1  0.74292071  0.87156944  0.62290975  1
  V  V21  1  0.87578078  -0.00333906  0.37364139  1
  V  V22  1  0.38248735  0.37807996  0.49640580  1
  V  V23  1  0.49953106  0.12013068  0.60829411  1
  V  V24  1  0.24811280  0.25197838  0.49801434  1
  V  V25  1  0.00401861  0.25586759  0.24973905  1
  V  V26  1  0.13668416  -0.00789659  0.63749796  1
  V  V27  1  0.38540966  0.23808778  0.12402682  1
  V  V28  1  0.00686155  0.37712276  0.37347300  1
  V  V29  1  0.87321832  0.88087097  0.00076644  1
  V  V30  1  0.00130842  0.85601523  0.86804307  1
  V  V31  1  0.37682076  0.50047238  0.87418405  1
  V  V32  1  0.25181119  0.37118486  0.14238629  1
  V  V33  1  0.61521072  0.37897725  0.26902821  1
  V  V34  1  0.62653483  0.74906809  0.38820363  1
  V  V35  1  0.74986410  0.37980076  0.12682702  1
  V  V36  1  0.87128231  0.74651817  0.62129390  1
  V  V37  1  0.12339872  0.12316296  0.49842483  1
  V  V38  1  0.50553777  0.37674209  0.86913506  1
  V  V39  1  0.13261360  0.74257749  0.36839614  1
  V  V40  1  0.12467999  0.00047158  0.11615346  1
  V  V41  1  0.00548298  0.49984300  0.51184617  1
  V  V42  1  0.74162671  0.23501373  0.48428833  1
  V  V43  1  0.00078146  0.37637225  0.87433044  1
  V  V44  1  0.62529362  0.49745590  0.62781747  1
  V  V45  1  0.12066630  0.86886035  0.24223310  1
  V  V46  1  0.36680903  0.62846875  0.25242043  1
  V  V47  1  0.50448318  0.25294228  0.74549758  1
  V  V48  1  0.74479522  0.25085769  -0.00241788  1
  V  V49  1  0.74734707  0.62943147  0.38951181  1
  V  V50  1  0.62477498  0.49999604  0.12613936  1
  V  V51  1  0.50974956  0.63167247  0.62058500  1
  V  V52  1  0.63075648  0.75574220  0.87013620  1
  V  V53  1  0.00839773  0.50674282  0.00098332  1
  V  V54  1  0.51236642  0.01809645  0.00472716  1
  V  V55  1  0.50626774  0.76192176  0.74692536  1
  V  V56  1  0.38014605  0.62619903  0.75078598  1
  V  V57  1  0.74953540  0.49904243  0.75005374  1
  V  V58  1  0.50092922  0.87566007  0.88688681  1
  V  V59  1  0.24842564  0.12442420  0.36546708  1
  V  V60  1  0.62558628  0.88639833  0.24923044  1
  V  V61  1  0.74764960  0.88418275  0.13054807  1
  V  V62  1  0.49377965  0.87428119  0.37952422  1
  V  V63  1  0.50094245  0.50042372  -0.00097387  1
  V  V64  1  0.88420214  0.63267917  0.24972316  1
  V  V65  1  0.12403727  0.37892455  0.74345799  1
  V  V66  1  0.86581198  0.12368884  0.74883022  1
  V  V67  1  -0.00159638  0.12050562  0.62572767  1
  V  V68  1  0.87794376  0.25248622  0.12567494  1
  V  V69  1  0.87438221  0.12105787  0.25420895  1
  V  V70  1  0.37447942  0.75796678  0.62446782  1
  V  V71  1  0.23386962  0.74655467  -0.00590348  1
  V  V72  1  0.24898634  0.12063681  0.87342850  1
  V  V73  1  -0.00389296  0.12380438  0.12153609  1
  V  V74  1  0.62804598  0.62549187  -0.00011732  1
  V  V75  1  0.24784619  0.37817637  0.62383282  1
  V  V76  1  0.00471723  0.86511944  0.37249767  1
  V  V77  1  0.12666569  0.25157754  0.37051905  1
  V  V78  1  0.37207327  0.12201495  0.74974127  1
  V  V79  1  0.75225193  0.75003053  0.00448385  1
  V  V80  1  0.87692332  0.37838641  -0.00126748  1
  V  V81  1  0.13488155  0.61700609  0.49569476  1
  V  V82  1  0.87862871  0.50118614  0.37825031  1
  V  V83  1  0.50693738  0.50462323  0.49407061  1
  V  V84  1  0.36844519  -0.00496538  0.37733647  1
  Zn  Zn85  1  0.56899170  0.06862928  0.16764105  1
  Zn  Zn86  1  0.87909178  0.62631174  0.75105188  1
  Zn  Zn87  1  0.00013611  -0.00335063  -0.00339168  1
  Zn  Zn88  1  0.74390252  0.11855434  0.87645042  1
  Zn  Zn89  1  0.38956444  0.11692235  0.24522283  1
  Zn  Zn90  1  0.36763854  0.88381283  0.51005478  1
  Zn  Zn91  1  0.01331543  0.63517455  0.12514153  1
  Zn  Zn92  1  0.62172780  0.00566214  0.62797489  1
  Zn  Zn93  1  0.71112326  0.05394084  0.31057343  1
  Zn  Zn94  1  0.87475316  0.37033511  0.50017120  1
  Zn  Zn95  1  0.86727775  0.86329042  0.49440877  1
  Zn  Zn96  1  0.87068842  0.24805560  0.62083877  1
  Zn  Zn97  1  0.75253264  0.62477902  0.87152171  1
  Zn  Zn98  1  0.24980466  0.25094409  -0.00018788  1
  Zn  Zn99  1  0.12706860  0.83662044  0.74500742  1
  Zn  Zn100  1  0.73674508  -0.01705833  0.75457272  1
  Zn  Zn101  1  0.51142980  0.24101003  0.26062358  1
  Zn  Zn102  1  0.87539314  0.50261780  0.87292217  1
  Zn  Zn103  1  0.24684347  0.49961914  0.25780793  1
  Zn  Zn104  1  0.24876225  -0.00172729  0.24389286  1
  Zn  Zn105  1  0.12370700  0.12609282  -0.00156252  1
  Zn  Zn106  1  0.88284027  0.75424301  0.13109565  1
  Zn  Zn107  1  0.18669042  0.19005001  0.18372949  1
  Zn  Zn108  1  0.18626915  0.18481184  0.68743968  1
  Zn  Zn109  1  0.18715339  0.68726817  0.18164913  1
  Zn  Zn110  1  0.19424391  0.68262224  0.68495713  1
  Zn  Zn111  1  0.69168852  0.20456520  0.19735459  1
  Zn  Zn112  1  0.68077817  0.18585619  0.68409760  1
  Zn  Zn113  1  0.69172089  0.68999516  0.19060627  1
  Zn  Zn114  1  0.68980974  0.69052680  0.68349829  1
  Zn  Zn115  1  0.34494449  0.30214284  0.32126481  1
  Zn  Zn116  1  0.31372885  0.31212445  0.81272922  1
  Zn  Zn117  1  0.30776517  0.81103929  0.30524414  1
  Zn  Zn118  1  0.31457341  0.81200569  0.80951492  1
  Zn  Zn119  1  0.81497456  0.31453238  0.31576721  1
  Zn  Zn120  1  0.81045828  0.31651950  0.80867294  1
  Zn  Zn121  1  0.80832829  0.81405535  0.31739511  1
  Zn  Zn122  1  0.82004035  0.80644454  0.80696200  1
  Zn  Zn123  1  0.19009842  0.43654256  0.43446448  1
  Zn  Zn124  1  0.18788942  0.43826214  0.93690801  1
  Zn  Zn125  1  0.18548269  0.93628679  0.43696015  1
  Zn  Zn126  1  0.20562154  0.91296973  0.89704931  1
  Zn  Zn127  1  0.69111792  0.43956962  0.44613030  1
  Zn  Zn128  1  0.68623323  0.43500893  0.93481255  1
  Zn  Zn129  1  0.67788311  0.96228395  0.45139782  1
  Zn  Zn130  1  0.68758109  0.93660178  0.93768240  1
  Zn  Zn131  1  0.31154065  0.06058469  0.05146898  1
  Zn  Zn132  1  0.31131111  0.06652519  0.55939161  1
  Zn  Zn133  1  0.30985531  0.56287440  0.06473598  1
  Zn  Zn134  1  0.31672800  0.56949539  0.56463639  1
  Zn  Zn135  1  0.75051692  0.08614809  0.08646474  1
  Zn  Zn136  1  0.81176395  0.05490454  0.56261040  1
  Zn  Zn137  1  0.81587891  0.56422199  0.06377744  1
  Zn  Zn138  1  0.81849263  0.56305831  0.56721098  1
  Zn  Zn139  1  0.43463047  0.43956977  0.18900973  1
  Zn  Zn140  1  0.43935436  0.43967501  0.68399401  1
  Zn  Zn141  1  0.43336872  0.93681777  0.18687589  1
  Zn  Zn142  1  0.43673971  0.94007719  0.69416918  1
  Zn  Zn143  1  0.94001300  0.44071227  0.18950136  1
  Zn  Zn144  1  0.93257950  0.43799424  0.68621514  1
  Zn  Zn145  1  0.93764831  0.93618604  0.18632390  1
  Zn  Zn146  1  0.93483897  0.92973469  0.68876349  1
  Zn  Zn147  1  0.06138242  0.05830408  0.30754729  1
  Zn  Zn148  1  0.05764436  0.06073310  0.81218738  1
  Zn  Zn149  1  0.06564741  0.55983797  0.31191368  1
  Zn  Zn150  1  0.06531426  0.56278507  0.81185185  1
  Zn  Zn151  1  0.54940183  0.07269551  0.34893178  1
  Zn  Zn152  1  0.56020713  0.06223875  0.80796602  1
  Zn  Zn153  1  0.56124514  0.56639883  0.31561608  1
  Zn  Zn154  1  0.56779163  0.56833749  0.80919220  1
  Zn  Zn155  1  0.43163187  0.19072127  0.43273174  1
  Zn  Zn156  1  0.43749132  0.18791331  0.93648233  1
  Zn  Zn157  1  0.43883680  0.69061878  0.43871681  1
  Zn  Zn158  1  0.43992821  0.68680680  0.93357084  1
  Zn  Zn159  1  0.93224521  0.18688693  0.43988319  1
  Zn  Zn160  1  0.93263862  0.18748911  0.93582122  1
  Zn  Zn161  1  0.94377770  0.68478557  0.44129341  1
  Zn  Zn162  1  0.93265724  0.68465086  0.93996013  1
  Zn  Zn163  1  0.06640866  0.31761595  0.06307082  1
  Zn  Zn164  1  0.06035093  0.31065072  0.56131126  1
  Zn  Zn165  1  0.05798868  0.81173971  0.05746185  1
  Zn  Zn166  1  0.07016345  0.81128812  0.56454096  1
  Zn  Zn167  1  0.56258078  0.31298344  0.06468625  1
  Zn  Zn168  1  0.56682322  0.31226014  0.55787165  1
  Zn  Zn169  1  0.56707709  0.81606135  0.06259297  1
  Zn  Zn170  1  0.57162317  0.84058933  0.55300907  1
  O  O171  1  0.11586175  0.11884556  0.12302973  1
  O  O172  1  0.11410935  0.11943591  0.61985854  1
  O  O173  1  0.12907728  0.60553632  0.12542611  1
  O  O174  1  0.11970696  0.61701974  0.61264758  1
  O  O175  1  0.65203487  0.12873571  0.12594948  1
  O  O176  1  0.60347381  0.12675602  0.62251096  1
  O  O177  1  0.62109135  0.62022668  0.12101320  1
  O  O178  1  0.61421210  0.62098632  0.62680678  1
  O  O179  1  0.36667538  0.39221007  0.39275118  1
  O  O180  1  0.38327134  0.37972646  0.88217079  1
  O  O181  1  0.37527491  0.87946128  0.36879010  1
  O  O182  1  0.38673948  0.88555815  0.87072747  1
  O  O183  1  0.88683943  0.38511467  0.37658556  1
  O  O184  1  0.88250874  0.37777118  0.88242872  1
  O  O185  1  0.88944789  0.87417432  0.37495128  1
  O  O186  1  0.88151749  0.87948311  0.87892375  1
  O  O187  1  0.24847203  0.00686693  0.36964254  1
  O  O188  1  0.26049730  0.01416121  0.88383669  1
  O  O189  1  0.26222651  0.50467238  0.37539288  1
  O  O190  1  0.25787536  0.50403955  0.86723953  1
  O  O191  1  0.77406831  -0.02103642  0.37776958  1
  O  O192  1  0.76011016  -0.00043957  0.87207101  1
  O  O193  1  0.75948226  0.50510352  0.37149061  1
  O  O194  1  0.74709448  0.49929662  0.86333708  1
  O  O195  1  0.24422442  0.49037296  0.12794648  1
  O  O196  1  0.25767249  0.49778855  0.63804738  1
  O  O197  1  0.24413484  0.99095683  0.11809067  1
  O  O198  1  0.23437371  1.00698377  0.62090090  1
  O  O199  1  0.74616700  0.49837807  0.13468928  1
  O  O200  1  0.74316485  0.49374839  0.62677200  1
  O  O201  1  0.75864010  0.98346520  0.12818884  1
  O  O202  1  0.74691669  0.98537526  0.62819203  1
  O  O203  1  -0.00366348  0.36720114  0.25957195  1
  O  O204  1  0.00704325  0.37251727  0.75268592  1
  O  O205  1  0.01331441  0.87692550  0.25531875  1
  O  O206  1  0.00314205  0.87669116  0.76497984  1
  O  O207  1  0.51542787  0.38417537  0.24841478  1
  O  O208  1  0.49111712  0.36676084  0.75792232  1
  O  O209  1  0.50464034  0.86724953  0.25276480  1
  O  O210  1  0.49945527  0.86485786  0.75922771  1
  O  O211  1  0.50849310  0.12234744  0.25502246  1
  O  O212  1  0.48624364  0.13739771  0.74716921  1
  O  O213  1  0.49399344  0.63242308  0.24241490  1
  O  O214  1  0.49597807  0.63539077  0.74437099  1
  O  O215  1  0.99447090  0.13179661  0.23876003  1
  O  O216  1  0.99049580  0.12935789  0.74234859  1
  O  O217  1  0.98643777  0.61764010  0.24929942  1
  O  O218  1  0.99858412  0.60868496  0.73274984  1
  O  O219  1  0.37650694  0.25796475  0.00865472  1
  O  O220  1  0.36758148  0.26151279  0.50741880  1
  O  O221  1  0.37657204  0.74632833  0.01025365  1
  O  O222  1  0.36533630  0.74716183  0.50841229  1
  O  O223  1  0.87266072  0.26442703  0.00347058  1
  O  O224  1  0.86416192  0.25200049  0.50245685  1
  O  O225  1  0.86194112  0.75921883  -0.00151767  1
  O  O226  1  0.88045996  0.74718510  0.51130659  1
  O  O227  1  0.12897824  0.24393995  0.49192607  1
  O  O228  1  0.12381968  0.25225610  0.98444391  1
  O  O229  1  0.13376351  0.74085914  0.49321526  1
  O  O230  1  0.13598071  0.74397319  1.00009647  1
  O  O231  1  0.64173333  0.25233574  0.49865503  1
  O  O232  1  0.63453181  0.26055722  0.99072758  1
  O  O233  1  0.61415311  0.75192572  0.48594660  1
  O  O234  1  0.63647476  0.74667074  0.99496611  1
  O  O235  1  0.48805745  0.25396475  0.13113298  1
  O  O236  1  0.49356020  0.24563083  0.62940221  1
  O  O237  1  0.49420266  0.74779934  0.12831761  1
  O  O238  1  0.49754970  0.74721300  0.63146099  1
  O  O239  1  0.99774294  0.24765038  0.13107321  1
  O  O240  1  0.99802461  0.23882050  0.62968410  1
  O  O241  1  0.99594414  0.74598348  0.12213927  1
  O  O242  1  0.99382678  0.74032535  0.61395588  1
  O  O243  1  0.00361487  0.25789421  0.36908586  1
  O  O244  1  0.00602786  0.25524713  0.86822405  1
  O  O245  1  0.01431050  0.75889939  0.37958876  1
  O  O246  1  -0.00668153  0.75688802  0.87530357  1
  O  O247  1  0.45312216  0.26527663  0.35485948  1
  O  O248  1  0.50400159  0.25753314  0.86804123  1
  O  O249  1  0.50472167  0.75161410  0.36291413  1
  O  O250  1  0.50722651  0.75751080  0.86920698  1
  O  O251  1  0.24219633  0.13247765  0.48872161  1
  O  O252  1  0.24488400  0.13198123  0.98825812  1
  O  O253  1  0.23987082  0.63124207  0.50337157  1
  O  O254  1  0.25650436  0.63535552  0.99312642  1
  O  O255  1  0.75535663  0.13717916  0.50664485  1
  O  O256  1  0.76437658  0.14753843  0.99157366  1
  O  O257  1  0.75453545  0.61709818  0.48778379  1
  O  O258  1  0.74608789  0.63263360  1.00053359  1
  O  O259  1  0.26443181  0.37506987  0.00116593  1
  O  O260  1  0.25418465  0.37147813  0.50708182  1
  O  O261  1  0.24652261  0.85808777  0.00008380  1
  O  O262  1  0.24841342  0.86035227  0.49803531  1
  O  O263  1  0.75890989  0.37136014  0.00361917  1
  O  O264  1  0.75391894  0.36851275  0.50895444  1
  O  O265  1  0.75273551  0.86823969  0.00857705  1
  O  O266  1  0.75316433  0.87935366  0.51608175  1
  O  O267  1  0.12891130  0.49692049  0.23821070  1
  O  O268  1  0.13715105  0.48948178  0.75413496  1
  O  O269  1  0.12623769  0.99066573  0.23459508  1
  O  O270  1  0.12391760  1.00900873  0.73571693  1
  O  O271  1  0.63259130  0.49749911  0.24709636  1
  O  O272  1  0.62976348  0.50321632  0.73630550  1
  O  O273  1  0.62448177  0.98973308  0.24703403  1
  O  O274  1  0.62595587  1.00396975  0.74192773  1
  O  O275  1  0.36689038  0.00172035  0.25645787  1
  O  O276  1  0.38023462  0.01193354  0.76483902  1
  O  O277  1  0.37630409  0.51041857  0.26071753  1
  O  O278  1  0.37059301  0.50466009  0.75509742  1
  O  O279  1  0.88549687  0.00943612  0.25866652  1
  O  O280  1  0.87439892  0.00787519  0.75548856  1
  O  O281  1  0.86993773  0.50614386  0.26085401  1
  O  O282  1  0.86380000  0.50213754  0.75105876  1
  O  O283  1  0.11481159  0.36870054  0.37677469  1
  O  O284  1  0.12274609  0.36808026  0.86414695  1
  O  O285  1  0.12303796  0.86743862  0.36252963  1
  O  O286  1  0.09870488  0.87580457  0.88767014  1
  O  O287  1  0.62291393  0.39071705  0.36695400  1
  O  O288  1  0.60970821  0.36837269  0.87685326  1
  O  O289  1  0.61238089  0.86607537  0.36493109  1
  O  O290  1  0.61920082  0.86290449  0.87772364  1
  O  O291  1  0.37300029  0.13578446  0.11748233  1
  O  O292  1  0.37708003  0.13418767  0.63068928  1
  O  O293  1  0.38167936  0.63211018  0.13023064  1
  O  O294  1  0.38719230  0.63488757  0.63288192  1
  O  O295  1  0.87976380  0.13463406  0.13285069  1
  O  O296  1  0.88502936  0.12161231  0.63085857  1
  O  O297  1  0.87473329  0.62361173  0.14311583  1
  O  O298  1  0.89101354  0.63254581  0.62363200  1
  O  O299  1  0.25576463  0.25826293  0.11928260  1
  O  O300  1  0.25351390  0.25547479  0.61923332  1
  O  O301  1  0.25600556  0.75331310  0.11071855  1
  O  O302  1  0.26384309  0.74318608  0.61583945  1
  O  O303  1  0.75941938  0.26292499  0.11739888  1
  O  O304  1  0.74799858  0.26056740  0.62698034  1
  O  O305  1  0.75580886  0.75626272  0.11825818  1
  O  O306  1  0.76554247  0.74909934  0.61929373  1
  O  O307  1  0.24848824  0.24361892  0.37758527  1
  O  O308  1  0.24201681  0.24254879  0.87399600  1
  O  O309  1  0.23956827  0.75097114  0.38078963  1
  O  O310  1  0.25999712  0.73815326  0.88909081  1
  O  O311  1  0.75439101  0.24752423  0.38433156  1
  O  O312  1  0.73878056  0.25718226  0.87990021  1
  O  O313  1  0.73776524  0.74295951  0.37409594  1
  O  O314  1  0.74451934  0.75095211  0.88100559  1
  O  O315  1  -0.00236206  0.12744606  0.01223392  1
  O  O316  1  0.00439012  0.11753971  0.50774635  1
  O  O317  1  -0.00780816  0.60903783  0.00548012  1
  O  O318  1  0.01374141  0.61784907  0.50902431  1
  O  O319  1  0.50501553  0.11734371  -0.00222430  1
  O  O320  1  0.48882630  0.12942289  0.50920187  1
  O  O321  1  0.50723683  0.62034009  0.00488678  1
  O  O322  1  0.49464059  0.61802787  0.51084672  1
  O  O323  1  0.49086094  0.38831824  0.50999235  1
  O  O324  1  0.49047814  0.38031973  0.99391682  1
  O  O325  1  0.48083541  0.85614238  0.48029901  1
  O  O326  1  0.50217038  0.87643788  0.98945264  1
  O  O327  1  0.99959355  0.38238065  0.49311475  1
  O  O328  1  0.99384384  0.38232128  0.99595327  1
  O  O329  1  1.00642966  0.87987265  0.49042328  1
  O  O330  1  0.98606981  0.87522045  0.99198498  1
  O  O331  1  0.49086883  0.50899352  0.38871220  1
  O  O332  1  0.49827424  0.49480804  0.87750187  1
  O  O333  1  0.48062792  0.98441047  0.37167779  1
  O  O334  1  0.49716396  0.99469948  0.88400290  1
  O  O335  1  0.99607854  0.49363843  0.38043748  1
  O  O336  1  1.00288526  0.49280184  0.88404416  1
  O  O337  1  1.00017890  0.98663808  0.38142810  1
  O  O338  1  0.98553510  1.00115097  0.87850121  1
  O  O339  1  0.00470262  0.00876408  0.12164959  1
  O  O340  1  0.00484279  0.00366018  0.61840225  1
  O  O341  1  0.01461665  0.49694648  0.12053672  1
  O  O342  1  -0.00184626  0.50307533  0.61317456  1
  O  O343  1  0.49636864  -0.00119067  0.11007319  1
  O  O344  1  0.48589894  0.02031081  0.62744896  1
  O  O345  1  0.50413099  0.50572390  0.11871822  1
  O  O346  1  0.50697347  0.50985066  0.61995519  1
  O  O347  1  0.26555302  0.37452050  0.24288924  1
  O  O348  1  0.24477439  0.38138375  0.74530250  1
  O  O349  1  0.23769991  0.87313635  0.23270594  1
  O  O350  1  0.22556312  0.87324301  0.78871282  1
  O  O351  1  0.74494794  0.38826135  0.25009205  1
  O  O352  1  0.75161792  0.38777095  0.73877425  1
  O  O353  1  0.73787756  0.86705728  0.24327581  1
  O  O354  1  0.76942201  0.87362801  0.73051633  1
  O  O355  1  0.24365653  0.12327645  0.25967398  1
  O  O356  1  0.26296133  0.13260637  0.75671005  1
  O  O357  1  0.26433066  0.62472610  0.24297534  1
  O  O358  1  0.25978412  0.61720247  0.75669575  1
  O  O359  1  0.76821538  0.13211374  0.25240410  1
  O  O360  1  0.76026095  0.12832954  0.74912253  1
  O  O361  1  0.75798002  0.61484205  0.25760208  1
  O  O362  1  0.75007514  0.61142659  0.74634698  1
  O  O363  1  0.36264198  0.11374034  0.37076093  1
  O  O364  1  0.36779370  0.12323686  0.86830365  1
  O  O365  1  0.37959750  0.62237776  0.36493133  1
  O  O366  1  0.37275623  0.61739899  0.86843110  1
  O  O367  1  0.88901592  0.11016602  0.36623556  1
  O  O368  1  0.87234999  0.11740328  0.86520650  1
  O  O369  1  0.87230161  0.61965219  0.36772194  1
  O  O370  1  0.87035031  0.62011220  0.87034642  1
  O  O371  1  0.14008240  0.38319660  0.12342863  1
  O  O372  1  0.12929950  0.36878775  0.63674227  1
  O  O373  1  0.13070805  0.87981526  0.12459996  1
  O  O374  1  0.12334228  0.88784927  0.63120876  1
  O  O375  1  0.63263326  0.38408191  0.12955288  1
  O  O376  1  0.63378655  0.38525280  0.62201138  1
  O  O377  1  0.63481429  0.86979725  0.13609669  1
  O  O378  1  0.64798309  0.84199064  0.63973025  1
  O  O379  1  0.11183278  0.24584167  0.25449559  1
  O  O380  1  0.11907707  0.25525905  0.75805344  1
  O  O381  1  0.13093867  0.75512941  0.25553844  1
  O  O382  1  0.10280594  0.72991875  0.72002349  1
  O  O383  1  0.62507411  0.27289174  0.25688370  1
  O  O384  1  0.61081651  0.24956842  0.75558357  1
  O  O385  1  0.61244685  0.75282137  0.25110086  1
  O  O386  1  0.61756140  0.73991803  0.76142780  1
  O  O387  1  0.36676281  0.23651181  0.22762258  1
  O  O388  1  0.38207677  0.24719093  0.74363475  1
  O  O389  1  0.38420046  0.74508591  0.24011434  1
  O  O390  1  0.38423109  0.74577609  0.74438163  1
  O  O391  1  0.88692760  0.24567839  0.24786741  1
  O  O392  1  0.88068413  0.24265319  0.74817787  1
  O  O393  1  0.87065293  0.73452167  0.25444043  1
  O  O394  1  0.87877881  0.74277008  0.72989214  1
  O  O395  1  0.38180882  0.49933309  0.49661081  1
  O  O396  1  0.38147086  0.49441399  0.99620164  1
  O  O397  1  0.36158071  0.99660781  0.48437990  1
  O  O398  1  0.38935908  1.00610037  0.98626975  1
  O  O399  1  0.88572445  0.50126708  0.48953061  1
  O  O400  1  0.88142680  0.48930227  1.00174964  1
  O  O401  1  0.89044164  0.99616321  0.49386826  1
  O  O402  1  0.87221116  0.98613268  0.99038125  1
  O  O403  1  0.12035821  0.00301641  0.01128101  1
  O  O404  1  0.11602382  0.00380203  0.50643377  1
  O  O405  1  0.11815901  0.49211226  0.01145983  1
  O  O406  1  0.11804392  0.50667979  0.49102561  1
  O  O407  1  0.61179111  0.00021975  -0.00363303  1
  O  O408  1  0.60194495  -0.05025932  0.53262037  1
  O  O409  1  0.62022145  0.50412132  0.00517276  1
  O  O410  1  0.61558495  0.49982762  0.51113153  1
  O  O411  1  0.37022497  0.36837115  0.11860450  1
  O  O412  1  0.36805995  0.37322011  0.61682154  1
  O  O413  1  0.36065423  0.86626681  0.12737061  1
  O  O414  1  0.38022460  0.86345279  0.62743776  1
  O  O415  1  0.87112921  0.37319525  0.12000310  1
  O  O416  1  0.86374713  0.37245104  0.62154228  1
  O  O417  1  0.86941358  0.87306624  0.11765269  1
  O  O418  1  0.87613701  0.86019679  0.61734970  1
  O  O419  1  0.12760790  0.12924199  0.37834489  1
  O  O420  1  0.13074047  0.13164940  0.87250810  1
  O  O421  1  0.12161458  0.63242499  0.38091400  1
  O  O422  1  0.14123451  0.61923102  0.87453988  1
  O  O423  1  0.64460575  0.06404492  0.39971772  1
  O  O424  1  0.62547701  0.14030181  0.87144910  1
  O  O425  1  0.63491992  0.63646059  0.36974502  1
  O  O426  1  0.62732870  0.63596678  0.88413310  1
