# generated using pymatgen
data_V85Zn86O256
_symmetry_space_group_name_H-M   'P 1'
_cell_length_a   16.95301231
_cell_length_b   16.96174572
_cell_length_c   16.95947293
_cell_angle_alpha   90.05354650
_cell_angle_beta   89.96482601
_cell_angle_gamma   90.01240839
_symmetry_Int_Tables_number   1
_chemical_formula_structural   V85Zn86O256
_chemical_formula_sum   'V85 Zn86 O256'
_cell_volume   4876.73879741
_cell_formula_units_Z   1
loop_
 _symmetry_equiv_pos_site_id
 _symmetry_equiv_pos_as_xyz
  1  'x, y, z'
loop_
 _atom_site_type_symbol
 _atom_site_label
 _atom_site_symmetry_multiplicity
 _atom_site_fract_x
 _atom_site_fract_y
 _atom_site_fract_z
 _atom_site_occupancy
  V  V0  1  0.00081200  0.74852989  0.75378577  1
  V  V1  1  0.87990650  0.61757778  0.76539460  1
  V  V2  1  0.25147162  0.12509488  0.37705837  1
  V  V3  1  0.62604615  0.87557567  0.24962653  1
  V  V4  1  0.00007225  -0.00474346  -0.00998171  1
  V  V5  1  0.62287320  0.75208888  0.37621012  1
  V  V6  1  0.74897813  0.62381368  0.37181814  1
  V  V7  1  0.37485549  0.00086400  0.86124081  1
  V  V8  1  0.75022261  0.87307072  0.62849784  1
  V  V9  1  0.74899202  0.13505341  0.37833044  1
  V  V10  1  0.00019606  0.87514921  0.37470339  1
  V  V11  1  -0.00604064  0.12531859  0.63047717  1
  V  V12  1  0.30361448  0.30676941  0.44921630  1
  V  V13  1  0.12448231  0.25006831  0.37970070  1
  V  V14  1  0.37568156  0.62275062  0.25230805  1
  V  V15  1  0.25056955  0.38067897  0.13130120  1
  V  V16  1  0.24203245  0.62620156  0.87888563  1
  V  V17  1  0.88191009  0.73639013  0.62409796  1
  V  V18  1  0.38549594  0.24717290  0.12176859  1
  V  V19  1  0.37535045  0.62971158  0.75415711  1
  V  V20  1  0.62419864  0.00311013  0.62349819  1
  V  V21  1  0.12034944  0.87764867  0.75898867  1
  V  V22  1  0.50404310  0.75092819  0.24655839  1
  V  V23  1  0.12928989  0.00210430  0.63127994  1
  V  V24  1  0.24857757  0.75193728  0.00683970  1
  V  V25  1  0.12785874  -0.01018801  0.12414677  1
  V  V26  1  0.87704107  0.62239816  0.24755858  1
  V  V27  1  0.74791446  0.74806024  0.50403457  1
  V  V28  1  0.51109666  0.50442985  -0.00485657  1
  V  V29  1  0.12977306  0.13022019  0.50307946  1
  V  V30  1  0.61094286  0.86756796  0.75544444  1
  V  V31  1  0.25251872  0.12235987  0.86125656  1
  V  V32  1  0.00259821  0.24972493  0.25128633  1
  V  V33  1  0.12047749  0.25398741  0.87625748  1
  V  V34  1  0.75288073  0.86587006  0.11975948  1
  V  V35  1  0.25157361  -0.00662465  0.24484115  1
  V  V36  1  0.11825916  0.37423326  0.75072918  1
  V  V37  1  0.87389479  -0.00088939  0.37532546  1
  V  V38  1  0.25348734  0.61938741  0.37799930  1
  V  V39  1  0.24610020  0.49724226  0.75114284  1
  V  V40  1  0.00063753  0.00043823  0.50139594  1
  V  V41  1  0.24973094  0.75250104  0.50235494  1
  V  V42  1  0.37490034  0.75634205  0.12633690  1
  V  V43  1  0.37833730  0.75234575  0.63248414  1
  V  V44  1  0.12606137  0.12312805  0.00058760  1
  V  V45  1  0.00147200  0.48253247  0.01140997  1
  V  V46  1  0.37054968  0.87930373  -0.00065630  1
  V  V47  1  0.75597308  0.12594677  0.87189886  1
  V  V48  1  0.11530883  0.62075592  0.01764168  1
  V  V49  1  0.37696135  0.87653031  0.50159451  1
  V  V50  1  0.49951159  -0.00032925  -0.00411962  1
  V  V51  1  0.50037345  0.36060188  0.87115867  1
  V  V52  1  0.75924139  0.25828164  -0.00339353  1
  V  V53  1  0.37368928  0.49681310  0.87881363  1
  V  V54  1  0.38391123  0.12520503  0.24838591  1
  V  V55  1  0.61876590  0.36340981  0.75612668  1
  V  V56  1  0.37007700  0.25373122  0.64564200  1
  V  V57  1  0.49321010  0.13096720  0.63736504  1
  V  V58  1  0.62685900  -0.00311940  0.11937863  1
  V  V59  1  0.86602186  0.24653353  0.62511929  1
  V  V60  1  0.74527676  0.49110580  0.25494039  1
  V  V61  1  0.11847349  0.62787116  0.51091520  1
  V  V62  1  -0.01068444  0.24990655  0.75481810  1
  V  V63  1  0.88423162  0.47454894  0.88030496  1
  V  V64  1  0.62744615  0.13368301  -0.00678328  1
  V  V65  1  0.74490700  0.37920532  0.62941820  1
  V  V66  1  0.25059686  0.24937840  0.00185877  1
  V  V67  1  -0.00144463  0.37638142  0.37931294  1
  V  V68  1  0.62151134  0.61923533  0.50055871  1
  V  V69  1  0.47649626  0.49800146  0.49679613  1
  V  V70  1  0.75105403  -0.00043166  0.24852959  1
  V  V71  1  0.87648450  0.86772727  -0.00805202  1
  V  V72  1  0.25156698  0.88082927  0.63626640  1
  V  V73  1  0.12455800  0.75163074  0.37752804  1
  V  V74  1  -0.00086683  0.74634118  0.24415365  1
  V  V75  1  0.62549616  0.13880070  0.50200992  1
  V  V76  1  0.87665540  0.12205775  0.25004396  1
  V  V77  1  0.62831149  0.50861607  0.12560555  1
  V  V78  1  0.87454467  0.87385023  0.50171554  1
  V  V79  1  0.50324810  0.62667678  0.62820123  1
  V  V80  1  0.86520373  0.37067017  0.50141512  1
  V  V81  1  -0.00416727  0.50318779  0.50929544  1
  V  V82  1  0.00086880  0.12151608  0.12501493  1
  V  V83  1  0.37572424  -0.00021866  0.37555053  1
  V  V84  1  0.75781978  0.00371896  0.74806480  1
  Zn  Zn85  1  0.12914055  0.87078684  0.24742063  1
  Zn  Zn86  1  0.60905581  0.24982724  0.36296584  1
  Zn  Zn87  1  0.72203877  0.52003206  0.77969024  1
  Zn  Zn88  1  0.61855596  0.49204720  0.62331013  1
  Zn  Zn89  1  0.88035445  0.25744550  0.11729115  1
  Zn  Zn90  1  0.50111783  0.87626012  0.37595442  1
  Zn  Zn91  1  0.74805649  0.37405795  0.12276001  1
  Zn  Zn92  1  0.50283708  0.62930873  0.11716149  1
  Zn  Zn93  1  0.88044210  -0.00162387  0.86751405  1
  Zn  Zn94  1  0.24702264  0.50330322  0.24967399  1
  Zn  Zn95  1  0.11955903  0.75446301  0.88050659  1
  Zn  Zn96  1  0.24927598  0.37099672  0.62126625  1
  Zn  Zn97  1  0.50069488  0.00275324  0.50000318  1
  Zn  Zn98  1  0.49922402  0.37709723  0.38237114  1
  Zn  Zn99  1  0.87391555  0.50083523  0.37850893  1
  Zn  Zn100  1  0.37703908  0.37281117  -0.00207931  1
  Zn  Zn101  1  0.50947227  0.13032942  0.12799168  1
  Zn  Zn102  1  0.12051814  0.50178183  0.62968647  1
  Zn  Zn103  1  0.64056088  0.70442844  0.88983973  1
  Zn  Zn104  1  0.87534339  0.74249313  0.11929172  1
  Zn  Zn105  1  0.59589199  0.36000854  0.24417950  1
  Zn  Zn106  1  0.11573159  0.38851882  0.24500429  1
  Zn  Zn107  1  0.19162854  0.18707526  0.18996927  1
  Zn  Zn108  1  0.18594163  0.19120880  0.68799825  1
  Zn  Zn109  1  0.18907757  0.68855339  0.18993176  1
  Zn  Zn110  1  0.18936979  0.69150249  0.69071128  1
  Zn  Zn111  1  0.68883514  0.18881663  0.18370148  1
  Zn  Zn112  1  0.68589047  0.18774095  0.69066593  1
  Zn  Zn113  1  0.68459112  0.69118627  0.06417380  1
  Zn  Zn114  1  0.71038363  0.70196697  0.72446424  1
  Zn  Zn115  1  0.37368491  0.33517768  0.28210271  1
  Zn  Zn116  1  0.30802454  0.31308137  0.81440661  1
  Zn  Zn117  1  0.31243442  0.81156113  0.31376451  1
  Zn  Zn118  1  0.31213507  0.81427143  0.81810960  1
  Zn  Zn119  1  0.81700227  0.31001179  0.30877929  1
  Zn  Zn120  1  0.80359768  0.31440562  0.81440380  1
  Zn  Zn121  1  0.81086603  0.80979368  0.31100338  1
  Zn  Zn122  1  0.81099543  0.81195589  0.81711576  1
  Zn  Zn123  1  0.17840425  0.44424599  0.43400640  1
  Zn  Zn124  1  0.18233864  0.43623449  0.94181331  1
  Zn  Zn125  1  0.19026973  0.93900170  0.44169204  1
  Zn  Zn126  1  0.19324329  0.93905783  0.93798305  1
  Zn  Zn127  1  0.68185302  0.43128347  0.43396189  1
  Zn  Zn128  1  0.70208037  0.54695307  0.94409087  1
  Zn  Zn129  1  0.68793561  0.94104257  0.43944360  1
  Zn  Zn130  1  0.69282497  0.93557715  0.93419901  1
  Zn  Zn131  1  0.31204669  0.06477109  0.06152324  1
  Zn  Zn132  1  0.31287936  0.06589470  0.56626226  1
  Zn  Zn133  1  0.31504718  0.56610626  0.06220150  1
  Zn  Zn134  1  0.30548877  0.56698470  0.56899962  1
  Zn  Zn135  1  0.81463068  0.06122271  0.05907990  1
  Zn  Zn136  1  0.81050831  0.06377594  0.56056936  1
  Zn  Zn137  1  0.82351564  0.55233410  0.06822953  1
  Zn  Zn138  1  0.80915973  0.56008235  0.56379649  1
  Zn  Zn139  1  0.43616883  0.44584549  0.17746714  1
  Zn  Zn140  1  0.43686719  0.43746470  0.68832385  1
  Zn  Zn141  1  0.44142001  0.93671615  0.18318122  1
  Zn  Zn142  1  0.43915750  0.94395571  0.68495057  1
  Zn  Zn143  1  0.93106830  0.43610074  0.18670205  1
  Zn  Zn144  1  0.93578290  0.43458260  0.68923573  1
  Zn  Zn145  1  0.93941368  0.93299836  0.18451755  1
  Zn  Zn146  1  0.93952066  0.93312796  0.68661879  1
  Zn  Zn147  1  0.06558880  0.06076213  0.31248027  1
  Zn  Zn148  1  0.06584997  0.06785912  0.81096606  1
  Zn  Zn149  1  0.06388133  0.56274435  0.31649302  1
  Zn  Zn150  1  0.05625039  0.56164613  0.81725982  1
  Zn  Zn151  1  0.56425203  0.06331728  0.31404042  1
  Zn  Zn152  1  0.56691128  0.05846547  0.81295189  1
  Zn  Zn153  1  0.55985274  0.55975791  0.31381905  1
  Zn  Zn154  1  0.55487057  0.55430463  0.80666678  1
  Zn  Zn155  1  0.44329435  0.18626113  0.44220335  1
  Zn  Zn156  1  0.43617343  0.18022827  0.93717453  1
  Zn  Zn157  1  0.43737195  0.68927367  0.43813660  1
  Zn  Zn158  1  0.43986176  0.68847600  0.93320988  1
  Zn  Zn159  1  0.93707543  0.18723679  0.44148620  1
  Zn  Zn160  1  0.93528340  0.18323834  0.93560092  1
  Zn  Zn161  1  0.93721148  0.68733662  0.43583222  1
  Zn  Zn162  1  0.94043861  0.68637580  0.93692574  1
  Zn  Zn163  1  0.06820454  0.30998330  0.06832365  1
  Zn  Zn164  1  0.05955857  0.31393711  0.56703923  1
  Zn  Zn165  1  0.05962862  0.81144224  0.06066955  1
  Zn  Zn166  1  0.06143485  0.81473640  0.56771996  1
  Zn  Zn167  1  0.56890177  0.32163167  0.05743371  1
  Zn  Zn168  1  0.55405873  0.31253736  0.56279865  1
  Zn  Zn169  1  0.55432415  0.82109550  -0.05836631  1
  Zn  Zn170  1  0.56213981  0.81159905  0.56836277  1
  O  O171  1  0.11662780  0.11790380  0.12192833  1
  O  O172  1  0.11926052  0.12012895  0.62043298  1
  O  O173  1  0.12813010  0.62495627  0.11536092  1
  O  O174  1  0.13068647  0.62674324  0.61417207  1
  O  O175  1  0.62882541  0.11137088  0.11364009  1
  O  O176  1  0.61891274  0.12195144  0.61955999  1
  O  O177  1  0.62092801  0.61330501  0.12702871  1
  O  O178  1  0.60860335  0.62699029  0.62011614  1
  O  O179  1  0.35931616  0.36773391  0.39164297  1
  O  O180  1  0.37833967  0.38228836  0.87532014  1
  O  O181  1  0.37413236  0.88168706  0.38538672  1
  O  O182  1  0.36848187  0.89037043  0.88360974  1
  O  O183  1  0.88444989  0.37184425  0.38435056  1
  O  O184  1  0.88657663  0.37673687  0.86859025  1
  O  O185  1  0.87810100  0.87950295  0.38196782  1
  O  O186  1  0.87175494  0.87816102  0.88674638  1
  O  O187  1  0.25945886  0.00374930  0.36985722  1
  O  O188  1  0.26279048  0.01052905  0.88113744  1
  O  O189  1  0.24913274  0.51712545  0.38000838  1
  O  O190  1  0.25200726  0.50502264  0.86915236  1
  O  O191  1  0.75586908  0.00519848  0.36780239  1
  O  O192  1  0.75323760  0.00477403  0.86277699  1
  O  O193  1  0.74878538  0.50845947  0.37413978  1
  O  O194  1  0.77901316  0.48905400  0.87648839  1
  O  O195  1  0.25595421  0.48265503  0.11903723  1
  O  O196  1  0.24691359  0.49892370  0.64143757  1
  O  O197  1  0.24034367  1.00711134  0.13326975  1
  O  O198  1  0.24138258  0.99321623  0.62294535  1
  O  O199  1  0.74370404  0.49824520  0.13844191  1
  O  O200  1  0.74761775  0.48350771  0.62232204  1
  O  O201  1  0.74681560  0.99553761  0.13091516  1
  O  O202  1  0.74429796  0.99421828  0.62814292  1
  O  O203  1  -0.00123948  0.36611020  0.26002112  1
  O  O204  1  0.01077983  0.36488085  0.74635017  1
  O  O205  1  0.00300467  0.86758696  0.25909560  1
  O  O206  1  0.01050714  0.86698228  0.74706344  1
  O  O207  1  0.47801042  0.38257754  0.25987026  1
  O  O208  1  0.50631072  0.37616819  0.75720534  1
  O  O209  1  0.50688387  0.86945791  0.25164485  1
  O  O210  1  0.51290006  0.88256829  0.74494513  1
  O  O211  1  0.48753249  0.11659093  0.24654170  1
  O  O212  1  0.50834824  0.12321499  0.73499133  1
  O  O213  1  0.49178764  0.63431054  0.25229747  1
  O  O214  1  0.48247941  0.61770641  0.74160951  1
  O  O215  1  0.99802377  0.12808771  0.24426205  1
  O  O216  1  1.00380598  0.13320850  0.73759083  1
  O  O217  1  0.98912632  0.63511174  0.26626722  1
  O  O218  1  0.98998648  0.63105444  0.74806869  1
  O  O219  1  0.36515006  0.24688911  0.00488473  1
  O  O220  1  0.36339957  0.24775107  0.50645767  1
  O  O221  1  0.36980370  0.75682882  0.00550843  1
  O  O222  1  0.36983106  0.75912505  0.50827302  1
  O  O223  1  0.86468273  0.24636985  -0.00104987  1
  O  O224  1  0.88161961  0.25942760  0.51257977  1
  O  O225  1  0.88366150  0.76340833  0.00197214  1
  O  O226  1  0.86999173  0.75583531  0.50560802  1
  O  O227  1  0.11542355  0.23827061  0.49669646  1
  O  O228  1  0.12945005  0.24342066  0.99350319  1
  O  O229  1  0.12715887  0.74726277  0.49741017  1
  O  O230  1  0.13034157  0.74104002  1.00081529  1
  O  O231  1  0.62196972  0.24025977  0.50013359  1
  O  O232  1  0.63185793  0.23638464  1.00402856  1
  O  O233  1  0.62698743  0.73985455  0.49873508  1
  O  O234  1  0.63565730  0.75990962  0.99213574  1
  O  O235  1  0.48872071  0.25013416  0.11243725  1
  O  O236  1  0.48360288  0.23936617  0.62115920  1
  O  O237  1  0.49139083  0.74771111  0.13968935  1
  O  O238  1  0.48459656  0.74290873  0.62039426  1
  O  O239  1  1.00185796  0.24049935  0.13387082  1
  O  O240  1  0.99057364  0.24286794  0.63347345  1
  O  O241  1  0.99923959  0.75368228  0.14130779  1
  O  O242  1  0.99078916  0.75675725  0.63630970  1
  O  O243  1  0.00373215  0.25441006  0.37061300  1
  O  O244  1  0.00910988  0.23797444  0.86605395  1
  O  O245  1  0.00776462  0.75701010  0.37169658  1
  O  O246  1  0.00265300  0.74780490  0.86033829  1
  O  O247  1  0.49380364  0.26034665  0.37976971  1
  O  O248  1  0.49185602  0.26195628  0.88170465  1
  O  O249  1  0.50474466  0.75381969  0.36736652  1
  O  O250  1  0.52297277  0.73347582  0.87664332  1
  O  O251  1  0.23699076  0.11690251  0.49423374  1
  O  O252  1  0.24304264  0.13495643  0.99702497  1
  O  O253  1  0.24299068  0.63459829  0.49659674  1
  O  O254  1  0.24034639  0.62973917  0.99574547  1
  O  O255  1  0.73898014  0.11937196  0.49009123  1
  O  O256  1  0.74394923  0.12486053  0.99072730  1
  O  O257  1  0.74111653  0.62956471  0.49534347  1
  O  O258  1  0.75486565  0.61934220  1.01126382  1
  O  O259  1  0.24864673  0.36243013  0.00610285  1
  O  O260  1  0.24190250  0.37121513  0.50155091  1
  O  O261  1  0.26010805  0.86688223  -0.00038536  1
  O  O262  1  0.25951794  0.87268614  0.51157565  1
  O  O263  1  0.74402844  0.35490689  -0.00254133  1
  O  O264  1  0.76068284  0.37619530  0.50521133  1
  O  O265  1  0.76680872  0.88373646  0.00744435  1
  O  O266  1  0.75204524  0.86931881  0.51102575  1
  O  O267  1  0.13404838  0.49808548  0.26083058  1
  O  O268  1  0.12749071  0.49273549  0.75272439  1
  O  O269  1  0.13327739  0.99815076  0.24211524  1
  O  O270  1  0.11832508  0.99377929  0.73870196  1
  O  O271  1  0.63150229  0.50084892  0.24504105  1
  O  O272  1  0.62037997  0.48313655  0.73850525  1
  O  O273  1  0.63057630  0.99623665  0.24285398  1
  O  O274  1  0.63350478  0.99320622  0.73740072  1
  O  O275  1  0.36976655  0.00308610  0.25450498  1
  O  O276  1  0.37375060  -0.00361368  0.76272429  1
  O  O277  1  0.36782336  0.52036853  0.24082025  1
  O  O278  1  0.36538365  0.50555482  0.76062580  1
  O  O279  1  0.87292927  0.00314046  0.25508319  1
  O  O280  1  0.86241684  -0.00625483  0.74634351  1
  O  O281  1  0.86834734  0.50736571  0.25840711  1
  O  O282  1  0.89336060  0.50680885  0.76733512  1
  O  O283  1  0.11172319  0.36762691  0.37692613  1
  O  O284  1  0.12980325  0.36026546  0.86936137  1
  O  O285  1  0.12247863  0.86503769  0.37828077  1
  O  O286  1  0.13315926  0.87586191  0.86223073  1
  O  O287  1  0.61749576  0.37083040  0.36717859  1
  O  O288  1  0.61282899  0.37408421  0.85931063  1
  O  O289  1  0.62488563  0.87094100  0.37111931  1
  O  O290  1  0.62347904  0.88130293  0.86017523  1
  O  O291  1  0.37900507  0.12971943  0.13101236  1
  O  O292  1  0.38631941  0.13062145  0.62562693  1
  O  O293  1  0.37542824  0.63948817  0.13132041  1
  O  O294  1  0.37702920  0.63486123  0.63438704  1
  O  O295  1  0.88966774  0.12250082  0.12916984  1
  O  O296  1  0.88334138  0.13235077  0.61827825  1
  O  O297  1  0.87462457  0.62606387  0.14393975  1
  O  O298  1  0.87966204  0.63557385  0.61615736  1
  O  O299  1  0.25814080  0.25314126  0.11752349  1
  O  O300  1  0.26485002  0.24710623  0.62837552  1
  O  O301  1  0.25632523  0.74773656  0.11419097  1
  O  O302  1  0.25968187  0.75857624  0.62137077  1
  O  O303  1  0.75574158  0.24157218  0.10657971  1
  O  O304  1  0.76192046  0.25600255  0.63149938  1
  O  O305  1  0.75373099  0.76431726  0.13054665  1
  O  O306  1  0.75930145  0.75694693  0.62365264  1
  O  O307  1  0.24479058  0.24561991  0.38348844  1
  O  O308  1  0.24352006  0.24241606  0.88285460  1
  O  O309  1  0.24144480  0.74821072  0.38336773  1
  O  O310  1  0.24855705  0.74242729  0.88881913  1
  O  O311  1  0.75316215  0.23565580  0.37128055  1
  O  O312  1  0.75233093  0.23937357  0.88494569  1
  O  O313  1  0.74270220  0.74356285  0.38318093  1
  O  O314  1  0.73464249  0.73675981  0.83168250  1
  O  O315  1  0.00558905  0.11740224  0.00810803  1
  O  O316  1  0.00811970  0.11907224  0.50972240  1
  O  O317  1  0.01343455  0.62585900  0.00270029  1
  O  O318  1  0.00758062  0.61699665  0.49468284  1
  O  O319  1  0.50994988  0.11534993  0.00127080  1
  O  O320  1  0.51002061  0.12111047  0.51100284  1
  O  O321  1  0.49074618  0.60766497  -0.00053741  1
  O  O322  1  0.50246775  0.61894522  0.50696411  1
  O  O323  1  0.49701083  0.39572658  0.50573326  1
  O  O324  1  0.49870940  0.38590711  0.98867960  1
  O  O325  1  0.48720950  0.87809507  0.50311208  1
  O  O326  1  0.48567098  0.89068840  0.99834829  1
  O  O327  1  0.99163438  0.38081212  0.49635662  1
  O  O328  1  1.01448646  0.38398289  1.00149300  1
  O  O329  1  0.99559133  0.88131101  0.49571733  1
  O  O330  1  0.98913519  0.88281352  1.00311470  1
  O  O331  1  0.49700917  0.50410341  0.39396796  1
  O  O332  1  0.48886714  0.49178619  0.87920375  1
  O  O333  1  0.48749408  0.99798554  0.37698670  1
  O  O334  1  0.48488641  1.00813366  0.88117409  1
  O  O335  1  0.99811000  0.49003535  0.38784987  1
  O  O336  1  0.99128212  0.50339569  0.89076030  1
  O  O337  1  0.99574564  0.99481318  0.38064672  1
  O  O338  1  1.00235174  1.00700901  0.88666795  1
  O  O339  1  0.00880973  0.00513860  0.11885595  1
  O  O340  1  0.00532716  0.00760026  0.62154196  1
  O  O341  1  -0.00277266  0.49540123  0.11165446  1
  O  O342  1  0.00069388  0.49441800  0.61318690  1
  O  O343  1  0.51078011  0.00157903  0.11550307  1
  O  O344  1  0.50670934  0.01292818  0.62270169  1
  O  O345  1  0.50750687  0.50338991  0.11186418  1
  O  O346  1  0.49437180  0.51098170  0.61512553  1
  O  O347  1  0.26493641  0.37784263  0.23560793  1
  O  O348  1  0.23736401  0.38262281  0.75221527  1
  O  O349  1  0.24887849  0.88900358  0.25488337  1
  O  O350  1  0.24302727  0.86996285  0.73983434  1
  O  O351  1  0.75205218  0.38861886  0.25964864  1
  O  O352  1  0.73569135  0.37557924  0.74450941  1
  O  O353  1  0.74653363  0.88147661  0.24392572  1
  O  O354  1  0.74367148  0.88285526  0.73760721  1
  O  O355  1  0.25738253  0.11367430  0.25813742  1
  O  O356  1  0.24146694  0.12482743  0.76266251  1
  O  O357  1  0.25689209  0.63056503  0.26171942  1
  O  O358  1  0.25534587  0.61935997  0.75804784  1
  O  O359  1  0.75875444  0.11690313  0.25531836  1
  O  O360  1  0.74400882  0.11528802  0.75710243  1
  O  O361  1  0.75792476  0.61560165  0.26630834  1
  O  O362  1  0.77988225  0.60765405  0.72816975  1
  O  O363  1  0.37078217  0.11702344  0.36935438  1
  O  O364  1  0.36566472  0.11172880  0.87861149  1
  O  O365  1  0.36404999  0.63793384  0.36614693  1
  O  O366  1  0.36188905  0.61926436  0.87077210  1
  O  O367  1  0.86956421  0.11745763  0.37365824  1
  O  O368  1  0.86158635  0.11657750  0.87672081  1
  O  O369  1  0.86338769  0.62488417  0.37334584  1
  O  O370  1  0.87410787  0.62490181  0.86506156  1
  O  O371  1  0.14573799  0.36349665  0.13390995  1
  O  O372  1  0.12915011  0.37572368  0.63583045  1
  O  O373  1  0.12188772  0.88650414  0.12604137  1
  O  O374  1  0.13308902  0.88392475  0.63195397  1
  O  O375  1  0.62835897  0.38730263  0.13134503  1
  O  O376  1  0.63035746  0.37028177  0.62801082  1
  O  O377  1  0.63755644  0.88875439  0.13102778  1
  O  O378  1  0.63174055  0.88531441  0.62599413  1
  O  O379  1  0.11471165  0.24757996  0.25910828  1
  O  O380  1  0.11585167  0.25573475  0.75669731  1
  O  O381  1  0.11902673  0.75052453  0.26023987  1
  O  O382  1  0.11835435  0.75916531  0.75027401  1
  O  O383  1  0.62378164  0.24808769  0.24856605  1
  O  O384  1  0.62139139  0.26363376  0.74448196  1
  O  O385  1  0.61528284  0.76023447  0.25780128  1
  O  O386  1  0.61713374  0.77077237  0.72934280  1
  O  O387  1  0.36666885  0.23382778  0.23419943  1
  O  O388  1  0.37193643  0.24615125  0.74436747  1
  O  O389  1  0.37913869  0.74818360  0.24338586  1
  O  O390  1  0.36755413  0.74219168  0.74524510  1
  O  O391  1  0.88975124  0.23860433  0.25196108  1
  O  O392  1  0.88440308  0.25563464  0.74411234  1
  O  O393  1  0.88330954  0.74209714  0.25278969  1
  O  O394  1  0.88263602  0.73836829  0.74264995  1
  O  O395  1  0.37813635  0.50725444  0.50315530  1
  O  O396  1  0.37554601  0.49821892  0.98755934  1
  O  O397  1  0.37393009  0.99416852  0.49272135  1
  O  O398  1  0.38047406  0.99459540  0.99978848  1
  O  O399  1  0.88002277  0.49134844  0.49933936  1
  O  O400  1  0.89164653  0.49455247  0.99239466  1
  O  O401  1  0.88066073  0.99357521  0.49591993  1
  O  O402  1  0.88661376  0.99095402  0.99823416  1
  O  O403  1  0.12078159  0.00234043  0.00660972  1
  O  O404  1  0.11958896  0.00561114  0.51095191  1
  O  O405  1  0.11489746  0.51257560  -0.00276899  1
  O  O406  1  0.11564538  0.51123564  0.50427560  1
  O  O407  1  0.61822080  -0.00003683  0.00371705  1
  O  O408  1  0.62469224  0.00600234  0.51258819  1
  O  O409  1  0.61853929  0.49592837  0.00838584  1
  O  O410  1  0.62337480  0.51302144  0.50427821  1
  O  O411  1  0.36703402  0.36492095  0.11739126  1
  O  O412  1  0.37060282  0.35908856  0.63352441  1
  O  O413  1  0.37734846  0.86406213  0.11762500  1
  O  O414  1  0.36960514  0.87251941  0.62308048  1
  O  O415  1  0.86128555  0.36678268  0.13608316  1
  O  O416  1  0.86715378  0.36769871  0.62122582  1
  O  O417  1  0.86879962  0.87322244  0.11533714  1
  O  O418  1  0.86717648  0.86809810  0.61937521  1
  O  O419  1  0.12986223  0.12894612  0.38378273  1
  O  O420  1  0.13296757  0.13226668  0.88182091  1
  O  O421  1  0.13124735  0.63840304  0.38751473  1
  O  O422  1  0.13526155  0.62726819  0.87828864  1
  O  O423  1  0.63194352  0.12526096  0.38419060  1
  O  O424  1  0.63696697  0.11489424  0.88505660  1
  O  O425  1  0.62979403  0.63102557  0.38314301  1
  O  O426  1  0.64857003  0.59404804  0.85314492  1
