# generated using pymatgen
data_V85Zn86O256
_symmetry_space_group_name_H-M   'P 1'
_cell_length_a   16.95131054
_cell_length_b   16.94774357
_cell_length_c   16.94835241
_cell_angle_alpha   89.97038817
_cell_angle_beta   89.98077610
_cell_angle_gamma   89.99865392
_symmetry_Int_Tables_number   1
_chemical_formula_structural   V85Zn86O256
_chemical_formula_sum   'V85 Zn86 O256'
_cell_volume   4869.03131145
_cell_formula_units_Z   1
loop_
 _symmetry_equiv_pos_site_id
 _symmetry_equiv_pos_as_xyz
  1  'x, y, z'
loop_
 _atom_site_type_symbol
 _atom_site_label
 _atom_site_symmetry_multiplicity
 _atom_site_fract_x
 _atom_site_fract_y
 _atom_site_fract_z
 _atom_site_occupancy
  V  V0  1  -0.00214197  0.37447163  0.87168281  1
  V  V1  1  0.49595512  0.75120262  0.74970574  1
  V  V2  1  0.12474116  0.00137595  0.62417815  1
  V  V3  1  0.63648490  0.12639836  0.50126765  1
  V  V4  1  0.12074288  0.12766486  0.50550199  1
  V  V5  1  0.25691474  0.74728393  0.50310977  1
  V  V6  1  0.37744367  0.75515737  0.11833583  1
  V  V7  1  0.87268953  0.12705774  0.25198902  1
  V  V8  1  0.74103375  0.87069170  0.11784509  1
  V  V9  1  0.37778820  0.50284692  0.37726887  1
  V  V10  1  0.86898109  0.36948526  0.49579232  1
  V  V11  1  0.50466278  -0.00010944  0.50559578  1
  V  V12  1  0.49622722  0.01230946  0.01157521  1
  V  V13  1  0.62780519  0.61563070  0.01041651  1
  V  V14  1  0.12339052  0.50019309  0.62322989  1
  V  V15  1  0.49858397  0.62921115  0.62517212  1
  V  V16  1  0.37108823  0.23975721  0.12953161  1
  V  V17  1  0.00755445  0.75359160  0.25026270  1
  V  V18  1  -0.00066114  0.49369066  0.49557877  1
  V  V19  1  0.86841654  0.00567144  0.37771855  1
  V  V20  1  0.37361713  -0.00092453  0.37587270  1
  V  V21  1  0.87633232  0.62729861  0.24637815  1
  V  V22  1  0.25730706  0.87008054  0.62538981  1
  V  V23  1  0.62522836  0.49623821  0.63782691  1
  V  V24  1  0.74334995  0.00000532  0.25048640  1
  V  V25  1  0.12481883  0.62583757  0.49758361  1
  V  V26  1  0.88290699  0.24693713  0.11670738  1
  V  V27  1  0.00528382  0.87583082  0.37351411  1
  V  V28  1  0.75123227  0.38293300  0.12162815  1
  V  V29  1  0.51254510  0.25385793  0.75185663  1
  V  V30  1  0.75215036  0.62590060  0.37556071  1
  V  V31  1  0.25011800  0.12238060  0.87775342  1
  V  V32  1  0.74172375  0.88586556  0.62698498  1
  V  V33  1  0.11138565  0.11600905  0.00576272  1
  V  V34  1  0.75766383  0.63220554  0.86873745  1
  V  V35  1  0.12500839  0.50689097  0.12127887  1
  V  V36  1  0.25053267  0.87845670  0.12703735  1
  V  V37  1  0.37311179  0.62707168  0.74864688  1
  V  V38  1  0.37788329  0.49620296  0.87669109  1
  V  V39  1  0.63758649  0.23522277  0.88850198  1
  V  V40  1  0.62525354  0.38270084  0.24601417  1
  V  V41  1  -0.00138279  0.74798165  0.74878656  1
  V  V42  1  0.87474650  0.24403421  0.62010020  1
  V  V43  1  0.24599005  0.37367358  0.12296110  1
  V  V44  1  0.00102919  0.63023517  0.11631195  1
  V  V45  1  0.49939746  0.36413777  0.37484489  1
  V  V46  1  0.87784705  0.49552035  0.37279226  1
  V  V47  1  0.11993330  0.25528726  0.37642581  1
  V  V48  1  0.85798755  0.11797590  0.75108320  1
  V  V49  1  0.00133844  0.24656907  0.24734367  1
  V  V50  1  0.74822275  0.37092699  0.63109092  1
  V  V51  1  0.50519515  0.12191610  0.62736330  1
  V  V52  1  0.12247680  0.37283573  0.74894554  1
  V  V53  1  0.49536895  0.75149512  0.24707026  1
  V  V54  1  0.10845505  -0.00352953  0.13372531  1
  V  V55  1  0.24832809  0.12575712  0.37524304  1
  V  V56  1  0.86904491  0.74838973  0.63675226  1
  V  V57  1  0.49425237  0.87204625  0.88851121  1
  V  V58  1  -0.00694509  0.62432730  0.62405370  1
  V  V59  1  0.54872778  0.19907972  0.20064833  1
  V  V60  1  0.49979676  0.87220910  0.37709179  1
  V  V61  1  0.87433278  0.87481259  0.50173864  1
  V  V62  1  0.24875905  0.24652821  0.00020254  1
  V  V63  1  0.00189385  0.50333979  -0.00377881  1
  V  V64  1  0.74977514  0.74977407  0.50117705  1
  V  V65  1  0.43360055  0.57347948  0.19105311  1
  V  V66  1  -0.00037725  0.23744560  0.74434462  1
  V  V67  1  0.37247065  -0.00568159  0.88148052  1
  V  V68  1  0.11704825  0.37875543  0.25224106  1
  V  V69  1  -0.00059629  0.88409899  0.88264559  1
  V  V70  1  0.51417855  0.37680056  0.87436043  1
  V  V71  1  0.87066644  0.37535995  -0.00371398  1
  V  V72  1  0.12457544  0.87348931  0.74858470  1
  V  V73  1  0.24885536  0.50012264  0.75092822  1
  V  V74  1  0.62090042  0.88527212  0.74684615  1
  V  V75  1  0.62604851  0.74810680  0.88414549  1
  V  V76  1  0.50411452  0.49751989  0.50241805  1
  V  V77  1  0.25120357  0.37463478  0.62427968  1
  V  V78  1  0.12447115  0.74174955  0.88346822  1
  V  V79  1  0.25232697  0.62597727  0.36689107  1
  V  V80  1  0.25040907  -0.00028813  0.75084199  1
  V  V81  1  0.63873775  0.24877851  0.38175138  1
  V  V82  1  -0.00141334  0.00365695  0.50522830  1
  V  V83  1  0.12452640  0.24765633  0.87600590  1
  V  V84  1  0.37739332  0.24972137  0.62779609  1
  Zn  Zn85  1  0.24341433  -0.00622850  0.25410178  1
  Zn  Zn86  1  0.85956837  0.00973977  0.88317638  1
  Zn  Zn87  1  0.65937156  0.04854807  0.07513923  1
  Zn  Zn88  1  0.74767251  0.50573384  0.24291343  1
  Zn  Zn89  1  0.86713254  0.75163297  0.12127530  1
  Zn  Zn90  1  0.24636802  0.62222277  0.87946944  1
  Zn  Zn91  1  0.13043801  0.75637134  0.37302055  1
  Zn  Zn92  1  0.62747409  0.62420637  0.50302460  1
  Zn  Zn93  1  0.50286306  0.50175914  0.00938081  1
  Zn  Zn94  1  0.62441419  0.74927756  0.37533977  1
  Zn  Zn95  1  0.62369196  0.87717589  0.25022079  1
  Zn  Zn96  1  0.87673987  0.88073720  0.00677399  1
  Zn  Zn97  1  0.76387466  0.50689061  0.74564218  1
  Zn  Zn98  1  0.37856348  0.37185345  -0.00171110  1
  Zn  Zn99  1  0.87904157  0.50801428  0.86464010  1
  Zn  Zn100  1  0.37692776  0.12505270  0.75314058  1
  Zn  Zn101  1  0.25070574  0.50246301  0.24716309  1
  Zn  Zn102  1  0.25029623  0.25048894  0.50097702  1
  Zn  Zn103  1  0.25122627  0.74827273  0.00212882  1
  Zn  Zn104  1  0.37826537  0.87032421  0.50540902  1
  Zn  Zn105  1  0.37505689  0.37326534  0.49981517  1
  Zn  Zn106  1  0.37482093  0.12896635  0.25315252  1
  Zn  Zn107  1  0.18463420  0.18214983  0.18795769  1
  Zn  Zn108  1  0.18902187  0.18675217  0.68833688  1
  Zn  Zn109  1  0.18835015  0.68970816  0.18617528  1
  Zn  Zn110  1  0.18551424  0.68707787  0.68782614  1
  Zn  Zn111  1  0.72265257  0.17465543  0.14582326  1
  Zn  Zn112  1  0.68741701  0.19006909  0.68594327  1
  Zn  Zn113  1  0.68331093  0.69135452  0.19118750  1
  Zn  Zn114  1  0.68199491  0.69096827  0.69121991  1
  Zn  Zn115  1  0.30687293  0.31361785  0.31078036  1
  Zn  Zn116  1  0.31571893  0.31233302  0.81180383  1
  Zn  Zn117  1  0.31480298  0.81213379  0.30730305  1
  Zn  Zn118  1  0.31166407  0.81133036  0.81271458  1
  Zn  Zn119  1  0.81277672  0.31541800  0.30623601  1
  Zn  Zn120  1  0.81186103  0.31063981  0.80948229  1
  Zn  Zn121  1  0.81588855  0.81483952  0.31096415  1
  Zn  Zn122  1  0.79223292  0.84419753  0.83260223  1
  Zn  Zn123  1  0.18975247  0.43810758  0.43612956  1
  Zn  Zn124  1  0.18603053  0.43796768  0.93751013  1
  Zn  Zn125  1  0.18763347  0.93706133  0.44060548  1
  Zn  Zn126  1  0.18411524  0.93222927  0.94377956  1
  Zn  Zn127  1  0.68969202  0.43695489  0.43841417  1
  Zn  Zn128  1  0.69182070  0.44479512  0.93233724  1
  Zn  Zn129  1  0.68489872  0.93789618  0.43831764  1
  Zn  Zn130  1  0.68143216  0.94104386  0.93282906  1
  Zn  Zn131  1  0.30960749  0.05863690  0.06168002  1
  Zn  Zn132  1  0.31435482  0.06286005  0.56123744  1
  Zn  Zn133  1  0.30484580  0.56396596  0.05242921  1
  Zn  Zn134  1  0.31495581  0.56290983  0.56189978  1
  Zn  Zn135  1  0.83081125  0.06149824  0.05856413  1
  Zn  Zn136  1  0.81438435  0.06338738  0.56826469  1
  Zn  Zn137  1  0.81206456  0.56608609  0.05407541  1
  Zn  Zn138  1  0.81267945  0.56055586  0.56359487  1
  Zn  Zn139  1  0.43466250  0.40776645  0.19052901  1
  Zn  Zn140  1  0.43904814  0.43674422  0.69164872  1
  Zn  Zn141  1  0.43256360  0.93642607  0.19038788  1
  Zn  Zn142  1  0.43677441  0.93987680  0.69169756  1
  Zn  Zn143  1  0.93883427  0.43931746  0.18538324  1
  Zn  Zn144  1  0.93411076  0.43360697  0.68641943  1
  Zn  Zn145  1  0.92968301  0.93493088  0.19112586  1
  Zn  Zn146  1  0.93594022  0.93563428  0.68738602  1
  Zn  Zn147  1  0.05848259  0.06482579  0.31511368  1
  Zn  Zn148  1  0.06380275  0.06183091  0.81325377  1
  Zn  Zn149  1  0.06214624  0.56561936  0.31086943  1
  Zn  Zn150  1  0.05721424  0.56396347  0.80772136  1
  Zn  Zn151  1  0.56377999  0.06233467  0.32411845  1
  Zn  Zn152  1  0.55935367  0.06342785  0.81866275  1
  Zn  Zn153  1  0.56841861  0.55941377  0.31978731  1
  Zn  Zn154  1  0.56425602  0.56564945  0.81607838  1
  Zn  Zn155  1  0.43700163  0.18517108  0.44266601  1
  Zn  Zn156  1  0.43812511  0.18859116  0.93710844  1
  Zn  Zn157  1  0.43590140  0.68571546  0.43781207  1
  Zn  Zn158  1  0.44091706  0.68079604  0.93986309  1
  Zn  Zn159  1  0.93900698  0.18799351  0.43419455  1
  Zn  Zn160  1  0.93392712  0.18692103  0.93115025  1
  Zn  Zn161  1  0.93597331  0.68838774  0.43844878  1
  Zn  Zn162  1  0.93333720  0.70057258  0.93937483  1
  Zn  Zn163  1  0.06150108  0.31436064  0.06005721  1
  Zn  Zn164  1  0.05769924  0.31350728  0.56194388  1
  Zn  Zn165  1  0.06274043  0.81690924  0.06468865  1
  Zn  Zn166  1  0.06538396  0.81249037  0.56090951  1
  Zn  Zn167  1  0.56673166  0.31910298  0.05685391  1
  Zn  Zn168  1  0.56521573  0.31203744  0.56185430  1
  Zn  Zn169  1  0.56452404  0.81301482  0.06552082  1
  Zn  Zn170  1  0.56315126  0.81023958  0.56315436  1
  O  O171  1  0.12721332  0.11274996  0.11413098  1
  O  O172  1  0.13060497  0.12159415  0.61177806  1
  O  O173  1  0.11805924  0.61374384  0.12966948  1
  O  O174  1  0.11742305  0.61849041  0.61763535  1
  O  O175  1  0.60920309  0.13822042  0.14722279  1
  O  O176  1  0.61207811  0.13399335  0.61724688  1
  O  O177  1  0.63456401  0.62824175  0.10903219  1
  O  O178  1  0.61559433  0.61673863  0.62404441  1
  O  O179  1  0.38054856  0.38455511  0.37370899  1
  O  O180  1  0.38232438  0.38137659  0.87616996  1
  O  O181  1  0.38335611  0.88122024  0.37871878  1
  O  O182  1  0.38207256  0.88220396  0.86973032  1
  O  O183  1  0.87054079  0.38439725  0.38069834  1
  O  O184  1  0.88256395  0.37359404  0.88000310  1
  O  O185  1  0.88407691  0.88210754  0.38359549  1
  O  O186  1  0.89898058  0.86166525  0.87238039  1
  O  O187  1  0.25576525  0.00574877  0.37695081  1
  O  O188  1  0.25365777  0.00036822  0.87385296  1
  O  O189  1  0.26088510  0.50491103  0.37191025  1
  O  O190  1  0.25653339  0.49768081  0.86730259  1
  O  O191  1  0.76405321  -0.00590718  0.37413331  1
  O  O192  1  0.76367550  -0.04664399  0.86177526  1
  O  O193  1  0.76152375  0.50846526  0.37451186  1
  O  O194  1  0.75463736  0.51689041  0.86798060  1
  O  O195  1  0.24223078  0.49261574  0.12405568  1
  O  O196  1  0.24526693  0.49353276  0.62951946  1
  O  O197  1  0.24654545  0.99000567  0.12921969  1
  O  O198  1  0.24461392  0.99420390  0.62859440  1
  O  O199  1  0.76241964  0.48807791  0.12556812  1
  O  O200  1  0.74061246  0.49566343  0.62528911  1
  O  O201  1  0.74402882  0.98753352  0.13828867  1
  O  O202  1  0.75108754  0.98455054  0.62253333  1
  O  O203  1  0.01155361  0.37025252  0.24822534  1
  O  O204  1  0.00611503  0.36580655  0.75351908  1
  O  O205  1  -0.00811583  0.86509724  0.26084732  1
  O  O206  1  0.00766579  0.86476098  0.74952786  1
  O  O207  1  0.51158365  0.37551814  0.26277402  1
  O  O208  1  0.49646040  0.36473209  0.76008788  1
  O  O209  1  0.49975364  0.86893742  0.26008833  1
  O  O210  1  0.50405103  0.86717871  0.75324660  1
  O  O211  1  0.49572745  0.13317646  0.25879099  1
  O  O212  1  0.49841180  0.13203537  0.74309705  1
  O  O213  1  0.49995404  0.62637241  0.25046207  1
  O  O214  1  0.49379002  0.63062544  0.74446073  1
  O  O215  1  0.99089349  0.13710326  0.25522214  1
  O  O216  1  1.00248974  0.13583576  0.74962479  1
  O  O217  1  0.99364265  0.63013109  0.23978225  1
  O  O218  1  1.00401186  0.64004709  0.73941907  1
  O  O219  1  0.36546030  0.24998768  0.00683869  1
  O  O220  1  0.37364687  0.25268387  0.51450320  1
  O  O221  1  0.37878720  0.74293697  0.01513123  1
  O  O222  1  0.36154139  0.74915682  0.50022203  1
  O  O223  1  0.88710098  0.26006474  0.00744651  1
  O  O224  1  0.88326800  0.25831144  0.50564802  1
  O  O225  1  0.88407673  0.76673604  0.01097366  1
  O  O226  1  0.86514942  0.75575444  0.50712095  1
  O  O227  1  0.12318814  0.24551829  0.49384518  1
  O  O228  1  0.12997560  0.24010193  0.99783465  1
  O  O229  1  0.13533797  0.74285333  0.49619918  1
  O  O230  1  0.11944310  0.75125474  0.98459715  1
  O  O231  1  0.62596460  0.24471601  0.48936645  1
  O  O232  1  0.62247520  0.24956461  0.98726792  1
  O  O233  1  0.63790546  0.74689964  0.49876414  1
  O  O234  1  0.61692620  0.74284733  0.98766965  1
  O  O235  1  0.49286832  0.25540911  0.13159703  1
  O  O236  1  0.49509614  0.24708736  0.63246900  1
  O  O237  1  0.49135536  0.75576274  0.13430379  1
  O  O238  1  0.50216027  0.73699389  0.63119647  1
  O  O239  1  0.99648894  0.25857521  0.13773495  1
  O  O240  1  0.98891264  0.25626007  0.63362648  1
  O  O241  1  1.00420806  0.74393375  0.13313620  1
  O  O242  1  0.99288409  0.74665438  0.62872223  1
  O  O243  1  0.01312846  0.25024479  0.36616380  1
  O  O244  1  0.00665141  0.25455922  0.86530620  1
  O  O245  1  0.00009990  0.75808366  0.37018611  1
  O  O246  1  0.01112324  0.75343803  0.86494386  1
  O  O247  1  0.50305766  0.26192768  0.38460612  1
  O  O248  1  0.50538065  0.25705375  0.86874930  1
  O  O249  1  0.49741638  0.75659588  0.37143467  1
  O  O250  1  0.50127363  0.75544773  0.86893870  1
  O  O251  1  0.24188369  0.12690744  0.49102321  1
  O  O252  1  0.24128205  0.12892348  0.99439177  1
  O  O253  1  0.24630772  0.62919373  0.49335921  1
  O  O254  1  0.24720933  0.63464433  0.99172940  1
  O  O255  1  0.73558939  0.11775030  0.50631469  1
  O  O256  1  0.73924719  0.12263730  1.04571099  1
  O  O257  1  0.75241989  0.63246508  0.49283879  1
  O  O258  1  0.73831019  0.62350598  0.98581533  1
  O  O259  1  0.24549725  0.36697774  0.01053621  1
  O  O260  1  0.25169225  0.37459485  0.51272790  1
  O  O261  1  0.24259652  0.86684615  0.01874350  1
  O  O262  1  0.25110467  0.86599976  0.50763799  1
  O  O263  1  0.76424619  0.38312152  0.00211173  1
  O  O264  1  0.76386763  0.38155712  0.50872961  1
  O  O265  1  0.74133969  0.87835433  0.01673704  1
  O  O266  1  0.75170092  0.86767815  0.50661155  1
  O  O267  1  0.12431916  0.49367905  0.24206478  1
  O  O268  1  0.12865289  0.49396253  0.74338997  1
  O  O269  1  0.12474488  1.00989554  0.23715266  1
  O  O270  1  0.13048208  0.99410456  0.74359826  1
  O  O271  1  0.62886686  0.48712672  0.25484075  1
  O  O272  1  0.62525827  0.50174781  0.73911395  1
  O  O273  1  0.64023965  1.00302077  0.26521532  1
  O  O274  1  0.61433607  0.98363665  0.75441869  1
  O  O275  1  0.37304037  0.00430365  0.26576061  1
  O  O276  1  0.36759028  0.00279594  0.76205971  1
  O  O277  1  0.37854593  0.50425293  0.25211619  1
  O  O278  1  0.36894801  0.50445869  0.75861575  1
  O  O279  1  0.86885427  0.00861488  0.25958548  1
  O  O280  1  0.88133627  0.01832141  0.74374846  1
  O  O281  1  0.87763056  0.51116629  0.25663830  1
  O  O282  1  0.87981435  0.50493823  0.75012681  1
  O  O283  1  0.13206143  0.36756215  0.36512368  1
  O  O284  1  0.11929125  0.36724877  0.86948182  1
  O  O285  1  0.11008671  0.87642191  0.38092232  1
  O  O286  1  0.11677325  0.86799234  0.86679407  1
  O  O287  1  0.62071371  0.36592047  0.37140423  1
  O  O288  1  0.61639421  0.37274655  0.87805566  1
  O  O289  1  0.61045304  0.87249183  0.37614770  1
  O  O290  1  0.61214461  0.86503147  0.86482440  1
  O  O291  1  0.36624102  0.13577656  0.12887256  1
  O  O292  1  0.38456780  0.13305921  0.62601848  1
  O  O293  1  0.37092457  0.62774829  0.13123729  1
  O  O294  1  0.38372415  0.61587011  0.63941127  1
  O  O295  1  0.88435340  0.13997116  0.13480751  1
  O  O296  1  0.87394733  0.13667919  0.63259524  1
  O  O297  1  0.88219775  0.62632706  0.13108046  1
  O  O298  1  0.88226582  0.63604148  0.61667716  1
  O  O299  1  0.25110471  0.25452821  0.12087273  1
  O  O300  1  0.25800624  0.25741893  0.62566148  1
  O  O301  1  0.25749496  0.75821061  0.12784259  1
  O  O302  1  0.24418199  0.75807591  0.61706997  1
  O  O303  1  0.77418433  0.27322030  0.13109740  1
  O  O304  1  0.76024457  0.25844644  0.62648612  1
  O  O305  1  0.74978035  0.76603470  0.13646052  1
  O  O306  1  0.75400121  0.75243339  0.61879336  1
  O  O307  1  0.23901718  0.24446243  0.37852407  1
  O  O308  1  0.24402759  0.24456290  0.87909752  1
  O  O309  1  0.25124375  0.74247318  0.38054825  1
  O  O310  1  0.23332112  0.75323830  0.87301039  1
  O  O311  1  0.73656798  0.25511420  0.37087391  1
  O  O312  1  0.73510212  0.25456711  0.87117504  1
  O  O313  1  0.75264615  0.74364497  0.38278191  1
  O  O314  1  0.73759185  0.74456992  0.87044737  1
  O  O315  1  0.01396361  0.12937595  -0.00519370  1
  O  O316  1  0.00844071  0.11549057  0.49538188  1
  O  O317  1  -0.00442313  0.61994911  0.01009270  1
  O  O318  1  0.00397149  0.61636636  0.50350106  1
  O  O319  1  0.49481537  0.11153046  0.00127943  1
  O  O320  1  0.50605119  0.11776532  0.50848954  1
  O  O321  1  0.51918075  0.61749358  -0.00528082  1
  O  O322  1  0.50010651  0.61785716  0.50920269  1
  O  O323  1  0.49793098  0.38270742  0.49510362  1
  O  O324  1  0.49753300  0.38363757  0.99185275  1
  O  O325  1  0.49819556  0.88092320  0.49722035  1
  O  O326  1  0.49888269  0.87601322  0.98987367  1
  O  O327  1  0.99031660  0.38796353  0.50177424  1
  O  O328  1  0.99384061  0.38311606  0.99198072  1
  O  O329  1  0.99383618  0.88114863  0.49540619  1
  O  O330  1  1.01001979  0.87911872  0.98408837  1
  O  O331  1  0.49562977  0.49332137  0.38398354  1
  O  O332  1  0.49317246  0.49148978  0.87020165  1
  O  O333  1  0.49218677  0.99266746  0.38359366  1
  O  O334  1  0.48912328  0.99185702  0.88133365  1
  O  O335  1  0.98756456  0.50757357  0.38167936  1
  O  O336  1  1.00187903  0.49566110  0.88107944  1
  O  O337  1  0.99166820  0.99435319  0.38388214  1
  O  O338  1  0.99807210  0.98455786  0.86405448  1
  O  O339  1  0.00980458  -0.00564183  0.13142350  1
  O  O340  1  0.00661523  -0.00733024  0.61186467  1
  O  O341  1  0.00604140  0.50842491  0.11712935  1
  O  O342  1  0.00478036  0.50423239  0.61517491  1
  O  O343  1  0.48956200  -0.00347567  0.11080841  1
  O  O344  1  0.49336926  0.00970015  0.61808260  1
  O  O345  1  0.48204182  0.50513105  0.13308752  1
  O  O346  1  0.50536948  0.50456840  0.62050867  1
  O  O347  1  0.23830591  0.37784980  0.23775776  1
  O  O348  1  0.24407118  0.37794789  0.74025901  1
  O  O349  1  0.24799815  0.87507546  0.23664830  1
  O  O350  1  0.24341119  0.87876756  0.74319242  1
  O  O351  1  0.74322179  0.38132067  0.24218438  1
  O  O352  1  0.75747762  0.38076526  0.73411556  1
  O  O353  1  0.74681471  0.88460144  0.25125762  1
  O  O354  1  0.72670289  0.86000853  0.73749672  1
  O  O355  1  0.24824321  0.12328747  0.26607981  1
  O  O356  1  0.24925411  0.11715964  0.75944000  1
  O  O357  1  0.24577215  0.62240010  0.26332178  1
  O  O358  1  0.25720448  0.61955462  0.75190440  1
  O  O359  1  0.76562835  0.11897719  0.24212543  1
  O  O360  1  0.75927728  0.12216896  0.74412910  1
  O  O361  1  0.75789877  0.62539362  0.25668103  1
  O  O362  1  0.74489197  0.62783913  0.76400164  1
  O  O363  1  0.36549301  0.11924565  0.37860336  1
  O  O364  1  0.36610368  0.11732588  0.87486697  1
  O  O365  1  0.36877699  0.61114304  0.37894730  1
  O  O366  1  0.37646923  0.61575021  0.86316472  1
  O  O367  1  0.87774697  0.11706441  0.36750666  1
  O  O368  1  0.87349134  0.12519491  0.85734332  1
  O  O369  1  0.86795666  0.62020040  0.36862712  1
  O  O370  1  0.86070347  0.63251055  0.87993657  1
  O  O371  1  0.12802594  0.38520423  0.12983292  1
  O  O372  1  0.13164733  0.37980551  0.62794932  1
  O  O373  1  0.13041762  0.89035922  0.12530948  1
  O  O374  1  0.13410591  0.88066989  0.62957330  1
  O  O375  1  0.63656931  0.36875550  0.13444675  1
  O  O376  1  0.63553885  0.38326598  0.61817973  1
  O  O377  1  0.63394994  0.87414830  0.13303469  1
  O  O378  1  0.62579750  0.87256106  0.63666630  1
  O  O379  1  0.11948405  0.25529193  0.25516190  1
  O  O380  1  0.11878519  0.25374149  0.75322813  1
  O  O381  1  0.11167825  0.74350398  0.25572334  1
  O  O382  1  0.11778310  0.75702357  0.75349105  1
  O  O383  1  0.61413254  0.25512532  0.26093468  1
  O  O384  1  0.61483623  0.24843318  0.75631618  1
  O  O385  1  0.60886082  0.74950233  0.25648381  1
  O  O386  1  0.60840258  0.75211007  0.75919971  1
  O  O387  1  0.37031081  0.25064031  0.23971329  1
  O  O388  1  0.38193814  0.24719545  0.74006598  1
  O  O389  1  0.38691189  0.74741700  0.24228589  1
  O  O390  1  0.38527256  0.74120217  0.75429602  1
  O  O391  1  0.88440353  0.24620865  0.24706154  1
  O  O392  1  0.88157935  0.24030022  0.74201778  1
  O  O393  1  0.88479406  0.73809772  0.24996442  1
  O  O394  1  0.88244705  0.75662117  0.73815261  1
  O  O395  1  0.38611725  0.49707923  0.49399153  1
  O  O396  1  0.37695371  0.49906610  0.98599846  1
  O  O397  1  0.38445474  0.99873253  0.49143787  1
  O  O398  1  0.38098264  1.00044436  0.98951486  1
  O  O399  1  0.88151459  0.49380339  0.49264494  1
  O  O400  1  0.88811824  0.49449828  0.99358575  1
  O  O401  1  0.88181875  0.99798331  0.49667384  1
  O  O402  1  0.88340750  0.99318034  0.99356224  1
  O  O403  1  0.12564280  0.01050991  0.01067960  1
  O  O404  1  0.11817269  0.00827194  0.50381062  1
  O  O405  1  0.11188764  0.49511887  0.00749829  1
  O  O406  1  0.11724697  0.50346981  0.50191693  1
  O  O407  1  0.60292839  -0.00586821  -0.00411844  1
  O  O408  1  0.61144734  0.00932916  0.49291371  1
  O  O409  1  0.62487547  0.51047439  0.00096531  1
  O  O410  1  0.61440445  0.50133045  0.50451024  1
  O  O411  1  0.36160261  0.36305001  0.11950186  1
  O  O412  1  0.36737256  0.36924464  0.62654983  1
  O  O413  1  0.36268261  0.86780229  0.12752524  1
  O  O414  1  0.36108332  0.87991134  0.62585430  1
  O  O415  1  0.87737579  0.37265861  0.11369817  1
  O  O416  1  0.86929785  0.36556664  0.61507245  1
  O  O417  1  0.85633982  0.87533468  0.12979983  1
  O  O418  1  0.86492072  0.86755484  0.62024891  1
  O  O419  1  0.12925853  0.13194498  0.38518518  1
  O  O420  1  0.13024349  0.12695875  0.88556683  1
  O  O421  1  0.13451981  0.62353344  0.38235159  1
  O  O422  1  0.12442551  0.63944213  0.86582438  1
  O  O423  1  0.62012859  0.14181694  0.38541022  1
  O  O424  1  0.62512817  0.13560084  0.87485641  1
  O  O425  1  0.64043640  0.62562043  0.37939271  1
  O  O426  1  0.63300910  0.63285123  0.87954961  1
