# generated using pymatgen
data_V85Zn86O256
_symmetry_space_group_name_H-M   'P 1'
_cell_length_a   16.95242556
_cell_length_b   16.95078908
_cell_length_c   16.93691192
_cell_angle_alpha   90.03850284
_cell_angle_beta   89.94470730
_cell_angle_gamma   89.95812737
_symmetry_Int_Tables_number   1
_chemical_formula_structural   V85Zn86O256
_chemical_formula_sum   'V85 Zn86 O256'
_cell_volume   4866.93536355
_cell_formula_units_Z   1
loop_
 _symmetry_equiv_pos_site_id
 _symmetry_equiv_pos_as_xyz
  1  'x, y, z'
loop_
 _atom_site_type_symbol
 _atom_site_label
 _atom_site_symmetry_multiplicity
 _atom_site_fract_x
 _atom_site_fract_y
 _atom_site_fract_z
 _atom_site_occupancy
  V  V0  1  0.86899957  0.50168381  0.87594918  1
  V  V1  1  0.62948886  0.87649568  0.24639611  1
  V  V2  1  0.50654579  0.00666417  0.49805534  1
  V  V3  1  0.12422997  0.00033511  0.62740150  1
  V  V4  1  0.37320912  0.37513324  0.00766103  1
  V  V5  1  0.63020464  0.75299035  0.37480514  1
  V  V6  1  0.50107060  0.86852597  0.87316958  1
  V  V7  1  0.24864128  0.87718773  0.13410008  1
  V  V8  1  0.37271331  0.49913091  0.87682327  1
  V  V9  1  0.56093879  0.56388728  0.17357680  1
  V  V10  1  0.49677419  0.24935807  0.75667139  1
  V  V11  1  0.24427117  0.50032410  0.75064560  1
  V  V12  1  0.74554786  0.51010399  0.75299716  1
  V  V13  1  0.37078100  0.24505146  0.62079485  1
  V  V14  1  0.11862214  0.87531425  0.25724723  1
  V  V15  1  -0.00238935  0.62664629  0.63069671  1
  V  V16  1  0.37801288  0.50150942  0.38135225  1
  V  V17  1  0.87697545  0.25395545  0.62730321  1
  V  V18  1  0.74360507  0.38092667  0.12636343  1
  V  V19  1  0.87486782  0.75118184  0.62582225  1
  V  V20  1  0.75522874  0.74575373  -0.00524387  1
  V  V21  1  0.12297142  0.62824431  0.50378404  1
  V  V22  1  0.20403330  0.29160145  0.44377315  1
  V  V23  1  0.37714643  0.87770038  0.49748797  1
  V  V24  1  0.11174020  0.74983565  0.37704606  1
  V  V25  1  0.74562855  0.37383528  0.62590870  1
  V  V26  1  0.73721951  0.24918597  -0.01354019  1
  V  V27  1  0.50430276  0.00134291  -0.00136906  1
  V  V28  1  0.36021058  0.22454874  0.13522207  1
  V  V29  1  -0.00116406  0.75886225  0.75598361  1
  V  V30  1  -0.00850113  0.50155762  0.50005808  1
  V  V31  1  0.50059150  0.24304999  0.24724160  1
  V  V32  1  0.38054134  0.62290198  0.74722701  1
  V  V33  1  0.75888612  0.87417394  0.12264755  1
  V  V34  1  0.88301003  0.87503586  0.49486484  1
  V  V35  1  0.74334939  0.23719247  0.50313832  1
  V  V36  1  0.24981020  0.75093165  0.50048761  1
  V  V37  1  0.50533222  0.50238387  0.00087543  1
  V  V38  1  0.62502027  0.87361977  0.74653732  1
  V  V39  1  0.25075117  0.63103799  0.37689113  1
  V  V40  1  0.24836943  0.12558983  0.88005448  1
  V  V41  1  0.88322929  0.86971318  0.00002020  1
  V  V42  1  0.87945204  0.12801691  0.75156031  1
  V  V43  1  0.00208177  0.13110065  0.62095024  1
  V  V44  1  -0.00499285  0.74197548  0.23559475  1
  V  V45  1  0.12071359  0.75588509  0.87785349  1
  V  V46  1  0.62361478  0.37412072  0.75685219  1
  V  V47  1  0.24471900  0.37124674  0.62720065  1
  V  V48  1  0.87989966  -0.00100806  0.87624940  1
  V  V49  1  -0.00707710  0.49548779  0.00254497  1
  V  V50  1  0.00051069  0.00061338  -0.00126732  1
  V  V51  1  0.38320520  0.74628479  0.62380600  1
  V  V52  1  0.87550404  0.25210201  0.10594770  1
  V  V53  1  0.37545737  0.62411628  0.24514401  1
  V  V54  1  0.50682808  0.37367608  0.37746354  1
  V  V55  1  0.87309630  -0.00322313  0.36891043  1
  V  V56  1  0.37273248  0.12451403  0.75216686  1
  V  V57  1  0.24275566  0.50162577  0.25011401  1
  V  V58  1  0.50030432  0.36419606  0.88114234  1
  V  V59  1  0.75134275  0.00128838  0.75787024  1
  V  V60  1  0.25152122  0.87573255  0.62876974  1
  V  V61  1  0.87410977  0.61865107  0.23609413  1
  V  V62  1  0.12019879  0.12800346  0.00678200  1
  V  V63  1  0.87298462  0.14229548  0.25570173  1
  V  V64  1  0.11439378  0.25009303  0.86844442  1
  V  V65  1  0.24122271  0.38268905  0.12628408  1
  V  V66  1  0.37222150  -0.00163030  0.87808228  1
  V  V67  1  0.11593515  0.62481352  0.00684632  1
  V  V68  1  0.75287289  0.61605400  0.37421628  1
  V  V69  1  0.51107134  0.12677843  0.62530288  1
  V  V70  1  0.61437298  0.62415266  0.50384588  1
  V  V71  1  0.37555651  0.87476771  0.00224348  1
  V  V72  1  0.50157200  0.87711416  0.37272801  1
  V  V73  1  0.62781176  0.23043682  0.37744060  1
  V  V74  1  0.63197828  0.00731855  0.12091673  1
  V  V75  1  0.60808750  0.50186714  0.62219316  1
  V  V76  1  0.36770521  0.01194803  0.36120622  1
  V  V77  1  0.24959612  0.74712150  0.00145695  1
  V  V78  1  0.13962558  0.11641961  0.48633162  1
  V  V79  1  0.87076558  0.37585233  0.49171216  1
  V  V80  1  0.62596651  0.62410608  -0.00911717  1
  V  V81  1  0.38295193  0.37388018  0.50154008  1
  V  V82  1  0.12044314  0.00183569  0.13191005  1
  V  V83  1  0.75166218  0.87622814  0.62249992  1
  V  V84  1  0.38303721  0.74922882  0.12551093  1
  Zn  Zn85  1  0.12229325  0.87967133  0.75870747  1
  Zn  Zn86  1  0.03766173  0.18308000  0.17841342  1
  Zn  Zn87  1  0.86701933  0.63031165  0.75508205  1
  Zn  Zn88  1  0.62701105  0.38162765  0.24855771  1
  Zn  Zn89  1  0.50654170  0.74833860  0.24408703  1
  Zn  Zn90  1  0.50298238  0.74340656  0.74617144  1
  Zn  Zn91  1  0.50780092  0.12668608  0.12221447  1
  Zn  Zn92  1  0.87128107  0.49637925  0.36756075  1
  Zn  Zn93  1  0.05119407  0.31394719  0.31182663  1
  Zn  Zn94  1  0.74874572  0.00903073  0.25484251  1
  Zn  Zn95  1  -0.00752284  0.37575691  0.86552212  1
  Zn  Zn96  1  0.24838793  -0.00124181  0.75323972  1
  Zn  Zn97  1  0.24408900  0.25709299  -0.00007838  1
  Zn  Zn98  1  0.00105034  -0.00210286  0.49551880  1
  Zn  Zn99  1  0.12011006  0.49843606  0.62844120  1
  Zn  Zn100  1  0.75115375  0.74853630  0.49961597  1
  Zn  Zn101  1  0.63117105  0.00705972  0.61959769  1
  Zn  Zn102  1  0.11241399  0.50324188  0.13094366  1
  Zn  Zn103  1  0.24856113  0.62572646  0.87459400  1
  Zn  Zn104  1  0.11700762  0.36333639  0.74160369  1
  Zn  Zn105  1  0.63670911  0.12274613  -0.03847007  1
  Zn  Zn106  1  0.63183956  0.74507474  0.86983443  1
  Zn  Zn107  1  0.20095654  0.19412556  0.20465429  1
  Zn  Zn108  1  0.18904105  0.18313027  0.68690839  1
  Zn  Zn109  1  0.18714162  0.68796854  0.18835024  1
  Zn  Zn110  1  0.18844124  0.68844241  0.69049564  1
  Zn  Zn111  1  0.69333560  0.19258650  0.18675757  1
  Zn  Zn112  1  0.67456107  0.17268447  0.75663613  1
  Zn  Zn113  1  0.70001875  0.69299855  0.18652545  1
  Zn  Zn114  1  0.68350779  0.68876658  0.68168360  1
  Zn  Zn115  1  0.31717891  0.31911030  0.30578616  1
  Zn  Zn116  1  0.30926578  0.31193792  0.81484722  1
  Zn  Zn117  1  0.31380308  0.81473182  0.31229083  1
  Zn  Zn118  1  0.31188121  0.80923372  0.81237657  1
  Zn  Zn119  1  0.80258288  0.31287903  0.31166504  1
  Zn  Zn120  1  0.81435971  0.31708917  0.81140070  1
  Zn  Zn121  1  0.81509834  0.81108854  0.31086617  1
  Zn  Zn122  1  0.81538095  0.81612386  0.81636352  1
  Zn  Zn123  1  0.18616207  0.45688140  0.44098090  1
  Zn  Zn124  1  0.18230931  0.43892780  0.93709859  1
  Zn  Zn125  1  0.19062130  0.93769181  0.43603656  1
  Zn  Zn126  1  0.18717911  0.93679754  0.94393475  1
  Zn  Zn127  1  0.68654078  0.43875672  0.44229933  1
  Zn  Zn128  1  0.68970182  0.43419534  0.94137207  1
  Zn  Zn129  1  0.69225418  0.94157976  0.43786226  1
  Zn  Zn130  1  0.69072511  0.93320502  0.93586086  1
  Zn  Zn131  1  0.30479167  0.06952484  0.08220136  1
  Zn  Zn132  1  0.31743697  0.05865974  0.56028375  1
  Zn  Zn133  1  0.31393982  0.56397634  0.06322321  1
  Zn  Zn134  1  0.31369459  0.56145055  0.56554044  1
  Zn  Zn135  1  0.81287992  0.07070589  0.06410702  1
  Zn  Zn136  1  0.81543606  0.06039986  0.56398672  1
  Zn  Zn137  1  0.81106479  0.56189491  0.05955457  1
  Zn  Zn138  1  0.80509297  0.56337764  0.56538684  1
  Zn  Zn139  1  0.43206407  0.42799877  0.19525663  1
  Zn  Zn140  1  0.43274774  0.43391053  0.69025469  1
  Zn  Zn141  1  0.44299098  0.93861848  0.18571281  1
  Zn  Zn142  1  0.43784427  0.93974326  0.68692918  1
  Zn  Zn143  1  0.93491135  0.42325799  0.18638748  1
  Zn  Zn144  1  0.93529762  0.43794279  0.69041839  1
  Zn  Zn145  1  0.94107153  0.93518752  0.18937915  1
  Zn  Zn146  1  0.93938189  0.93909336  0.68508678  1
  Zn  Zn147  1  0.05298131  0.06033350  0.31390418  1
  Zn  Zn148  1  0.05976335  0.06485827  0.81233022  1
  Zn  Zn149  1  0.03256005  0.52080833  0.29031099  1
  Zn  Zn150  1  0.05995724  0.56691227  0.81794631  1
  Zn  Zn151  1  0.55809824  0.05994489  0.30808212  1
  Zn  Zn152  1  0.55656813  0.05350379  0.80800464  1
  Zn  Zn153  1  0.56101685  0.56315873  0.33744202  1
  Zn  Zn154  1  0.55948170  0.55698342  0.81514178  1
  Zn  Zn155  1  0.43605283  0.18664954  0.43797846  1
  Zn  Zn156  1  0.43203168  0.18227300  0.95473483  1
  Zn  Zn157  1  0.43983286  0.69306126  0.43396175  1
  Zn  Zn158  1  0.43885829  0.68334102  0.93760700  1
  Zn  Zn159  1  0.93649640  0.18257399  0.43127577  1
  Zn  Zn160  1  0.93738750  0.18285745  0.93758093  1
  Zn  Zn161  1  0.93400138  0.68453562  0.43792252  1
  Zn  Zn162  1  0.93556225  0.68182997  0.93633603  1
  Zn  Zn163  1  0.06169107  0.32070169  0.05574767  1
  Zn  Zn164  1  0.03546156  0.29075040  0.51204110  1
  Zn  Zn165  1  0.06180822  0.81437482  0.06517359  1
  Zn  Zn166  1  0.06211615  0.81401516  0.56692671  1
  Zn  Zn167  1  0.56545023  0.30979744  0.06427507  1
  Zn  Zn168  1  0.56298628  0.30892983  0.56474756  1
  Zn  Zn169  1  0.56921227  0.81278471  0.06024993  1
  Zn  Zn170  1  0.56401125  0.81508412  0.55935694  1
  O  O171  1  0.12348802  0.11722449  0.12139682  1
  O  O172  1  0.12175398  0.11566699  0.62010069  1
  O  O173  1  0.13092997  0.62369003  0.11079042  1
  O  O174  1  0.11613584  0.62812397  0.62088083  1
  O  O175  1  0.62760375  0.11241968  0.12844233  1
  O  O176  1  0.61135293  0.12626046  0.64288718  1
  O  O177  1  0.62379619  0.62611867  0.12130836  1
  O  O178  1  0.62389201  0.61643619  0.61610815  1
  O  O179  1  0.38368529  0.38110958  0.38199905  1
  O  O180  1  0.37845887  0.38002742  0.88555022  1
  O  O181  1  0.38511238  0.87584861  0.37966372  1
  O  O182  1  0.37987582  0.87734589  0.88149279  1
  O  O183  1  0.86141252  0.37856371  0.38817714  1
  O  O184  1  0.87526637  0.39389621  0.86849680  1
  O  O185  1  0.86966952  0.88291265  0.38323178  1
  O  O186  1  0.87519890  0.88968822  0.88443852  1
  O  O187  1  0.26938866  -0.00683724  0.37661703  1
  O  O188  1  0.25231334  0.00929692  0.87857781  1
  O  O189  1  0.25937303  0.50919058  0.36938935  1
  O  O190  1  0.25443447  0.50056045  0.86763053  1
  O  O191  1  0.76483417  0.00083246  0.37411628  1
  O  O192  1  0.75911824  -0.00538822  0.86326412  1
  O  O193  1  0.74666782  0.51272354  0.37493010  1
  O  O194  1  0.75634127  0.49588010  0.86756348  1
  O  O195  1  0.25067947  0.49882292  0.13442389  1
  O  O196  1  0.24984886  0.49031684  0.63347654  1
  O  O197  1  0.23409311  0.98735821  0.11953443  1
  O  O198  1  0.24487429  0.99196217  0.62709484  1
  O  O199  1  0.75469427  0.47936799  0.11402226  1
  O  O200  1  0.74107720  0.49013138  0.63423529  1
  O  O201  1  0.74651658  0.99189349  0.12399488  1
  O  O202  1  0.75188014  0.98936929  0.63370893  1
  O  O203  1  0.01421665  0.40897859  0.26253978  1
  O  O204  1  0.00735856  0.38162526  0.75258130  1
  O  O205  1  0.00817961  0.85687345  0.24676159  1
  O  O206  1  0.00311844  0.86286676  0.74483901  1
  O  O207  1  0.50433988  0.36480937  0.26022940  1
  O  O208  1  0.50109625  0.37017541  0.76193273  1
  O  O209  1  0.51585471  0.87457581  0.25245448  1
  O  O210  1  0.50804709  0.87417490  0.75523288  1
  O  O211  1  0.50160023  0.13814127  0.24579518  1
  O  O212  1  0.48875391  0.12950208  0.74546580  1
  O  O213  1  0.50080156  0.62104713  0.24250297  1
  O  O214  1  0.48555644  0.62358743  0.75515973  1
  O  O215  1  0.97681937  0.11357046  0.24482903  1
  O  O216  1  0.98875124  0.12047734  0.73675138  1
  O  O217  1  0.98655502  0.63138279  0.25318150  1
  O  O218  1  1.00009182  0.63500459  0.74101625  1
  O  O219  1  0.36929989  0.26628882  0.00945203  1
  O  O220  1  0.37689637  0.25769335  0.50952816  1
  O  O221  1  0.36890788  0.75311499  0.00645574  1
  O  O222  1  0.37099274  0.75565354  0.50532604  1
  O  O223  1  0.86670720  0.24721776  0.00348762  1
  O  O224  1  0.86316703  0.25678463  0.50983764  1
  O  O225  1  0.87032593  0.75857055  -0.00575826  1
  O  O226  1  0.87254602  0.75791875  0.50584367  1
  O  O227  1  0.13986738  0.23386964  0.50357399  1
  O  O228  1  0.12436599  0.24273973  0.99218409  1
  O  O229  1  0.12896142  0.74984693  0.49521136  1
  O  O230  1  0.13015091  0.74625366  0.99782896  1
  O  O231  1  0.62847792  0.25307179  0.48729348  1
  O  O232  1  0.63276193  0.24318409  0.99693456  1
  O  O233  1  0.62781472  0.74557388  0.49207162  1
  O  O234  1  0.63225895  0.74169050  0.99608100  1
  O  O235  1  0.49290472  0.24895673  0.13287021  1
  O  O236  1  0.48947345  0.24465246  0.63212343  1
  O  O237  1  0.48700187  0.75841151  0.12326285  1
  O  O238  1  0.48646670  0.75686300  0.62500385  1
  O  O239  1  0.98282117  0.26001360  0.11339771  1
  O  O240  1  0.98958733  0.24259050  0.61298417  1
  O  O241  1  1.00474838  0.74371451  0.13716645  1
  O  O242  1  0.99430020  0.74531354  0.63323735  1
  O  O243  1  0.00291089  0.26586342  0.40405227  1
  O  O244  1  0.01176180  0.24984920  0.87748383  1
  O  O245  1  0.01019251  0.74463937  0.37189144  1
  O  O246  1  0.00731332  0.74518444  0.86731980  1
  O  O247  1  0.50953940  0.25449318  0.37150659  1
  O  O248  1  0.48894970  0.25970083  0.87836936  1
  O  O249  1  0.51398665  0.75755966  0.36930776  1
  O  O250  1  0.49898456  0.76064647  0.87315050  1
  O  O251  1  0.23851154  0.11724510  0.50128275  1
  O  O252  1  0.23524313  0.12524572  0.99619851  1
  O  O253  1  0.24545584  0.63141417  0.49822708  1
  O  O254  1  0.24655654  0.63642553  1.00011988  1
  O  O255  1  0.74876015  0.13828949  0.51308044  1
  O  O256  1  0.74705770  0.14129263  1.00105952  1
  O  O257  1  0.74106228  0.62860914  0.49186917  1
  O  O258  1  0.73997852  0.63450369  1.00585208  1
  O  O259  1  0.25795029  0.38237804  0.00667847  1
  O  O260  1  0.25721043  0.36690534  0.50174009  1
  O  O261  1  0.25342306  0.86376921  0.01148827  1
  O  O262  1  0.25564122  0.87063212  0.51099000  1
  O  O263  1  0.74278127  0.35964231  0.00955092  1
  O  O264  1  0.75284405  0.37135334  0.50982301  1
  O  O265  1  0.76204476  0.87107534  0.00479849  1
  O  O266  1  0.75807101  0.87405595  0.50938323  1
  O  O267  1  0.14062400  0.52022718  0.24865360  1
  O  O268  1  0.13676301  0.50554733  0.74971736  1
  O  O269  1  0.11490082  0.98833132  0.24470811  1
  O  O270  1  0.12653445  0.99872871  0.74274770  1
  O  O271  1  0.61277335  0.50949437  0.24191717  1
  O  O272  1  0.62650755  0.49169928  0.74506861  1
  O  O273  1  0.62926986  0.99330923  0.24215256  1
  O  O274  1  0.63401339  0.98622659  0.74419545  1
  O  O275  1  0.38163618  -0.00446720  0.26176678  1
  O  O276  1  0.37293966  0.00559421  0.76017615  1
  O  O277  1  0.36782360  0.50789371  0.25782961  1
  O  O278  1  0.36460813  0.50436447  0.75393873  1
  O  O279  1  0.87138682  -0.00399830  0.25952777  1
  O  O280  1  0.87216231  0.00266062  0.75712755  1
  O  O281  1  0.88009399  0.51433361  0.25005274  1
  O  O282  1  0.86123045  0.50522584  0.75533357  1
  O  O283  1  0.14582032  0.35836625  0.39264743  1
  O  O284  1  0.13061032  0.35570880  0.87369960  1
  O  O285  1  0.13153240  0.86626874  0.36455291  1
  O  O286  1  0.13034291  0.86137757  0.87779619  1
  O  O287  1  0.61348638  0.37874435  0.37416106  1
  O  O288  1  0.61212190  0.38170026  0.86836404  1
  O  O289  1  0.62510353  0.87107934  0.36700276  1
  O  O290  1  0.61722774  0.87308181  0.86538905  1
  O  O291  1  0.39857865  0.13739045  0.07777187  1
  O  O292  1  0.37931076  0.13095551  0.63083925  1
  O  O293  1  0.37291198  0.63312090  0.13690389  1
  O  O294  1  0.37158155  0.63451896  0.63240510  1
  O  O295  1  0.87297055  0.14580096  0.13308867  1
  O  O296  1  0.88479147  0.13231240  0.62721250  1
  O  O297  1  0.86706084  0.62680421  0.13769701  1
  O  O298  1  0.87900216  0.63383871  0.62916409  1
  O  O299  1  0.25430027  0.26880736  0.12019844  1
  O  O300  1  0.26248499  0.25533768  0.63275556  1
  O  O301  1  0.26035186  0.75554270  0.12058059  1
  O  O302  1  0.25781946  0.75754528  0.62064863  1
  O  O303  1  0.75800409  0.25672042  0.11465733  1
  O  O304  1  0.75276734  0.26501470  0.61923827  1
  O  O305  1  0.74595623  0.76631869  0.11102084  1
  O  O306  1  0.75603981  0.76126159  0.62560829  1
  O  O307  1  0.26036487  0.24544799  0.37577574  1
  O  O308  1  0.24462555  0.23766750  0.87958020  1
  O  O309  1  0.24566610  0.74749400  0.38209103  1
  O  O310  1  0.24477418  0.74903029  0.88608757  1
  O  O311  1  0.73380638  0.25198395  0.38505989  1
  O  O312  1  0.75210910  0.25632539  0.88667327  1
  O  O313  1  0.74009381  0.74631968  0.37521482  1
  O  O314  1  0.74828958  0.75674903  0.88885564  1
  O  O315  1  0.01151292  0.11681615  -0.00049919  1
  O  O316  1  0.01150776  0.12032399  0.50926965  1
  O  O317  1  0.00639134  0.61386954  -0.00275840  1
  O  O318  1  0.00177915  0.62584547  0.51467773  1
  O  O319  1  0.51669852  0.10695401  -0.01454577  1
  O  O320  1  0.49663419  0.11834231  0.51176945  1
  O  O321  1  0.50759491  0.61526205  0.00171899  1
  O  O322  1  0.51471242  0.62643854  0.48797170  1
  O  O323  1  0.48974494  0.36997439  0.49474314  1
  O  O324  1  0.49444914  0.38066630  0.99841193  1
  O  O325  1  0.49586812  0.88230756  0.49305695  1
  O  O326  1  0.49945942  0.88232076  0.99209315  1
  O  O327  1  0.98130132  0.39121271  0.51449392  1
  O  O328  1  1.00453438  0.39274227  0.98564305  1
  O  O329  1  0.98660734  0.87630005  0.50637324  1
  O  O330  1  0.99015389  0.88077911  1.00376128  1
  O  O331  1  0.48610877  0.48929293  0.37437579  1
  O  O332  1  0.49186823  0.48951192  0.88503799  1
  O  O333  1  0.49518175  0.99490739  0.38083396  1
  O  O334  1  0.49341893  0.98548052  0.87835743  1
  O  O335  1  0.99095743  0.51559758  0.39746409  1
  O  O336  1  0.98819203  0.50270832  0.88056410  1
  O  O337  1  0.98054429  0.99984491  0.38005646  1
  O  O338  1  0.99646581  1.00124282  0.88844863  1
  O  O339  1  0.01200569  -0.00720087  0.11440281  1
  O  O340  1  0.00948823  0.00690905  0.62117556  1
  O  O341  1  -0.00448035  0.49386702  0.10704378  1
  O  O342  1  -0.00229834  0.51273263  0.62067406  1
  O  O343  1  0.51089621  0.00048906  0.11374448  1
  O  O344  1  0.50105414  0.00944586  0.61753232  1
  O  O345  1  0.49858092  0.49856762  0.12227026  1
  O  O346  1  0.50890927  0.49341539  0.62944017  1
  O  O347  1  0.25297504  0.39009726  0.24162160  1
  O  O348  1  0.24685587  0.38195869  0.74308707  1
  O  O349  1  0.23943049  0.86483976  0.23929865  1
  O  O350  1  0.24871557  0.87504661  0.73903385  1
  O  O351  1  0.74385542  0.37272555  0.23524270  1
  O  O352  1  0.73852216  0.38154678  0.74492690  1
  O  O353  1  0.74275251  0.87411804  0.24071308  1
  O  O354  1  0.74491510  0.87986364  0.74384169  1
  O  O355  1  0.29698876  0.14341402  0.17994924  1
  O  O356  1  0.25562650  0.12138430  0.76142449  1
  O  O357  1  0.26083922  0.62506298  0.25680219  1
  O  O358  1  0.26000621  0.61772078  0.75101474  1
  O  O359  1  0.76798290  0.12459374  0.24441089  1
  O  O360  1  0.76857221  0.11122974  0.73776290  1
  O  O361  1  0.76540866  0.63352838  0.25869216  1
  O  O362  1  0.74311225  0.61313349  0.74593747  1
  O  O363  1  0.37942080  0.11108734  0.37498292  1
  O  O364  1  0.36586535  0.11962592  0.87677562  1
  O  O365  1  0.37470594  0.62043383  0.36646515  1
  O  O366  1  0.37138926  0.61726316  0.86845882  1
  O  O367  1  0.87326797  0.11688533  0.36263310  1
  O  O368  1  0.88158940  0.11289051  0.86435737  1
  O  O369  1  0.86440127  0.62396309  0.37070016  1
  O  O370  1  0.87290239  0.61029070  0.87005874  1
  O  O371  1  0.13703238  0.38482964  0.11610404  1
  O  O372  1  0.14118684  0.37398120  0.62160434  1
  O  O373  1  0.13079415  0.87859403  0.13532575  1
  O  O374  1  0.13281856  0.88580993  0.62599817  1
  O  O375  1  0.63657699  0.37094013  0.12941887  1
  O  O376  1  0.62796727  0.38151460  0.63125964  1
  O  O377  1  0.63283080  0.88506366  0.12929902  1
  O  O378  1  0.63370344  0.87621370  0.63031589  1
  O  O379  1  0.11019907  0.23702087  0.24737008  1
  O  O380  1  0.12842194  0.24403552  0.76478537  1
  O  O381  1  0.11486038  0.75032667  0.25749548  1
  O  O382  1  0.11869022  0.75190024  0.76047246  1
  O  O383  1  0.62093524  0.25052699  0.26414713  1
  O  O384  1  0.61276080  0.26726876  0.74583913  1
  O  O385  1  0.62635106  0.75741684  0.25456519  1
  O  O386  1  0.62221307  0.75923592  0.75016610  1
  O  O387  1  0.38583757  0.25884767  0.23709736  1
  O  O388  1  0.37937231  0.24580526  0.74507157  1
  O  O389  1  0.38184928  0.74201747  0.24442326  1
  O  O390  1  0.37569514  0.74096837  0.74171169  1
  O  O391  1  0.87741059  0.24432864  0.25396644  1
  O  O392  1  0.86746370  0.24237922  0.73667875  1
  O  O393  1  0.88980024  0.74321784  0.25373288  1
  O  O394  1  0.88150997  0.75030295  0.74726039  1
  O  O395  1  0.36687152  0.48921644  0.49185822  1
  O  O396  1  0.38527824  0.49459798  0.99917716  1
  O  O397  1  0.38758365  0.99356869  0.49367700  1
  O  O398  1  0.38474908  0.99148550  0.99685654  1
  O  O399  1  0.87450783  0.49317444  0.50293824  1
  O  O400  1  0.88370388  0.50524043  0.98957990  1
  O  O401  1  0.87468831  0.99226866  0.49201478  1
  O  O402  1  0.88221980  0.99917854  0.99540771  1
  O  O403  1  0.11766985  0.00561798  0.00693528  1
  O  O404  1  0.12476060  0.00429424  0.50686726  1
  O  O405  1  0.11249390  0.50979083  -0.00319425  1
  O  O406  1  0.11352847  0.51037189  0.50769044  1
  O  O407  1  0.62325159  -0.00112529  0.00417313  1
  O  O408  1  0.61201300  -0.00446909  0.50183908  1
  O  O409  1  0.61366678  0.50639635  -0.00171559  1
  O  O410  1  0.62630211  0.50950132  0.51091095  1
  O  O411  1  0.36398983  0.37768096  0.11853973  1
  O  O412  1  0.36660377  0.36877346  0.61760261  1
  O  O413  1  0.36788577  0.87052019  0.12215159  1
  O  O414  1  0.36827704  0.87041395  0.62021617  1
  O  O415  1  0.86225004  0.35772288  0.12922094  1
  O  O416  1  0.86414037  0.36960614  0.62233125  1
  O  O417  1  0.86858481  0.88041917  0.11529349  1
  O  O418  1  0.86885389  0.87106464  0.61926885  1
  O  O419  1  0.12565513  0.11211392  0.38759372  1
  O  O420  1  0.12918478  0.13268665  0.88167535  1
  O  O421  1  0.13461464  0.63697991  0.38763863  1
  O  O422  1  0.12837541  0.63747534  0.88672733  1
  O  O423  1  0.62186859  0.13233040  0.37531000  1
  O  O424  1  0.63314377  0.12158424  0.84880275  1
  O  O425  1  0.63410391  0.63572515  0.37990546  1
  O  O426  1  0.61962223  0.62624061  0.88606857  1
