# generated using pymatgen
data_V85Zn86O256
_symmetry_space_group_name_H-M   'P 1'
_cell_length_a   16.94678596
_cell_length_b   16.95506226
_cell_length_c   16.95651704
_cell_angle_alpha   89.84329354
_cell_angle_beta   90.03853775
_cell_angle_gamma   89.91590276
_symmetry_Int_Tables_number   1
_chemical_formula_structural   V85Zn86O256
_chemical_formula_sum   'V85 Zn86 O256'
_cell_volume   4872.15607420
_cell_formula_units_Z   1
loop_
 _symmetry_equiv_pos_site_id
 _symmetry_equiv_pos_as_xyz
  1  'x, y, z'
loop_
 _atom_site_type_symbol
 _atom_site_label
 _atom_site_symmetry_multiplicity
 _atom_site_fract_x
 _atom_site_fract_y
 _atom_site_fract_z
 _atom_site_occupancy
  V  V0  1  -0.00128665  0.49263769  0.00900142  1
  V  V1  1  0.50173556  -0.00014749  0.00430577  1
  V  V2  1  0.62781082  0.37962882  0.24214252  1
  V  V3  1  0.12287556  0.24344882  0.88105843  1
  V  V4  1  0.87807231  0.49846466  0.37167585  1
  V  V5  1  0.86908871  0.24340510  0.12703590  1
  V  V6  1  0.00202743  0.12391381  0.12531493  1
  V  V7  1  0.62645426  0.12836949  0.49908698  1
  V  V8  1  0.75576240  0.00969730  0.24688639  1
  V  V9  1  0.13064889  0.24878911  0.37015377  1
  V  V10  1  0.49912417  0.50307221  0.51019108  1
  V  V11  1  0.25402142  0.10585520  0.36589692  1
  V  V12  1  0.24747657  0.24854055  0.49741476  1
  V  V13  1  0.12404990  0.12354169  0.49770850  1
  V  V14  1  0.12649511  0.00011407  0.12619857  1
  V  V15  1  0.75672284  0.62978214  0.86980736  1
  V  V16  1  0.12373548  -0.00024616  0.62589034  1
  V  V17  1  0.37841732  0.50870270  0.37030936  1
  V  V18  1  0.00332482  0.62476781  0.62744956  1
  V  V19  1  0.74878613  0.62840941  0.38160423  1
  V  V20  1  0.62434575  0.50209871  0.62913144  1
  V  V21  1  0.25018510  0.37780391  0.62007084  1
  V  V22  1  0.75442671  0.37761499  0.11129443  1
  V  V23  1  -0.00162891  0.74622439  0.75120328  1
  V  V24  1  -0.00572676  0.87751321  0.87516328  1
  V  V25  1  0.50035197  0.26256079  0.74950945  1
  V  V26  1  0.87289403  0.73959233  0.62834872  1
  V  V27  1  0.62805742  0.86870232  0.25710864  1
  V  V28  1  0.37505655  0.37637242  0.49485337  1
  V  V29  1  0.75560673  0.24961609  -0.00556086  1
  V  V30  1  0.00327844  0.49492168  0.49889994  1
  V  V31  1  0.76271774  0.26047666  0.50190834  1
  V  V32  1  0.25624790  0.49887249  0.75506174  1
  V  V33  1  0.24465783  0.48750269  0.25389658  1
  V  V34  1  0.62798636  0.60867598  0.00407347  1
  V  V35  1  0.37383731  0.87183658  0.00274193  1
  V  V36  1  0.25497166  0.86845895  0.62709989  1
  V  V37  1  0.49223816  0.64374919  0.63119578  1
  V  V38  1  0.62641519  0.24637104  0.87013798  1
  V  V39  1  -0.00772440  0.24197752  0.25065052  1
  V  V40  1  0.37514078  0.12490502  0.75036146  1
  V  V41  1  0.62712112  0.75319287  0.88173002  1
  V  V42  1  -0.00216144  0.37332663  0.37270125  1
  V  V43  1  -0.00649281  0.37478901  0.87583957  1
  V  V44  1  0.62186799  0.86998595  0.74881894  1
  V  V45  1  0.12423593  0.87389140  0.75244185  1
  V  V46  1  0.62511703  0.25347810  0.37206119  1
  V  V47  1  0.37181675  0.63840643  0.75434093  1
  V  V48  1  0.75148568  0.50024011  0.24305776  1
  V  V49  1  0.49873155  0.62382017  0.13235143  1
  V  V50  1  0.38514567  0.10845245  0.24639146  1
  V  V51  1  0.12613847  0.63201188  0.49248003  1
  V  V52  1  0.87796757  0.50458266  0.87357293  1
  V  V53  1  0.87601828  0.12482233  0.75518039  1
  V  V54  1  0.37575981  0.87795334  0.49930262  1
  V  V55  1  0.12864145  0.61506021  0.00097239  1
  V  V56  1  0.75560797  0.50396667  0.75133653  1
  V  V57  1  0.00303240  0.86179922  0.37520726  1
  V  V58  1  0.25230112  0.63438057  0.36282904  1
  V  V59  1  0.50171837  0.12571457  0.62318433  1
  V  V60  1  0.75577597  -0.00162668  0.75650421  1
  V  V61  1  0.50385233  0.37965423  0.37126340  1
  V  V62  1  0.75378535  0.86684134  0.12896337  1
  V  V63  1  0.49984762  0.87288860  0.87182430  1
  V  V64  1  0.62805267  0.12291466  0.00026247  1
  V  V65  1  0.62588584  0.00026063  0.62554079  1
  V  V66  1  0.87438803  0.63464587  0.24167525  1
  V  V67  1  0.24907057  0.00262578  0.74948063  1
  V  V68  1  0.37584347  0.24752790  0.61676372  1
  V  V69  1  0.49657462  0.00492805  0.49326416  1
  V  V70  1  0.00091723  0.63327741  0.12165916  1
  V  V71  1  0.50339333  0.86714982  0.37780376  1
  V  V72  1  0.13158497  0.74307268  0.87681984  1
  V  V73  1  0.25148187  0.87615218  0.12973458  1
  V  V74  1  0.87502508  0.87279085  0.49980259  1
  V  V75  1  -0.00212009  0.00450425  -0.00304840  1
  V  V76  1  0.12915978  0.86917815  0.25340829  1
  V  V77  1  -0.00102229  -0.00270477  0.49809264  1
  V  V78  1  0.75145731  0.87306769  0.62542548  1
  V  V79  1  0.37351237  0.00135977  0.87493444  1
  V  V80  1  0.25214924  0.75031155  0.49711314  1
  V  V81  1  -0.00557655  0.25456309  0.74185556  1
  V  V82  1  0.75839685  0.12500882  0.37422323  1
  V  V83  1  -0.00909182  0.12895921  0.62096588  1
  V  V84  1  0.87774767  0.87001425  0.00614288  1
  Zn  Zn85  1  0.12282341  0.37744365  0.74569177  1
  Zn  Zn86  1  0.62964048  0.37742034  0.75060636  1
  Zn  Zn87  1  0.87927817  -0.00028627  0.37003386  1
  Zn  Zn88  1  0.13004352  0.50219502  0.62162892  1
  Zn  Zn89  1  0.25293969  0.74403692  0.00102743  1
  Zn  Zn90  1  0.61695318  0.63221080  0.49582940  1
  Zn  Zn91  1  0.50061225  0.74526322  0.25658926  1
  Zn  Zn92  1  0.36950878  0.37999837  0.97026447  1
  Zn  Zn93  1  0.23851600  0.12286778  0.88774768  1
  Zn  Zn94  1  0.27660576  0.24138306  0.02862185  1
  Zn  Zn95  1  0.76364164  0.36949015  0.62630734  1
  Zn  Zn96  1  0.75803079  0.11857327  0.87714145  1
  Zn  Zn97  1  0.00117755  0.74972419  0.24719771  1
  Zn  Zn98  1  0.49229573  0.13423498  0.12187821  1
  Zn  Zn99  1  0.74522454  0.75267041  0.49551609  1
  Zn  Zn100  1  0.62521236  -0.00076445  0.12783305  1
  Zn  Zn101  1  0.30195066  0.56825728  0.91623233  1
  Zn  Zn102  1  0.47329496  0.51034020  -0.00398891  1
  Zn  Zn103  1  0.11890757  0.37565479  0.23695111  1
  Zn  Zn104  1  0.75697303  0.74668023  0.00591885  1
  Zn  Zn105  1  0.37605826  0.75009065  0.13977620  1
  Zn  Zn106  1  0.24085247  0.38129480  0.10889393  1
  Zn  Zn107  1  0.18477783  0.18476437  0.18905379  1
  Zn  Zn108  1  0.18266351  0.18879633  0.68823275  1
  Zn  Zn109  1  0.18560347  0.68991992  0.18237623  1
  Zn  Zn110  1  0.18816744  0.68552571  0.68720261  1
  Zn  Zn111  1  0.64056416  0.22713715  0.15479934  1
  Zn  Zn112  1  0.69171451  0.18809332  0.68434117  1
  Zn  Zn113  1  0.68416071  0.68713568  0.18820868  1
  Zn  Zn114  1  0.68300795  0.68725393  0.68516471  1
  Zn  Zn115  1  0.33227853  0.29611630  0.21896368  1
  Zn  Zn116  1  0.30499781  0.30648547  0.80561181  1
  Zn  Zn117  1  0.31696781  0.81910116  0.31449514  1
  Zn  Zn118  1  0.31201478  0.81337312  0.81458733  1
  Zn  Zn119  1  0.81278005  0.31295079  0.31166606  1
  Zn  Zn120  1  0.81322521  0.31520899  0.81162110  1
  Zn  Zn121  1  0.81471193  0.81214999  0.31229139  1
  Zn  Zn122  1  0.81513263  0.81167569  0.81212982  1
  Zn  Zn123  1  0.18567468  0.43899508  0.43097789  1
  Zn  Zn124  1  0.18011230  0.42280738  0.93940944  1
  Zn  Zn125  1  0.18209374  0.93138881  0.43961979  1
  Zn  Zn126  1  0.18467300  0.93798426  0.94052553  1
  Zn  Zn127  1  0.68748350  0.44458473  0.43844681  1
  Zn  Zn128  1  0.58069918  0.41621027  0.94094446  1
  Zn  Zn129  1  0.68769723  0.93931698  0.43666579  1
  Zn  Zn130  1  0.69107884  0.93590143  0.93936695  1
  Zn  Zn131  1  0.30993942  0.06124972  0.06348906  1
  Zn  Zn132  1  0.31106237  0.06150717  0.55951101  1
  Zn  Zn133  1  0.31431368  0.56245734  0.07950819  1
  Zn  Zn134  1  0.31579591  0.56532385  0.56323576  1
  Zn  Zn135  1  0.81696709  0.06015408  0.06379832  1
  Zn  Zn136  1  0.81137567  0.06178254  0.56236432  1
  Zn  Zn137  1  0.81581285  0.56088436  0.05753959  1
  Zn  Zn138  1  0.82564235  0.53687023  0.57018595  1
  Zn  Zn139  1  0.43885596  0.45039662  0.18904351  1
  Zn  Zn140  1  0.44037369  0.44435919  0.81045117  1
  Zn  Zn141  1  0.43617101  0.93892160  0.19324092  1
  Zn  Zn142  1  0.43813443  0.93698790  0.68429621  1
  Zn  Zn143  1  0.93435175  0.43278021  0.18596621  1
  Zn  Zn144  1  0.93361381  0.44037053  0.68638630  1
  Zn  Zn145  1  0.93785864  0.93630888  0.18815904  1
  Zn  Zn146  1  0.93667071  0.93619552  0.68630299  1
  Zn  Zn147  1  0.06278692  0.05766881  0.30968848  1
  Zn  Zn148  1  0.05770393  0.06226800  0.81060641  1
  Zn  Zn149  1  0.06520724  0.56704524  0.31096251  1
  Zn  Zn150  1  0.06912210  0.55853468  0.81097909  1
  Zn  Zn151  1  0.57024782  0.05865296  0.31371641  1
  Zn  Zn152  1  0.56339598  0.06194831  0.81334954  1
  Zn  Zn153  1  0.56836703  0.55995787  0.31282945  1
  Zn  Zn154  1  0.56658620  0.57117371  0.81069759  1
  Zn  Zn155  1  0.41092193  0.21397867  0.39172163  1
  Zn  Zn156  1  0.43798540  0.19228623  0.93397141  1
  Zn  Zn157  1  0.43248146  0.69142292  0.44252222  1
  Zn  Zn158  1  0.44485786  0.69173227  0.93927711  1
  Zn  Zn159  1  0.93673154  0.18825033  0.43644540  1
  Zn  Zn160  1  0.93923430  0.18779517  0.93763757  1
  Zn  Zn161  1  0.93188896  0.68306687  0.43915639  1
  Zn  Zn162  1  0.94117383  0.68781082  0.93876766  1
  Zn  Zn163  1  0.06394766  0.31291995  0.06384236  1
  Zn  Zn164  1  0.06182814  0.31249183  0.56007476  1
  Zn  Zn165  1  0.06680793  0.81084151  0.06002013  1
  Zn  Zn166  1  0.06547918  0.81012046  0.56337293  1
  Zn  Zn167  1  0.46383818  0.31243402  0.08285439  1
  Zn  Zn168  1  0.56768629  0.31698300  0.56113810  1
  Zn  Zn169  1  0.56542077  0.81255999  0.06682267  1
  Zn  Zn170  1  0.56499766  0.81144733  0.55940541  1
  O  O171  1  0.11203076  0.11500014  0.13014194  1
  O  O172  1  0.11407585  0.11962038  0.61865281  1
  O  O173  1  0.11621762  0.62415099  0.11363686  1
  O  O174  1  0.11969575  0.62664994  0.61114187  1
  O  O175  1  0.63015253  0.11700560  0.10697983  1
  O  O176  1  0.62120974  0.11989155  0.61983956  1
  O  O177  1  0.62246944  0.63023490  0.10831153  1
  O  O178  1  0.60490664  0.61938002  0.63206535  1
  O  O179  1  0.39055616  0.38860742  0.38101180  1
  O  O180  1  0.38217832  0.36286677  0.85838991  1
  O  O181  1  0.38439752  0.87888929  0.39210772  1
  O  O182  1  0.38241390  0.88067603  0.87918528  1
  O  O183  1  0.88813983  0.38262252  0.37038812  1
  O  O184  1  0.88649568  0.38427559  0.86926797  1
  O  O185  1  0.88162772  0.87538489  0.38484419  1
  O  O186  1  0.88910183  0.87262335  0.87970050  1
  O  O187  1  0.23831704  0.00911745  0.37870215  1
  O  O188  1  0.25387156  0.00264353  0.86876355  1
  O  O189  1  0.25907081  0.51031461  0.37137471  1
  O  O190  1  0.23777037  0.49326648  0.85751977  1
  O  O191  1  0.75232644  0.00775231  0.36711044  1
  O  O192  1  0.74912036  -0.00180915  0.86020028  1
  O  O193  1  0.76155856  0.50637983  0.36708585  1
  O  O194  1  0.75947583  0.51205368  0.86241681  1
  O  O195  1  0.25628603  0.49679428  0.15050933  1
  O  O196  1  0.25248747  0.49171848  0.62838321  1
  O  O197  1  0.23907326  0.98693169  0.11926459  1
  O  O198  1  0.24277622  0.99134991  0.62879218  1
  O  O199  1  0.76112897  0.48999306  0.13140996  1
  O  O200  1  0.73574831  0.52789369  0.64251869  1
  O  O201  1  0.75187887  0.99309958  0.13692211  1
  O  O202  1  0.74423602  0.99302806  0.63212235  1
  O  O203  1  -0.00015999  0.36589096  0.25698778  1
  O  O204  1  -0.00204230  0.36936747  0.75038134  1
  O  O205  1  0.00388593  0.87157824  0.25941111  1
  O  O206  1  0.00491274  0.87047649  0.75691052  1
  O  O207  1  0.51469979  0.39415568  0.26396441  1
  O  O208  1  0.50618743  0.36377086  0.74231465  1
  O  O209  1  0.51135069  0.88284992  0.26385247  1
  O  O210  1  0.50978782  0.88320260  0.75885918  1
  O  O211  1  0.49016287  0.10775101  0.24935200  1
  O  O212  1  0.49289387  0.12497353  0.73945256  1
  O  O213  1  0.51603747  0.62696468  0.23615390  1
  O  O214  1  0.48515022  0.62400426  0.74028627  1
  O  O215  1  1.00001468  0.13127532  0.24248949  1
  O  O216  1  0.99273636  0.13013227  0.73914233  1
  O  O217  1  0.99425575  0.62466863  0.24012363  1
  O  O218  1  1.00921976  0.62784591  0.73399058  1
  O  O219  1  0.38906998  0.26080394  0.00510099  1
  O  O220  1  0.36682386  0.25631850  0.49418899  1
  O  O221  1  0.37540115  0.76443211  -0.00162717  1
  O  O222  1  0.36124939  0.76064486  0.50386205  1
  O  O223  1  0.86282377  0.24341926  0.00634852  1
  O  O224  1  0.86155960  0.24955316  0.49722331  1
  O  O225  1  0.87567548  0.76458080  -0.00406565  1
  O  O226  1  0.87184011  0.75880823  0.50802021  1
  O  O227  1  0.12589639  0.24231098  0.49040185  1
  O  O228  1  0.11456965  0.24941772  0.98057078  1
  O  O229  1  0.13852465  0.74544285  0.50184038  1
  O  O230  1  0.12563109  0.73716666  0.99208512  1
  O  O231  1  0.63270348  0.24611480  0.49009931  1
  O  O232  1  0.64011884  0.23651066  0.98680745  1
  O  O233  1  0.63452531  0.74181819  0.50982509  1
  O  O234  1  0.63189405  0.75366885  0.98874881  1
  O  O235  1  0.52946940  0.23945897  0.13316543  1
  O  O236  1  0.49696659  0.24502035  0.62773805  1
  O  O237  1  0.50199144  0.73910797  0.12512603  1
  O  O238  1  0.49760250  0.74179848  0.62716274  1
  O  O239  1  0.99250725  0.24192016  0.13047121  1
  O  O240  1  1.00088375  0.24137175  0.62797166  1
  O  O241  1  1.00063172  0.73645429  0.12181911  1
  O  O242  1  0.99496414  0.74339332  0.62948568  1
  O  O243  1  0.00367051  0.25414861  0.36932468  1
  O  O244  1  0.00119274  0.25640740  0.86511419  1
  O  O245  1  -0.00434904  0.75922447  0.37648799  1
  O  O246  1  0.00864737  0.75617051  0.86919365  1
  O  O247  1  0.51239955  0.26843467  0.38130772  1
  O  O248  1  0.51381465  0.23671398  0.85782359  1
  O  O249  1  0.50116301  0.76368938  0.38275939  1
  O  O250  1  0.51035676  0.76525548  0.87722704  1
  O  O251  1  0.24115926  0.12865689  0.49402221  1
  O  O252  1  0.25822745  0.13408836  0.99794509  1
  O  O253  1  0.24534580  0.63380634  0.49573251  1
  O  O254  1  0.24257823  0.62388888  1.00277656  1
  O  O255  1  0.74506073  0.13142761  0.49324737  1
  O  O256  1  0.74753683  0.12643181  0.99624730  1
  O  O257  1  0.76060552  0.61810556  0.48322715  1
  O  O258  1  0.74172527  0.62728491  0.99279847  1
  O  O259  1  0.25446569  0.36046507  -0.00388924  1
  O  O260  1  0.25207561  0.36963784  0.49994265  1
  O  O261  1  0.25895523  0.87444798  0.00644314  1
  O  O262  1  0.25551390  0.87133381  0.50646407  1
  O  O263  1  0.74566292  0.36445243  0.01082325  1
  O  O264  1  0.74749257  0.36223408  0.49437140  1
  O  O265  1  0.76046610  0.87746951  0.01062069  1
  O  O266  1  0.75907919  0.87553652  0.50639955  1
  O  O267  1  0.14109189  0.49508909  0.26379862  1
  O  O268  1  0.13877537  0.49953223  0.74028557  1
  O  O269  1  0.11591781  0.98574018  0.23433040  1
  O  O270  1  0.12868446  0.99470078  0.74514660  1
  O  O271  1  0.64365824  0.49404657  0.25393818  1
  O  O272  1  0.63242182  0.49965914  0.74496313  1
  O  O273  1  0.64037390  0.99025034  0.24983137  1
  O  O274  1  0.63242212  0.99126475  0.74495566  1
  O  O275  1  0.37096822  0.00845077  0.25803529  1
  O  O276  1  0.37062327  0.00636532  0.75372870  1
  O  O277  1  0.36733067  0.50465631  0.26653637  1
  O  O278  1  0.36173505  0.51097144  0.75265707  1
  O  O279  1  0.86011456  -0.00640613  0.25319900  1
  O  O280  1  0.86634217  0.00809668  0.74196192  1
  O  O281  1  0.87020056  0.50600630  0.25618687  1
  O  O282  1  0.87022856  0.50622460  0.76257060  1
  O  O283  1  0.11373502  0.36432556  0.37287921  1
  O  O284  1  0.10974073  0.36375537  0.86590934  1
  O  O285  1  0.11529835  0.87684683  0.36590668  1
  O  O286  1  0.11552884  0.86840687  0.87066008  1
  O  O287  1  0.62262522  0.37345700  0.37118828  1
  O  O288  1  0.63453277  0.35216079  0.86789814  1
  O  O289  1  0.61877195  0.87768873  0.36947845  1
  O  O290  1  0.62014515  0.87204752  0.86947052  1
  O  O291  1  0.37623846  0.11794175  0.14155369  1
  O  O292  1  0.38059584  0.12841939  0.62947520  1
  O  O293  1  0.39363019  0.63325382  0.12194214  1
  O  O294  1  0.38612283  0.62367374  0.63479480  1
  O  O295  1  0.88357479  0.13524095  0.12469849  1
  O  O296  1  0.88671965  0.12014518  0.62961759  1
  O  O297  1  0.88384882  0.61956031  0.13197903  1
  O  O298  1  0.88570385  0.63474320  0.61583089  1
  O  O299  1  0.25123175  0.26063628  0.14137300  1
  O  O300  1  0.25336063  0.25307569  0.61650934  1
  O  O301  1  0.25404515  0.76203305  0.12098773  1
  O  O302  1  0.24332120  0.76432947  0.61992441  1
  O  O303  1  0.75303979  0.25297999  0.11667456  1
  O  O304  1  0.74764198  0.25340250  0.60771166  1
  O  O305  1  0.74817730  0.76274010  0.12577888  1
  O  O306  1  0.75957369  0.75466231  0.62839981  1
  O  O307  1  0.23478701  0.23796931  0.37970138  1
  O  O308  1  0.22685074  0.24437255  0.86030205  1
  O  O309  1  0.25405560  0.74451671  0.38344280  1
  O  O310  1  0.23524503  0.75688716  0.87855818  1
  O  O311  1  0.74749266  0.24377978  0.38318086  1
  O  O312  1  0.75037647  0.24327571  0.87871507  1
  O  O313  1  0.75933053  0.73235049  0.37594252  1
  O  O314  1  0.74573599  0.74663501  0.87846633  1
  O  O315  1  -0.00562858  0.11528034  0.00923461  1
  O  O316  1  0.00308146  0.11932549  0.50402427  1
  O  O317  1  0.00519580  0.61613168  0.00634443  1
  O  O318  1  0.00910994  0.62211819  0.50479389  1
  O  O319  1  0.50882463  0.11480315  -0.00296963  1
  O  O320  1  0.50846678  0.11812353  0.50777061  1
  O  O321  1  0.51445368  0.62460667  0.00450930  1
  O  O322  1  0.49509949  0.62218495  0.51456494  1
  O  O323  1  0.49955127  0.38651913  0.49320732  1
  O  O324  1  0.49173700  0.39359322  1.00565993  1
  O  O325  1  0.49417026  0.88246829  0.49908190  1
  O  O326  1  0.49567227  0.88143818  0.99364263  1
  O  O327  1  1.00522802  0.38752715  0.49165789  1
  O  O328  1  1.00148786  0.38316055  0.98901429  1
  O  O329  1  0.99511909  0.87644094  0.49517387  1
  O  O330  1  0.99594093  0.87867896  0.99406370  1
  O  O331  1  0.49661885  0.50359490  0.38683737  1
  O  O332  1  0.51427278  0.49743248  0.87901507  1
  O  O333  1  0.51017260  0.99228384  0.39096385  1
  O  O334  1  0.49578626  0.99124976  0.88300995  1
  O  O335  1  0.99860635  0.49206506  0.37541969  1
  O  O336  1  0.99526753  0.49378070  0.87682643  1
  O  O337  1  0.99823310  0.99093843  0.38290619  1
  O  O338  1  1.00679959  0.99024567  0.88460736  1
  O  O339  1  0.00239221  0.00693243  0.11964740  1
  O  O340  1  0.00468365  0.00548487  0.61815138  1
  O  O341  1  -0.00882271  0.50344833  0.11173606  1
  O  O342  1  0.00541621  0.50894020  0.61416591  1
  O  O343  1  0.50168894  -0.00088840  0.11183347  1
  O  O344  1  0.50868404  0.00508008  0.61781834  1
  O  O345  1  0.50077468  0.52010560  0.12094582  1
  O  O346  1  0.50626889  0.50324049  0.61424448  1
  O  O347  1  0.24978377  0.38624717  0.26447865  1
  O  O348  1  0.24908254  0.38483596  0.73653995  1
  O  O349  1  0.24143985  0.87428417  0.24277551  1
  O  O350  1  0.24613460  0.88154061  0.74364550  1
  O  O351  1  0.74875258  0.38444527  0.24553721  1
  O  O352  1  0.75158294  0.38846511  0.74460636  1
  O  O353  1  0.74663761  0.88023927  0.24713115  1
  O  O354  1  0.74602031  0.88101385  0.74421911  1
  O  O355  1  0.25162934  0.11990909  0.26312869  1
  O  O356  1  0.25920685  0.11825411  0.74546904  1
  O  O357  1  0.24215543  0.62174768  0.26091119  1
  O  O358  1  0.26152383  0.61444864  0.74226194  1
  O  O359  1  0.74678078  0.11042882  0.25722236  1
  O  O360  1  0.76007319  0.11669565  0.74700817  1
  O  O361  1  0.75689128  0.61892146  0.25276252  1
  O  O362  1  0.74286248  0.62594117  0.76518754  1
  O  O363  1  0.35708322  0.11114322  0.38123150  1
  O  O364  1  0.37671322  0.12044416  0.86042628  1
  O  O365  1  0.36447040  0.61950813  0.38402517  1
  O  O366  1  0.37857663  0.63404382  0.86161051  1
  O  O367  1  0.86224658  0.12128450  0.37933974  1
  O  O368  1  0.87931661  0.12373300  0.85905687  1
  O  O369  1  0.87105563  0.61788934  0.36118828  1
  O  O370  1  0.86688203  0.62143570  0.88003292  1
  O  O371  1  0.12523628  0.38071894  0.12485819  1
  O  O372  1  0.13840676  0.37459270  0.62166948  1
  O  O373  1  0.13164465  0.87842585  0.13019755  1
  O  O374  1  0.13039853  0.88010699  0.63307039  1
  O  O375  1  0.63941181  0.36817501  0.14118636  1
  O  O376  1  0.63371433  0.39266245  0.62377075  1
  O  O377  1  0.63554767  0.87995367  0.13317724  1
  O  O378  1  0.62917071  0.87964511  0.63327458  1
  O  O379  1  0.11087672  0.24936002  0.25839283  1
  O  O380  1  0.10725584  0.25153930  0.75175362  1
  O  O381  1  0.12013321  0.76387873  0.24425119  1
  O  O382  1  0.11982576  0.75369638  0.75661345  1
  O  O383  1  0.63757187  0.26371424  0.26750059  1
  O  O384  1  0.61852730  0.24749383  0.75157277  1
  O  O385  1  0.62302069  0.76447128  0.24968492  1
  O  O386  1  0.63123009  0.76432985  0.76119216  1
  O  O387  1  0.37926914  0.21615354  0.27915337  1
  O  O388  1  0.38276947  0.23944106  0.73775655  1
  O  O389  1  0.38817969  0.76145702  0.25240067  1
  O  O390  1  0.36334903  0.73735652  0.74599170  1
  O  O391  1  0.88401761  0.24913464  0.24491739  1
  O  O392  1  0.88488532  0.24223250  0.74847176  1
  O  O393  1  0.87857721  0.73772472  0.24980041  1
  O  O394  1  0.88531827  0.75364704  0.73973108  1
  O  O395  1  0.38192375  0.49572240  0.49457982  1
  O  O396  1  0.35886022  0.50263942  0.99199637  1
  O  O397  1  0.38721556  0.99306523  0.50831679  1
  O  O398  1  0.38238600  0.99087693  0.99363075  1
  O  O399  1  0.89275452  0.51491351  0.47767165  1
  O  O400  1  0.88559833  0.50287899  0.98435215  1
  O  O401  1  0.88072904  0.98699273  0.50191135  1
  O  O402  1  0.88924762  0.98790185  1.00337441  1
  O  O403  1  0.11037264  -0.00830494  0.01403684  1
  O  O404  1  0.11719749  0.00295827  0.50702944  1
  O  O405  1  0.11449993  0.50863180  -0.01072396  1
  O  O406  1  0.11822781  0.50993201  0.49788114  1
  O  O407  1  0.61805472  0.00407771  -0.00232046  1
  O  O408  1  0.62220473  0.00769102  0.50752958  1
  O  O409  1  0.63343768  0.51114203  -0.00214698  1
  O  O410  1  0.61880527  0.51072165  0.50825696  1
  O  O411  1  0.37730341  0.36868947  0.14403501  1
  O  O412  1  0.36084827  0.36257890  0.61200611  1
  O  O413  1  0.36869663  0.87767588  0.11793512  1
  O  O414  1  0.36524831  0.87977178  0.61606432  1
  O  O415  1  0.86593772  0.35691102  0.12928666  1
  O  O416  1  0.85724388  0.42855892  0.60724189  1
  O  O417  1  0.86816666  0.87642595  0.11823210  1
  O  O418  1  0.87325809  0.86401156  0.61775685  1
  O  O419  1  0.12766894  0.12853483  0.37876021  1
  O  O420  1  0.11871318  0.13837248  0.86864822  1
  O  O421  1  0.13421603  0.62554373  0.38576952  1
  O  O422  1  0.11900010  0.63351503  0.88361878  1
  O  O423  1  0.63475312  0.13428226  0.37892315  1
  O  O424  1  0.63204910  0.12797665  0.88025330  1
  O  O425  1  0.64486589  0.61912856  0.37666478  1
  O  O426  1  0.63161626  0.63648033  0.88575315  1
