# generated using pymatgen
data_V85Zn86O256
_symmetry_space_group_name_H-M   'P 1'
_cell_length_a   16.93159045
_cell_length_b   16.94316160
_cell_length_c   16.94833500
_cell_angle_alpha   90.03478811
_cell_angle_beta   90.03855502
_cell_angle_gamma   90.09624142
_symmetry_Int_Tables_number   1
_chemical_formula_structural   V85Zn86O256
_chemical_formula_sum   'V85 Zn86 O256'
_cell_volume   4862.03920255
_cell_formula_units_Z   1
loop_
 _symmetry_equiv_pos_site_id
 _symmetry_equiv_pos_as_xyz
  1  'x, y, z'
loop_
 _atom_site_type_symbol
 _atom_site_label
 _atom_site_symmetry_multiplicity
 _atom_site_fract_x
 _atom_site_fract_y
 _atom_site_fract_z
 _atom_site_occupancy
  V  V0  1  0.12531378  0.00018344  0.62243633  1
  V  V1  1  0.24482842  0.37732255  0.62387563  1
  V  V2  1  0.25718980  -0.00430177  0.25191039  1
  V  V3  1  0.49573529  0.38556979  0.37207802  1
  V  V4  1  0.75067843  0.37502973  0.12661261  1
  V  V5  1  0.37448780  0.38104579  0.49495542  1
  V  V6  1  0.00441021  0.12386951  0.12167269  1
  V  V7  1  0.74192366  0.12429608  0.37546465  1
  V  V8  1  0.25407681  0.12109625  0.37384206  1
  V  V9  1  0.12406983  0.74755030  0.87753413  1
  V  V10  1  0.75081571  0.50504967  0.25247804  1
  V  V11  1  0.37533358  0.25161365  0.62458588  1
  V  V12  1  0.62974703  0.75025235  0.38440434  1
  V  V13  1  0.86902356  0.37450473  0.50111455  1
  V  V14  1  0.25345938  0.37787891  0.11620839  1
  V  V15  1  0.88206741  0.12780180  0.75015286  1
  V  V16  1  0.63068108  -0.00036950  0.13165599  1
  V  V17  1  0.87775863  -0.00223270  0.87097237  1
  V  V18  1  0.26434207  0.62553948  0.37108231  1
  V  V19  1  0.50001901  0.62412020  0.12825354  1
  V  V20  1  0.00112189  0.62309389  0.61892016  1
  V  V21  1  0.63352124  0.61739293  0.50764005  1
  V  V22  1  0.49890041  0.62298857  0.62662131  1
  V  V23  1  0.37195780  0.86014127  0.50615010  1
  V  V24  1  0.24772714  0.12373074  0.87410531  1
  V  V25  1  0.74867708  0.12655913  0.86919819  1
  V  V26  1  0.25366050  -0.00012850  0.74494796  1
  V  V27  1  -0.00128332  0.37460005  0.37560476  1
  V  V28  1  0.37530077  0.25291208  0.11659747  1
  V  V29  1  0.74377280  0.75128095  0.00469899  1
  V  V30  1  0.37362641  0.12257952  0.24887494  1
  V  V31  1  0.49859639  0.12270477  0.11827322  1
  V  V32  1  0.37340728  0.49594108  0.88279377  1
  V  V33  1  0.51718162  0.76257611  0.75590148  1
  V  V34  1  0.49382568  -0.01705508  -0.00352202  1
  V  V35  1  0.86714570  0.75502900  0.62182011  1
  V  V36  1  -0.00315022  0.00238541  0.49852778  1
  V  V37  1  -0.00626759  0.74396603  0.74967012  1
  V  V38  1  0.74270746  0.24842127  0.50337704  1
  V  V39  1  0.37611513  0.63424248  0.74707404  1
  V  V40  1  0.62605339  0.25330428  0.87318705  1
  V  V41  1  0.00185218  0.50154996  0.00344718  1
  V  V42  1  -0.00038230  0.86980360  0.37127049  1
  V  V43  1  0.25141207  0.62714314  0.88073364  1
  V  V44  1  0.01128416  0.50183157  0.50186933  1
  V  V45  1  0.25494858  0.86995051  0.11789514  1
  V  V46  1  0.62590927  0.37443024  0.25037357  1
  V  V47  1  0.69247568  -0.05668634  0.79976557  1
  V  V48  1  0.12733855  0.63067913  0.00239238  1
  V  V49  1  0.12849820  0.50081637  0.12675351  1
  V  V50  1  0.12451363  0.87015585  0.25072159  1
  V  V51  1  0.48762304  0.01053421  0.49594097  1
  V  V52  1  0.63778828  0.38991509  0.73974202  1
  V  V53  1  0.49684874  0.37503527  0.88169530  1
  V  V54  1  0.26390616  0.50067631  0.25455234  1
  V  V55  1  0.63080838  0.00219276  0.60771449  1
  V  V56  1  0.11694354  0.24979639  0.87181237  1
  V  V57  1  0.87543640  0.24868613  0.12543970  1
  V  V58  1  0.00304697  0.87355362  0.87493990  1
  V  V59  1  0.24393442  0.24504262  -0.00123561  1
  V  V60  1  0.88359517  0.63021772  0.25255442  1
  V  V61  1  0.01326320  0.00108751  -0.00264158  1
  V  V62  1  0.88381351  0.75189366  0.12779248  1
  V  V63  1  0.37336515  0.74857517  0.10890543  1
  V  V64  1  0.24632914  0.49638849  0.74965219  1
  V  V65  1  0.49139021  0.74698606  0.25423280  1
  V  V66  1  0.85198081  0.59334831  0.72769444  1
  V  V67  1  0.86797526  -0.00147054  0.36840518  1
  V  V68  1  0.86383589  0.87433501  0.49830922  1
  V  V69  1  0.12499813  0.12491841  0.49716482  1
  V  V70  1  0.12452555  0.73997214  0.36996568  1
  V  V71  1  0.87102561  0.50364170  0.88099029  1
  V  V72  1  0.87635843  0.25062363  0.62753372  1
  V  V73  1  0.12484549  0.24834946  0.37373655  1
  V  V74  1  0.11357293  0.37426852  0.74499859  1
  V  V75  1  0.12402455  0.87433592  0.74627783  1
  V  V76  1  0.74415992  0.62750916  0.87706521  1
  V  V77  1  0.50158247  0.25306792  0.74853212  1
  V  V78  1  0.86884959  0.12127868  0.24682358  1
  V  V79  1  0.12614974  0.37561669  0.24925581  1
  V  V80  1  0.18195907  0.68451031  0.54520359  1
  V  V81  1  0.49242899  0.87622874  0.37712952  1
  V  V82  1  0.12854927  0.00051428  0.12264408  1
  V  V83  1  0.87477477  0.37345957  0.00070675  1
  V  V84  1  0.49917217  0.24983938  0.24957973  1
  Zn  Zn85  1  0.50311758  0.49797547  0.50685438  1
  Zn  Zn86  1  0.37590950  0.12522884  0.74850499  1
  Zn  Zn87  1  0.74924617  0.24815481  -0.00018050  1
  Zn  Zn88  1  0.62751690  0.87554785  0.25464928  1
  Zn  Zn89  1  0.38575385  -0.01293786  0.86862450  1
  Zn  Zn90  1  0.00318318  0.12922300  0.63174510  1
  Zn  Zn91  1  0.00572455  0.63076187  0.13137482  1
  Zn  Zn92  1  0.25081396  0.86358875  0.61870471  1
  Zn  Zn93  1  0.73968654  0.87341095  0.62661166  1
  Zn  Zn94  1  0.62517565  0.12529913  -0.00239378  1
  Zn  Zn95  1  0.50730913  0.13009300  0.62073860  1
  Zn  Zn96  1  0.50000579  0.49926437  0.00237561  1
  Zn  Zn97  1  0.62049297  0.24653883  0.37996639  1
  Zn  Zn98  1  0.75629538  0.87927583  0.13627093  1
  Zn  Zn99  1  0.87716965  0.87502137  0.00235868  1
  Zn  Zn100  1  0.24979001  0.25127597  0.49837876  1
  Zn  Zn101  1  0.87680448  0.50451600  0.37619875  1
  Zn  Zn102  1  0.62491925  0.50329553  0.12285495  1
  Zn  Zn103  1  0.75305502  0.63008325  0.37809109  1
  Zn  Zn104  1  0.62167310  0.62392866  -0.00123624  1
  Zn  Zn105  1  -0.00448384  0.37274101  0.86839952  1
  Zn  Zn106  1  -0.00007008  0.24863838  0.24918712  1
  Zn  Zn107  1  0.18641741  0.18727568  0.18735634  1
  Zn  Zn108  1  0.18711800  0.19014763  0.68809168  1
  Zn  Zn109  1  0.19385233  0.68689306  0.19112793  1
  Zn  Zn110  1  0.18585546  0.68429174  0.70633500  1
  Zn  Zn111  1  0.68687256  0.18682468  0.18801530  1
  Zn  Zn112  1  0.68992171  0.18423907  0.68741887  1
  Zn  Zn113  1  0.68549724  0.69135559  0.19156075  1
  Zn  Zn114  1  0.68378436  0.69126928  0.68744138  1
  Zn  Zn115  1  0.31270372  0.31145329  0.30886210  1
  Zn  Zn116  1  0.31132390  0.31297658  0.81194298  1
  Zn  Zn117  1  0.31255240  0.80999232  0.31652035  1
  Zn  Zn118  1  0.31755749  0.81370360  0.81072674  1
  Zn  Zn119  1  0.81212472  0.30861376  0.31364066  1
  Zn  Zn120  1  0.81239044  0.31295391  0.81015212  1
  Zn  Zn121  1  0.80803997  0.81301123  0.30798797  1
  Zn  Zn122  1  0.81500841  0.80539925  0.81680757  1
  Zn  Zn123  1  0.18914687  0.44052733  0.43672614  1
  Zn  Zn124  1  0.18459734  0.43640767  0.93570564  1
  Zn  Zn125  1  0.19057755  0.93499564  0.43604254  1
  Zn  Zn126  1  0.22171451  0.91625350  0.91852971  1
  Zn  Zn127  1  0.68731806  0.43710477  0.43403422  1
  Zn  Zn128  1  0.68527726  0.44021501  0.93620281  1
  Zn  Zn129  1  0.68353196  0.93815594  0.43525608  1
  Zn  Zn130  1  0.68435805  0.93625601  0.96389074  1
  Zn  Zn131  1  0.31193385  0.06175283  0.05896218  1
  Zn  Zn132  1  0.31397789  0.06458484  0.56171078  1
  Zn  Zn133  1  0.31603683  0.56669659  0.06400427  1
  Zn  Zn134  1  0.31822215  0.55716706  0.56670115  1
  Zn  Zn135  1  0.81480682  0.06237851  0.05452634  1
  Zn  Zn136  1  0.81083907  0.06551983  0.56099209  1
  Zn  Zn137  1  0.81157471  0.56640251  0.06730367  1
  Zn  Zn138  1  0.81519379  0.56013147  0.55777814  1
  Zn  Zn139  1  0.43755376  0.43697838  0.18508218  1
  Zn  Zn140  1  0.43839545  0.43971315  0.69204030  1
  Zn  Zn141  1  0.43911993  0.93283483  0.18656258  1
  Zn  Zn142  1  0.44028857  0.93678962  0.67953707  1
  Zn  Zn143  1  0.93728511  0.44079358  0.18911565  1
  Zn  Zn144  1  0.92197857  0.44241080  0.67986141  1
  Zn  Zn145  1  0.93935950  0.93692731  0.18797911  1
  Zn  Zn146  1  0.93587442  0.93900841  0.68782906  1
  Zn  Zn147  1  0.06208162  0.05857967  0.30811030  1
  Zn  Zn148  1  0.06638177  0.06435864  0.81221600  1
  Zn  Zn149  1  0.06467056  0.55834147  0.31309837  1
  Zn  Zn150  1  0.05825775  0.55875041  0.81188122  1
  Zn  Zn151  1  0.55730232  0.06148082  0.31258417  1
  Zn  Zn152  1  0.55758296  0.06653834  0.81211777  1
  Zn  Zn153  1  0.56388736  0.56638813  0.31144558  1
  Zn  Zn154  1  0.56069794  0.56318029  0.81189405  1
  Zn  Zn155  1  0.43397919  0.19440524  0.43524455  1
  Zn  Zn156  1  0.43168855  0.18490819  0.93486236  1
  Zn  Zn157  1  0.44414976  0.68610112  0.44263963  1
  Zn  Zn158  1  0.44164973  0.68727662  0.93476098  1
  Zn  Zn159  1  0.93334438  0.18780677  0.43695272  1
  Zn  Zn160  1  0.93792075  0.18538910  0.93924621  1
  Zn  Zn161  1  0.93847382  0.68951390  0.43800111  1
  Zn  Zn162  1  0.93317807  0.68535264  0.94038391  1
  Zn  Zn163  1  0.06297525  0.31178387  0.06085858  1
  Zn  Zn164  1  0.05960110  0.31149334  0.56141160  1
  Zn  Zn165  1  0.06446654  0.81498011  0.06293880  1
  Zn  Zn166  1  0.05283456  0.81850296  0.56233561  1
  Zn  Zn167  1  0.56432162  0.31265702  0.06072852  1
  Zn  Zn168  1  0.56341357  0.31812091  0.56385732  1
  Zn  Zn169  1  0.56235307  0.81151221  0.06636448  1
  Zn  Zn170  1  0.55700297  0.81215633  0.56863694  1
  O  O171  1  0.11550126  0.11545112  0.13128604  1
  O  O172  1  0.12271483  0.11903785  0.61757188  1
  O  O173  1  0.12744830  0.62111233  0.11946508  1
  O  O174  1  0.12243912  0.63365527  0.61381401  1
  O  O175  1  0.61652316  0.11785865  0.12378964  1
  O  O176  1  0.62311625  0.10786925  0.63093240  1
  O  O177  1  0.61440295  0.62584013  0.12553380  1
  O  O178  1  0.62317857  0.62713488  0.61221300  1
  O  O179  1  0.38264086  0.36733590  0.38242007  1
  O  O180  1  0.38299954  0.38351656  0.86890956  1
  O  O181  1  0.38556776  0.87142065  0.38465258  1
  O  O182  1  0.33024352  0.89092402  0.88593912  1
  O  O183  1  0.88758507  0.37219302  0.37890773  1
  O  O184  1  0.87642299  0.38077713  0.88432176  1
  O  O185  1  0.88098159  0.87992678  0.37829555  1
  O  O186  1  0.88478033  0.88198351  0.87499152  1
  O  O187  1  0.24435030  0.00933277  0.36401577  1
  O  O188  1  0.23179365  0.01222670  0.85399123  1
  O  O189  1  0.24333358  0.51450633  0.36779506  1
  O  O190  1  0.25398506  0.50554422  0.87055816  1
  O  O191  1  0.76106340  0.00702807  0.38131453  1
  O  O192  1  0.75365578  0.00258497  0.87072806  1
  O  O193  1  0.75331825  0.50171366  0.36252309  1
  O  O194  1  0.76226582  0.50976402  0.88262086  1
  O  O195  1  0.24960223  0.49350681  0.13080046  1
  O  O196  1  0.25371329  0.48627829  0.63412337  1
  O  O197  1  0.24722271  0.99234542  0.13078758  1
  O  O198  1  0.24206841  1.00291371  0.63140245  1
  O  O199  1  0.75134840  0.49323536  0.13701991  1
  O  O200  1  0.81531745  0.51597678  0.66194100  1
  O  O201  1  0.73395992  1.00316350  0.11481988  1
  O  O202  1  0.73594311  0.99738679  0.61611128  1
  O  O203  1  0.00628641  0.37537824  0.25836842  1
  O  O204  1  0.01116517  0.38424182  0.74564130  1
  O  O205  1  0.01176670  0.88258273  0.26048882  1
  O  O206  1  0.00503415  0.86695721  0.75405327  1
  O  O207  1  0.50636050  0.37073617  0.25333064  1
  O  O208  1  0.50611605  0.36603753  0.75852781  1
  O  O209  1  0.50406228  0.86954126  0.26083691  1
  O  O210  1  0.49173649  0.86013673  0.74554802  1
  O  O211  1  0.49305455  0.12846922  0.23952556  1
  O  O212  1  0.49595766  0.14051996  0.74831286  1
  O  O213  1  0.50192022  0.63272300  0.24012937  1
  O  O214  1  0.49205839  0.62927424  0.74582334  1
  O  O215  1  0.99017595  0.12254649  0.23813508  1
  O  O216  1  0.98749557  0.12318365  0.75173473  1
  O  O217  1  0.98817219  0.61858980  0.25012839  1
  O  O218  1  0.99538209  0.62934283  0.73951046  1
  O  O219  1  0.36335606  0.24617432  0.00991292  1
  O  O220  1  0.37187455  0.26153521  0.50754106  1
  O  O221  1  0.37570480  0.74849729  0.01056394  1
  O  O222  1  0.37826439  0.76124386  0.50069380  1
  O  O223  1  0.87421302  0.25828843  0.00568361  1
  O  O224  1  0.86640946  0.25632534  0.50284964  1
  O  O225  1  0.86867495  0.75039149  0.01150964  1
  O  O226  1  0.88434988  0.76337131  0.50941861  1
  O  O227  1  0.12631390  0.24235031  0.49151738  1
  O  O228  1  0.13686849  0.25586405  0.99097315  1
  O  O229  1  0.12352278  0.75169371  0.49185748  1
  O  O230  1  0.11935162  0.73717262  0.99597048  1
  O  O231  1  0.63810615  0.25631543  0.49971895  1
  O  O232  1  0.62677765  0.24876959  0.98615053  1
  O  O233  1  0.61643798  0.73991327  0.49008618  1
  O  O234  1  0.64018976  0.74923143  1.00636723  1
  O  O235  1  0.49226376  0.24493915  0.12715232  1
  O  O236  1  0.49403576  0.25121558  0.63104761  1
  O  O237  1  0.49047732  0.74669657  0.13222180  1
  O  O238  1  0.50631270  0.73487018  0.63955157  1
  O  O239  1  0.99582069  0.24072227  0.12485532  1
  O  O240  1  0.98285927  0.24348331  0.61419220  1
  O  O241  1  0.98887853  0.74951923  0.12221305  1
  O  O242  1  0.99570182  0.74300937  0.63102825  1
  O  O243  1  0.00680171  0.25579810  0.37355802  1
  O  O244  1  0.01287089  0.25226126  0.88257477  1
  O  O245  1  0.00789070  0.76286554  0.37867439  1
  O  O246  1  0.00249583  0.75076745  0.86797597  1
  O  O247  1  0.50196322  0.25773120  0.36589576  1
  O  O248  1  0.50389125  0.25502922  0.86909465  1
  O  O249  1  0.50539677  0.75544717  0.37150192  1
  O  O250  1  0.49487454  0.74465817  0.85450545  1
  O  O251  1  0.24427182  0.12536839  0.48949375  1
  O  O252  1  0.24967713  0.13287082  0.99016126  1
  O  O253  1  0.24505351  0.61900095  0.49441511  1
  O  O254  1  0.24009947  0.61893991  0.99177835  1
  O  O255  1  0.75709646  0.13572782  0.48701621  1
  O  O256  1  0.74905606  0.12610692  0.98372501  1
  O  O257  1  0.73898415  0.62183328  0.49901985  1
  O  O258  1  0.74931470  0.63448077  0.99647717  1
  O  O259  1  0.24622910  0.36965402  0.01150728  1
  O  O260  1  0.25533372  0.37488105  0.50612778  1
  O  O261  1  0.23280311  0.87049057  0.02133488  1
  O  O262  1  0.26659392  0.87881106  0.49865307  1
  O  O263  1  0.76173081  0.37590061  0.00585134  1
  O  O264  1  0.76133776  0.36759562  0.49004290  1
  O  O265  1  0.75660291  0.86321868  0.00990340  1
  O  O266  1  0.76139730  0.87800771  0.49901584  1
  O  O267  1  0.13343417  0.49408512  0.24341511  1
  O  O268  1  0.13786135  0.49237523  0.75669200  1
  O  O269  1  0.13564770  0.99032116  0.24460161  1
  O  O270  1  0.12627194  0.99670725  0.73547857  1
  O  O271  1  0.63317250  0.49309858  0.24783150  1
  O  O272  1  0.62431274  0.48842921  0.75408883  1
  O  O273  1  0.61674026  1.00128542  0.23411413  1
  O  O274  1  0.62550759  0.99803875  0.74448124  1
  O  O275  1  0.36427232  0.00353406  0.24435717  1
  O  O276  1  0.36733019  0.00185765  0.74758914  1
  O  O277  1  0.36273656  0.49211520  0.25223194  1
  O  O278  1  0.36317630  0.50482746  0.76013886  1
  O  O279  1  0.87904116  0.00708194  0.25882357  1
  O  O280  1  0.88008536  0.00691294  0.76331761  1
  O  O281  1  0.86826500  0.50897790  0.25239399  1
  O  O282  1  0.90089791  0.50353865  0.77708628  1
  O  O283  1  0.11662653  0.36903598  0.37179188  1
  O  O284  1  0.12188568  0.36798170  0.86530408  1
  O  O285  1  0.11990576  0.86703930  0.36989148  1
  O  O286  1  0.12319074  0.86633756  0.86713707  1
  O  O287  1  0.61830659  0.37238886  0.36284892  1
  O  O288  1  0.61804742  0.36836403  0.86793334  1
  O  O289  1  0.61258710  0.86420715  0.38162412  1
  O  O290  1  0.64140118  0.89067981  0.86590705  1
  O  O291  1  0.37968713  0.13134464  0.12901603  1
  O  O292  1  0.37542600  0.14169705  0.62378636  1
  O  O293  1  0.38100273  0.63985173  0.12508864  1
  O  O294  1  0.38282226  0.62156043  0.63514855  1
  O  O295  1  0.87917466  0.12674426  0.12980983  1
  O  O296  1  0.87694883  0.12748015  0.63472160  1
  O  O297  1  0.87926967  0.63298741  0.13449184  1
  O  O298  1  0.88501722  0.63996209  0.62431941  1
  O  O299  1  0.25374148  0.25513874  0.11778709  1
  O  O300  1  0.25712383  0.26104797  0.62386144  1
  O  O301  1  0.26613936  0.75459741  0.13252797  1
  O  O302  1  0.23555113  0.74017275  0.61254782  1
  O  O303  1  0.75626867  0.25612670  0.12240224  1
  O  O304  1  0.76203277  0.24028142  0.61458274  1
  O  O305  1  0.75952803  0.74778435  0.11680192  1
  O  O306  1  0.76307757  0.75431603  0.62779912  1
  O  O307  1  0.24065795  0.24203751  0.37295798  1
  O  O308  1  0.24478897  0.24529892  0.88167737  1
  O  O309  1  0.24187788  0.73554858  0.37292213  1
  O  O310  1  0.23956991  0.73286949  0.86541700  1
  O  O311  1  0.74770276  0.24098228  0.38173464  1
  O  O312  1  0.74231015  0.24388069  0.87564309  1
  O  O313  1  0.73291276  0.75055732  0.37550528  1
  O  O314  1  0.75989865  0.74219882  0.89428638  1
  O  O315  1  -0.00457351  0.11628525  0.01301125  1
  O  O316  1  0.00419577  0.11270041  0.49437889  1
  O  O317  1  0.00818301  0.61707017  0.00367049  1
  O  O318  1  -0.00296719  0.61622358  0.50634769  1
  O  O319  1  0.49937134  0.12812718  0.01196142  1
  O  O320  1  0.49288928  0.11448841  0.49629285  1
  O  O321  1  0.50174380  0.62657207  0.01241504  1
  O  O322  1  0.50996295  0.62058371  0.50897532  1
  O  O323  1  0.49437814  0.37625040  0.48991507  1
  O  O324  1  0.50177400  0.37421075  0.98569171  1
  O  O325  1  0.48826183  0.88265154  0.49682279  1
  O  O326  1  0.50161937  0.88431917  1.00013615  1
  O  O327  1  0.99224876  0.37947810  0.49260956  1
  O  O328  1  0.98852252  0.38196328  1.00238253  1
  O  O329  1  0.99308032  0.88768282  0.49077335  1
  O  O330  1  1.00052624  0.88290662  0.99185942  1
  O  O331  1  0.50307023  0.48774771  0.37298011  1
  O  O332  1  0.49012489  0.49220629  0.87454273  1
  O  O333  1  0.50452943  0.99216785  0.38833632  1
  O  O334  1  0.49963426  1.00552534  0.89149359  1
  O  O335  1  0.99964827  0.49068121  0.38198749  1
  O  O336  1  0.99871072  0.49703958  0.89282913  1
  O  O337  1  0.99202535  0.99246731  0.37959415  1
  O  O338  1  0.99715748  0.99686736  0.88013393  1
  O  O339  1  0.00574737  0.00446619  0.11676568  1
  O  O340  1  0.00671591  0.00246494  0.61532079  1
  O  O341  1  0.00727474  0.50174387  0.11671654  1
  O  O342  1  -0.00497419  0.51524648  0.61824793  1
  O  O343  1  0.50457459  0.00582371  0.11753384  1
  O  O344  1  0.50558413  0.00540028  0.60951440  1
  O  O345  1  0.49787617  0.51038348  0.12389457  1
  O  O346  1  0.49818559  0.51444116  0.62797052  1
  O  O347  1  0.24378527  0.37987621  0.24177758  1
  O  O348  1  0.24215088  0.37980119  0.74299300  1
  O  O349  1  0.24520496  0.88049317  0.24731228  1
  O  O350  1  0.24107343  0.88159903  0.73862174  1
  O  O351  1  0.74388340  0.37984034  0.24770185  1
  O  O352  1  0.73681460  0.37521628  0.75400412  1
  O  O353  1  0.74112068  0.87744922  0.24845440  1
  O  O354  1  0.75440226  0.87896411  0.74815739  1
  O  O355  1  0.25339087  0.11637124  0.25375737  1
  O  O356  1  0.25299528  0.11930471  0.75309282  1
  O  O357  1  0.25139309  0.61615009  0.26255400  1
  O  O358  1  0.25537440  0.61332716  0.75784901  1
  O  O359  1  0.76257516  0.12889268  0.25569611  1
  O  O360  1  0.76219601  0.12706559  0.76215229  1
  O  O361  1  0.75802815  0.61870637  0.25181521  1
  O  O362  1  0.75930208  0.63641633  0.75924199  1
  O  O363  1  0.36127112  0.13272375  0.36654740  1
  O  O364  1  0.35987703  0.11928775  0.87130232  1
  O  O365  1  0.36235793  0.62857705  0.38254827  1
  O  O366  1  0.36656527  0.61804699  0.86992650  1
  O  O367  1  0.86969744  0.11687780  0.36543557  1
  O  O368  1  0.86989751  0.11903230  0.87035508  1
  O  O369  1  0.87217297  0.62721139  0.36822596  1
  O  O370  1  0.86635292  0.61744672  0.87133723  1
  O  O371  1  0.13268364  0.37984994  0.12914519  1
  O  O372  1  0.13329628  0.36693848  0.63156663  1
  O  O373  1  0.12922054  0.87904230  0.13631318  1
  O  O374  1  0.12622043  0.88330072  0.62607531  1
  O  O375  1  0.62994671  0.37512891  0.13576089  1
  O  O376  1  0.62347525  0.37587219  0.64027013  1
  O  O377  1  0.62456816  0.89010450  0.12539406  1
  O  O378  1  0.62296684  0.89358785  0.61918017  1
  O  O379  1  0.12241418  0.25689322  0.25593038  1
  O  O380  1  0.12841560  0.26123636  0.75921537  1
  O  O381  1  0.12904544  0.76063388  0.25609834  1
  O  O382  1  0.11106484  0.75315422  0.75583156  1
  O  O383  1  0.61731906  0.25790610  0.24962577  1
  O  O384  1  0.61967162  0.25390878  0.75816099  1
  O  O385  1  0.61355794  0.74981364  0.26542987  1
  O  O386  1  0.61813515  0.75733457  0.75207921  1
  O  O387  1  0.37839972  0.24398283  0.23651838  1
  O  O388  1  0.38283035  0.25304289  0.74163305  1
  O  O389  1  0.38874012  0.75353443  0.25036201  1
  O  O390  1  0.36700591  0.73543560  0.74773927  1
  O  O391  1  0.87889027  0.24079333  0.24335519  1
  O  O392  1  0.87283451  0.24315506  0.74049624  1
  O  O393  1  0.87157767  0.74122169  0.24222436  1
  O  O394  1  0.88586638  0.75058119  0.74154642  1
  O  O395  1  0.37941109  0.48505645  0.50223427  1
  O  O396  1  0.37528789  0.50338372  0.98667494  1
  O  O397  1  0.38580444  0.99551601  0.50123970  1
  O  O398  1  0.39185957  1.00191038  1.00339865  1
  O  O399  1  0.88249077  0.48912894  0.49499723  1
  O  O400  1  0.88245680  0.49639371  0.99852246  1
  O  O401  1  0.88165502  0.99566548  0.49209644  1
  O  O402  1  0.88429852  0.99826745  0.98581527  1
  O  O403  1  0.11535907  -0.00289551  0.00321982  1
  O  O404  1  0.11931660  0.00248252  0.50613001  1
  O  O405  1  0.12002855  0.50688594  0.00653546  1
  O  O406  1  0.11071541  0.49263108  0.50139540  1
  O  O407  1  0.60986633  0.00667055  0.01193667  1
  O  O408  1  0.61380915  0.00280670  0.50412476  1
  O  O409  1  0.62023548  0.50303114  0.00479865  1
  O  O410  1  0.62409692  0.51366575  0.49506566  1
  O  O411  1  0.36577292  0.36482933  0.12811613  1
  O  O412  1  0.36989676  0.36785961  0.62019790  1
  O  O413  1  0.36859894  0.86068253  0.12814074  1
  O  O414  1  0.37055191  0.87445556  0.61037072  1
  O  O415  1  0.87151707  0.36982254  0.12052808  1
  O  O416  1  0.87650757  0.36390938  0.61157330  1
  O  O417  1  0.87560972  0.86737024  0.12472144  1
  O  O418  1  0.87536349  0.87203958  0.61510023  1
  O  O419  1  0.13190635  0.12846193  0.37518387  1
  O  O420  1  0.13574820  0.13784230  0.86724052  1
  O  O421  1  0.12626585  0.63698760  0.37161425  1
  O  O422  1  0.12957855  0.62610595  0.88255299  1
  O  O423  1  0.63831067  0.12487135  0.36571736  1
  O  O424  1  0.63238643  0.13356207  0.87294101  1
  O  O425  1  0.62520811  0.63443376  0.38654536  1
  O  O426  1  0.64040051  0.62031909  0.87526577  1
