# generated using pymatgen
data_V85Zn86O256
_symmetry_space_group_name_H-M   'P 1'
_cell_length_a   16.95919250
_cell_length_b   16.95288165
_cell_length_c   16.95339546
_cell_angle_alpha   89.99934936
_cell_angle_beta   90.04932030
_cell_angle_gamma   90.02931145
_symmetry_Int_Tables_number   1
_chemical_formula_structural   V85Zn86O256
_chemical_formula_sum   'V85 Zn86 O256'
_cell_volume   4874.22053244
_cell_formula_units_Z   1
loop_
 _symmetry_equiv_pos_site_id
 _symmetry_equiv_pos_as_xyz
  1  'x, y, z'
loop_
 _atom_site_type_symbol
 _atom_site_label
 _atom_site_symmetry_multiplicity
 _atom_site_fract_x
 _atom_site_fract_y
 _atom_site_fract_z
 _atom_site_occupancy
  V  V0  1  0.74646461  -0.00270643  0.73782874  1
  V  V1  1  0.00021529  0.86824843  0.86518927  1
  V  V2  1  0.62820399  0.76035856  0.36859374  1
  V  V3  1  0.50308425  0.87829672  0.87929414  1
  V  V4  1  0.75092929  0.62496993  0.37640032  1
  V  V5  1  0.25582843  0.12324186  0.86643674  1
  V  V6  1  0.24268572  0.87014934  0.12264433  1
  V  V7  1  0.37469962  0.24194786  0.62497036  1
  V  V8  1  0.37983947  0.00231410  0.87253249  1
  V  V9  1  0.38741067  0.73718334  0.13214405  1
  V  V10  1  0.49766925  0.24549475  0.75316960  1
  V  V11  1  0.00119917  0.12722184  0.13140889  1
  V  V12  1  0.12664449  0.12236604  -0.00054941  1
  V  V13  1  0.12527709  0.12503276  0.50212171  1
  V  V14  1  0.37699272  0.12631839  0.25043623  1
  V  V15  1  0.62588768  0.12570922  0.50564782  1
  V  V16  1  0.37646501  -0.00002814  0.38133765  1
  V  V17  1  0.51257759  0.25111534  0.25788701  1
  V  V18  1  0.74952817  0.87796367  0.12336635  1
  V  V19  1  -0.00061006  -0.00276789  -0.00127387  1
  V  V20  1  0.62044030  0.11013430  0.00562707  1
  V  V21  1  0.87656344  0.63250776  0.74932995  1
  V  V22  1  0.74749079  0.49920035  0.74910582  1
  V  V23  1  0.00682631  0.87656280  0.37003462  1
  V  V24  1  0.87334951  0.50094929  0.37177401  1
  V  V25  1  0.36780283  0.61534705  0.74828229  1
  V  V26  1  -0.00206931  0.63322101  0.62703632  1
  V  V27  1  0.25406483  0.24685894  0.00035956  1
  V  V28  1  0.87475105  0.25349219  0.62521458  1
  V  V29  1  0.12682648  0.25006654  0.87511501  1
  V  V30  1  0.74417930  0.13370541  0.37232648  1
  V  V31  1  0.12962589  0.50235946  0.12290458  1
  V  V32  1  0.25288673  0.37443166  0.12854442  1
  V  V33  1  0.00127916  0.50072590  0.50044204  1
  V  V34  1  0.62593717  0.87745558  0.73535395  1
  V  V35  1  0.62421629  0.37115091  0.75421446  1
  V  V36  1  0.50273204  0.11651072  0.63179159  1
  V  V37  1  0.50547042  0.51175034  0.00526509  1
  V  V38  1  0.87745865  0.62345766  0.25174102  1
  V  V39  1  0.24343272  -0.00251840  0.24727098  1
  V  V40  1  0.37352505  0.87420606  -0.00278859  1
  V  V41  1  0.13124959  -0.00479979  0.62928643  1
  V  V42  1  0.00131448  0.37535408  0.87439525  1
  V  V43  1  0.70037716  0.69412194  0.04103989  1
  V  V44  1  0.13707757  0.50079964  0.62481218  1
  V  V45  1  0.73918585  0.25156206  -0.00225258  1
  V  V46  1  0.00714846  0.62642965  0.12171204  1
  V  V47  1  0.75175288  -0.00098318  0.24574236  1
  V  V48  1  0.50702927  0.37882733  0.38372492  1
  V  V49  1  0.87591209  0.50056879  0.87335215  1
  V  V50  1  -0.00080766  0.36612200  0.37070619  1
  V  V51  1  -0.00181299  0.00153017  0.50072756  1
  V  V52  1  0.36548674  0.87282710  0.50765189  1
  V  V53  1  0.74754027  0.37600812  0.62330709  1
  V  V54  1  0.62703688  0.75074493  0.87272273  1
  V  V55  1  0.24969656  0.12299376  0.37582735  1
  V  V56  1  0.12387088  0.36618509  0.25004841  1
  V  V57  1  0.25303127  0.50824380  0.26248284  1
  V  V58  1  0.87238785  0.12699841  0.75227280  1
  V  V59  1  0.50537988  0.37161273  0.87764140  1
  V  V60  1  0.87296422  0.00036407  0.37407470  1
  V  V61  1  0.74431876  0.38222603  0.13122376  1
  V  V62  1  0.87419836  0.37635489  0.49922871  1
  V  V63  1  0.24330557  0.61413491  0.87848769  1
  V  V64  1  0.37427575  0.37784277  0.49620182  1
  V  V65  1  0.12134976  0.64107016  0.48762811  1
  V  V66  1  0.74212988  0.12730252  0.87479405  1
  V  V67  1  0.37961906  0.37557936  0.00006335  1
  V  V68  1  0.00563271  0.50113863  -0.00051650  1
  V  V69  1  0.00070083  0.12803434  0.62688736  1
  V  V70  1  0.12413376  0.74521252  0.87665930  1
  V  V71  1  0.01343662  0.75547894  0.25134864  1
  V  V72  1  0.62425177  0.62166654  0.50082132  1
  V  V73  1  0.50477512  0.87655909  0.38167156  1
  V  V74  1  0.87256496  -0.00060854  0.87493648  1
  V  V75  1  0.35920792  0.75161335  0.62649206  1
  V  V76  1  0.75258903  0.76087638  0.50783608  1
  V  V77  1  0.49794789  0.62235074  0.62285039  1
  V  V78  1  0.00141719  0.25400527  0.75166108  1
  V  V79  1  0.87796576  0.25081977  0.12854360  1
  V  V80  1  0.87689875  0.75066408  0.12045061  1
  V  V81  1  0.38178077  0.24723984  0.12741142  1
  V  V82  1  0.74339896  0.62502814  0.87299101  1
  V  V83  1  0.57431192  0.93540302  0.19543324  1
  V  V84  1  0.87471391  0.37234458  -0.00041429  1
  Zn  Zn85  1  0.13777793  0.38262225  0.75362967  1
  Zn  Zn86  1  0.49753527  0.74816724  0.74940196  1
  Zn  Zn87  1  0.24791348  0.74110989  0.00247409  1
  Zn  Zn88  1  0.12994039  0.85873474  0.74200366  1
  Zn  Zn89  1  0.28208571  0.70248717  0.43896768  1
  Zn  Zn90  1  0.87198562  0.88122461  0.50874868  1
  Zn  Zn91  1  0.12299000  -0.00522066  0.12493346  1
  Zn  Zn92  1  0.24986255  0.24939627  0.50041280  1
  Zn  Zn93  1  0.62497524  0.51951368  0.12549704  1
  Zn  Zn94  1  0.62794471  0.39216069  0.25704548  1
  Zn  Zn95  1  0.87839575  0.13001534  0.25197371  1
  Zn  Zn96  1  0.74434398  0.25510722  0.49233146  1
  Zn  Zn97  1  0.87416844  0.76236703  0.63390631  1
  Zn  Zn98  1  0.61570121  0.49643265  0.62028747  1
  Zn  Zn99  1  0.50812818  -0.00401354  0.51159968  1
  Zn  Zn100  1  0.86945589  0.87013133  -0.00416128  1
  Zn  Zn101  1  0.50507611  0.11318524  0.12532951  1
  Zn  Zn102  1  0.25560229  -0.00816693  0.74815215  1
  Zn  Zn103  1  0.25679345  0.37532335  0.62964999  1
  Zn  Zn104  1  0.12098515  0.24477090  0.37183317  1
  Zn  Zn105  1  0.39452354  0.54595611  0.34922986  1
  Zn  Zn106  1  0.37258173  0.49521993  0.86845982  1
  Zn  Zn107  1  0.18901493  0.18551560  0.18647886  1
  Zn  Zn108  1  0.18903002  0.19005131  0.68916787  1
  Zn  Zn109  1  0.19350273  0.68674081  0.18903949  1
  Zn  Zn110  1  0.18346203  0.68110267  0.69315838  1
  Zn  Zn111  1  0.68956952  0.18731169  0.18316362  1
  Zn  Zn112  1  0.68431990  0.19022172  0.68694391  1
  Zn  Zn113  1  0.69000795  0.69073983  0.20448288  1
  Zn  Zn114  1  0.68550230  0.68858070  0.68687410  1
  Zn  Zn115  1  0.31268609  0.31213308  0.31415860  1
  Zn  Zn116  1  0.31497833  0.31290908  0.81001596  1
  Zn  Zn117  1  0.32061695  0.81292369  0.30491167  1
  Zn  Zn118  1  0.30702705  0.80781466  0.80959072  1
  Zn  Zn119  1  0.81428038  0.31355866  0.30801866  1
  Zn  Zn120  1  0.81069783  0.31166848  0.81402375  1
  Zn  Zn121  1  0.81620460  0.81379388  0.31051829  1
  Zn  Zn122  1  0.80668955  0.81378391  0.81301033  1
  Zn  Zn123  1  0.18619039  0.43573121  0.44119208  1
  Zn  Zn124  1  0.19019761  0.43566722  0.93926622  1
  Zn  Zn125  1  0.20364266  0.88035311  0.41601775  1
  Zn  Zn126  1  0.18845831  0.93376550  0.93262303  1
  Zn  Zn127  1  0.68690771  0.44104726  0.43537303  1
  Zn  Zn128  1  0.68461030  0.44012369  0.94032447  1
  Zn  Zn129  1  0.68761994  0.94452684  0.43970438  1
  Zn  Zn130  1  0.68891608  0.93656038  0.93515564  1
  Zn  Zn131  1  0.31649889  0.05886785  0.05862475  1
  Zn  Zn132  1  0.31370053  0.06207282  0.56255449  1
  Zn  Zn133  1  0.31508849  0.55972306  0.06198924  1
  Zn  Zn134  1  0.32000396  0.57105185  0.54055890  1
  Zn  Zn135  1  0.81246976  0.06338946  0.06168535  1
  Zn  Zn136  1  0.81235120  0.06672474  0.56061941  1
  Zn  Zn137  1  0.82306614  0.55658762  0.06481076  1
  Zn  Zn138  1  0.81157372  0.56413590  0.56167818  1
  Zn  Zn139  1  0.44055823  0.43864387  0.18919650  1
  Zn  Zn140  1  0.43675334  0.43572903  0.68229046  1
  Zn  Zn141  1  0.41234977  0.92907407  0.19239211  1
  Zn  Zn142  1  0.43650886  0.93252948  0.69420555  1
  Zn  Zn143  1  0.93857739  0.43785338  0.18772926  1
  Zn  Zn144  1  0.93950741  0.44185727  0.68750965  1
  Zn  Zn145  1  0.93542589  0.93847325  0.18674390  1
  Zn  Zn146  1  0.93823488  0.94021404  0.68799794  1
  Zn  Zn147  1  0.06403735  0.05843346  0.31327495  1
  Zn  Zn148  1  0.06184969  0.06307804  0.81328929  1
  Zn  Zn149  1  0.06338506  0.55812056  0.30956217  1
  Zn  Zn150  1  0.06403298  0.56364775  0.80759029  1
  Zn  Zn151  1  0.56025651  0.07015319  0.32232916  1
  Zn  Zn152  1  0.56467462  0.05969336  0.81479942  1
  Zn  Zn153  1  0.56326497  0.57191404  0.29984350  1
  Zn  Zn154  1  0.55748071  0.55891897  0.81057526  1
  Zn  Zn155  1  0.44077327  0.18829779  0.44154995  1
  Zn  Zn156  1  0.44237248  0.18657925  0.93696424  1
  Zn  Zn157  1  0.45526977  0.67602222  0.41800627  1
  Zn  Zn158  1  0.43186662  0.69019496  0.93361059  1
  Zn  Zn159  1  0.93261455  0.18734377  0.43882673  1
  Zn  Zn160  1  0.93504418  0.18628366  0.94092054  1
  Zn  Zn161  1  0.93965688  0.69321969  0.43788046  1
  Zn  Zn162  1  0.93685719  0.68637352  0.93819150  1
  Zn  Zn163  1  0.06415029  0.31199056  0.06204643  1
  Zn  Zn164  1  0.06498135  0.31438029  0.56112933  1
  Zn  Zn165  1  0.06399089  0.81026854  0.05441446  1
  Zn  Zn166  1  0.05398280  0.81691370  0.56123999  1
  Zn  Zn167  1  0.56366623  0.31058762  0.06452678  1
  Zn  Zn168  1  0.56300528  0.30529034  0.56440132  1
  Zn  Zn169  1  0.55431560  0.81114110  0.05957638  1
  Zn  Zn170  1  0.55535846  0.80249638  0.55874474  1
  O  O171  1  0.11848830  0.12482181  0.11529913  1
  O  O172  1  0.11861218  0.12405671  0.62008681  1
  O  O173  1  0.11833824  0.61501334  0.12913611  1
  O  O174  1  0.11344608  0.61616975  0.62053504  1
  O  O175  1  0.62477612  0.12479129  0.11094190  1
  O  O176  1  0.61805593  0.12670946  0.61730169  1
  O  O177  1  0.64647985  0.63744449  0.11332721  1
  O  O178  1  0.61767711  0.62470158  0.61906761  1
  O  O179  1  0.38363484  0.36358905  0.38972472  1
  O  O180  1  0.38308520  0.37437543  0.88502812  1
  O  O181  1  0.38434669  0.88327868  0.38358000  1
  O  O182  1  0.38392030  0.87614457  0.87900355  1
  O  O183  1  0.88024547  0.38105368  0.37685845  1
  O  O184  1  0.88022317  0.38062133  0.87931329  1
  O  O185  1  0.87792591  0.89067243  0.37482308  1
  O  O186  1  0.88003515  0.87973115  0.87583868  1
  O  O187  1  0.25755168  0.00668532  0.36715816  1
  O  O188  1  0.25772856  0.00945305  0.87759876  1
  O  O189  1  0.24591990  0.49412837  0.36219778  1
  O  O190  1  0.25194434  0.50876657  0.87661429  1
  O  O191  1  0.75483247  0.00835387  0.36483805  1
  O  O192  1  0.75584615  0.00746969  0.86797654  1
  O  O193  1  0.76143570  0.51164843  0.38080376  1
  O  O194  1  0.75389588  0.50644396  0.87064608  1
  O  O195  1  0.24478558  0.49284544  0.13036054  1
  O  O196  1  0.23722688  0.50432010  0.61366324  1
  O  O197  1  0.25173043  0.99340303  0.13044947  1
  O  O198  1  0.23434679  1.00965859  0.62843119  1
  O  O199  1  0.75043985  0.48410839  0.11587598  1
  O  O200  1  0.75037226  0.48858032  0.63026070  1
  O  O201  1  0.75473429  0.99573247  0.13735055  1
  O  O202  1  0.75400703  1.00822538  0.63937626  1
  O  O203  1  0.00964718  0.38186390  0.25952867  1
  O  O204  1  0.00092211  0.36893908  0.75684875  1
  O  O205  1  -0.00743412  0.86684158  0.25539902  1
  O  O206  1  0.00585394  0.88159734  0.76364571  1
  O  O207  1  0.50128211  0.36469313  0.26105567  1
  O  O208  1  0.50623603  0.37094361  0.75700901  1
  O  O209  1  0.50771985  0.88568439  0.25630434  1
  O  O210  1  0.51206303  0.87152423  0.76071626  1
  O  O211  1  0.49669580  0.13596692  0.24898725  1
  O  O212  1  0.51185202  0.13498585  0.74578233  1
  O  O213  1  0.47083382  0.62529242  0.31518892  1
  O  O214  1  0.49094337  0.62719294  0.74377785  1
  O  O215  1  1.00143779  0.12006286  0.23477853  1
  O  O216  1  0.99291149  0.13467809  0.74812763  1
  O  O217  1  0.99633588  0.63114613  0.24086765  1
  O  O218  1  0.98713846  0.61683474  0.73989113  1
  O  O219  1  0.37628469  0.25730714  0.00829973  1
  O  O220  1  0.37379756  0.25317423  0.50921827  1
  O  O221  1  0.37216857  0.75995914  0.00330408  1
  O  O222  1  0.36878133  0.75921157  0.51426457  1
  O  O223  1  0.86594454  0.25479291  0.00769804  1
  O  O224  1  0.87078062  0.25871882  0.50779698  1
  O  O225  1  0.87684606  0.74944541  0.01503077  1
  O  O226  1  0.86046483  0.75245287  0.49947592  1
  O  O227  1  0.12597124  0.23763035  0.49826602  1
  O  O228  1  0.13266294  0.24386463  0.99411343  1
  O  O229  1  0.11211754  0.74114109  0.49796376  1
  O  O230  1  0.12733479  0.74573543  0.98523780  1
  O  O231  1  0.62940994  0.23406298  0.50409743  1
  O  O232  1  0.63673749  0.24361675  1.00301398  1
  O  O233  1  0.63830339  0.74457889  0.49476840  1
  O  O234  1  0.62867031  0.75331265  0.99163410  1
  O  O235  1  0.49186638  0.25156419  0.13609311  1
  O  O236  1  0.49521208  0.23941292  0.63402015  1
  O  O237  1  0.48757603  0.74591377  0.11988626  1
  O  O238  1  0.49003054  0.73774477  0.62869815  1
  O  O239  1  0.99087750  0.23961298  0.11401827  1
  O  O240  1  0.99590908  0.24790625  0.63141183  1
  O  O241  1  0.99528719  0.74451581  0.12813874  1
  O  O242  1  0.99517346  0.73666922  0.62208218  1
  O  O243  1  -0.00199046  0.26233698  0.37811416  1
  O  O244  1  0.00427273  0.25453120  0.87213729  1
  O  O245  1  -0.00759564  0.76425603  0.36382020  1
  O  O246  1  0.00451460  0.75865616  0.88161627  1
  O  O247  1  0.49758569  0.25383838  0.36198856  1
  O  O248  1  0.49717984  0.26164539  0.86803397  1
  O  O249  1  0.51294828  0.77025296  0.38546296  1
  O  O250  1  0.51264050  0.75397272  0.87285674  1
  O  O251  1  0.24163899  0.12280622  0.49154621  1
  O  O252  1  0.24487179  0.12981120  0.99606617  1
  O  O253  1  0.22278933  0.62980407  0.50816097  1
  O  O254  1  0.25723569  0.62180874  0.98254420  1
  O  O255  1  0.74240304  0.12797821  0.49221878  1
  O  O256  1  0.74228266  0.13070124  0.99485666  1
  O  O257  1  0.74854990  0.63543934  0.49191104  1
  O  O258  1  0.75873418  0.62211964  0.98983521  1
  O  O259  1  0.26036100  0.36733476  0.00694060  1
  O  O260  1  0.26153694  0.36933304  0.50238643  1
  O  O261  1  0.25683820  0.87132410  0.00485727  1
  O  O262  1  0.26694577  0.89300105  0.50793143  1
  O  O263  1  0.75430700  0.36782746  0.00455312  1
  O  O264  1  0.75427696  0.37515913  0.50682012  1
  O  O265  1  0.75114028  0.88399531  0.01670615  1
  O  O266  1  0.75039150  0.86400608  0.49647434  1
  O  O267  1  0.13292827  0.48984418  0.24093135  1
  O  O268  1  0.11880839  0.49917857  0.72904183  1
  O  O269  1  0.13967691  1.00657904  0.24412267  1
  O  O270  1  0.12264434  1.00632642  0.73440073  1
  O  O271  1  0.62208368  0.50509272  0.23843307  1
  O  O272  1  0.62967826  0.48869452  0.74638607  1
  O  O273  1  0.63039572  1.00185991  0.25198327  1
  O  O274  1  0.63193443  0.98588746  0.75285198  1
  O  O275  1  0.36880309  0.00848056  0.26267691  1
  O  O276  1  0.37342570  -0.00405708  0.76680784  1
  O  O277  1  0.35856182  0.49163280  0.25210518  1
  O  O278  1  0.37895302  0.51116422  0.74808455  1
  O  O279  1  0.86719371  0.00632807  0.25580982  1
  O  O280  1  0.86844123  0.00846460  0.75788332  1
  O  O281  1  0.88249564  0.51515033  0.25430590  1
  O  O282  1  0.86722327  0.50692410  0.75613085  1
  O  O283  1  0.11668412  0.37145556  0.36887101  1
  O  O284  1  0.11957691  0.36835104  0.87509269  1
  O  O285  1  0.10478605  0.89734656  0.37008302  1
  O  O286  1  0.11455508  0.86428020  0.87726027  1
  O  O287  1  0.61346154  0.37529621  0.37551444  1
  O  O288  1  0.61850365  0.37733962  0.86691073  1
  O  O289  1  0.61851589  0.87373903  0.38146974  1
  O  O290  1  0.62079792  0.86768764  0.87121093  1
  O  O291  1  0.38315327  0.13006752  0.12800890  1
  O  O292  1  0.38516957  0.13407808  0.62089154  1
  O  O293  1  0.36889694  0.63843189  0.12171049  1
  O  O294  1  0.37716098  0.63318157  0.62722061  1
  O  O295  1  0.88335430  0.13357650  0.12312896  1
  O  O296  1  0.88033530  0.13376670  0.63141625  1
  O  O297  1  0.88181119  0.62985189  0.13309980  1
  O  O298  1  0.88056823  0.62476244  0.63337798  1
  O  O299  1  0.26340638  0.25230443  0.12122007  1
  O  O300  1  0.26159900  0.24709671  0.62257013  1
  O  O301  1  0.25507657  0.75659335  0.12222387  1
  O  O302  1  0.26029440  0.74558970  0.63202037  1
  O  O303  1  0.75754878  0.25889573  0.11642233  1
  O  O304  1  0.75554452  0.26361329  0.62717241  1
  O  O305  1  0.75458194  0.75499898  0.12118080  1
  O  O306  1  0.75204387  0.74525728  0.61029182  1
  O  O307  1  0.24834479  0.23328700  0.37431902  1
  O  O308  1  0.24926723  0.24187839  0.88217186  1
  O  O309  1  0.24197129  0.78108824  0.37525757  1
  O  O310  1  0.24176084  0.73553473  0.87842044  1
  O  O311  1  0.75756634  0.23768107  0.37269179  1
  O  O312  1  0.75557148  0.23979649  0.88521811  1
  O  O313  1  0.74742467  0.74764948  0.38255713  1
  O  O314  1  0.73812793  0.74202291  0.87667209  1
  O  O315  1  0.00543822  0.11441268  0.00403150  1
  O  O316  1  0.00486350  0.12238314  0.50551690  1
  O  O317  1  -0.00644713  0.61700837  0.01445489  1
  O  O318  1  0.00309187  0.61887963  0.50635372  1
  O  O319  1  0.51664381  0.12790581  0.00260501  1
  O  O320  1  0.51108515  0.12335053  0.50943984  1
  O  O321  1  0.49313478  0.60852002  -0.01001983  1
  O  O322  1  0.51604406  0.63526597  0.50874294  1
  O  O323  1  0.49424284  0.36178573  0.48886637  1
  O  O324  1  0.49639822  0.37525362  0.99421395  1
  O  O325  1  0.49214990  0.87983719  0.49701561  1
  O  O326  1  0.49267442  0.87319586  0.98644846  1
  O  O327  1  0.99468970  0.38243108  0.49298032  1
  O  O328  1  0.99505979  0.37975419  0.99396851  1
  O  O329  1  0.99464607  0.88556539  0.48888964  1
  O  O330  1  0.99587321  0.88728382  0.99486018  1
  O  O331  1  0.49305437  0.47730903  0.37622141  1
  O  O332  1  0.49753259  0.48722634  0.88404262  1
  O  O333  1  0.49277846  0.99340038  0.37770659  1
  O  O334  1  0.49382046  0.99088137  0.87320527  1
  O  O335  1  0.99456698  0.49250333  0.38420907  1
  O  O336  1  0.99748198  0.49599819  0.87919828  1
  O  O337  1  0.98887410  1.00043671  0.37856747  1
  O  O338  1  0.99325331  0.99521676  0.88109653  1
  O  O339  1  -0.00011530  0.00644948  0.11579642  1
  O  O340  1  0.00579041  0.01240267  0.62190030  1
  O  O341  1  0.00885484  0.50697232  0.12214244  1
  O  O342  1  0.00131633  0.50656678  0.61174408  1
  O  O343  1  0.50747592  -0.00969150  0.14101035  1
  O  O344  1  0.49266868  0.01312248  0.63159347  1
  O  O345  1  0.50003058  0.49844130  0.11016474  1
  O  O346  1  0.49911988  0.51568375  0.62651608  1
  O  O347  1  0.24267279  0.37783201  0.24520813  1
  O  O348  1  0.25023419  0.37272400  0.74360371  1
  O  O349  1  0.26223106  0.88824030  0.23490921  1
  O  O350  1  0.23964640  0.88038301  0.75970159  1
  O  O351  1  0.74827856  0.37336150  0.23507695  1
  O  O352  1  0.74265339  0.37784526  0.74497308  1
  O  O353  1  0.75352324  0.88381159  0.23795002  1
  O  O354  1  0.73568227  0.88280503  0.75231985  1
  O  O355  1  0.25747817  0.11909141  0.25491552  1
  O  O356  1  0.24795156  0.12266379  0.76458739  1
  O  O357  1  0.24528137  0.60767887  0.25298781  1
  O  O358  1  0.25707826  0.62375550  0.76240660  1
  O  O359  1  0.74976237  0.11884264  0.25526879  1
  O  O360  1  0.75052165  0.12223460  0.75825506  1
  O  O361  1  0.76305641  0.63074689  0.26716816  1
  O  O362  1  0.75424909  0.61863966  0.75526691  1
  O  O363  1  0.36996351  0.11851987  0.37382648  1
  O  O364  1  0.36789240  0.11506957  0.88578353  1
  O  O365  1  0.35691255  0.61623650  0.43262044  1
  O  O366  1  0.36553056  0.62210400  0.86408499  1
  O  O367  1  0.86749219  0.11691475  0.37280137  1
  O  O368  1  0.86495942  0.12025271  0.87135702  1
  O  O369  1  0.87363283  0.62239163  0.36954137  1
  O  O370  1  0.86631818  0.62040404  0.86841178  1
  O  O371  1  0.13067304  0.37887510  0.13202896  1
  O  O372  1  0.12677600  0.39082647  0.62077092  1
  O  O373  1  0.13820924  0.87569373  0.11703664  1
  O  O374  1  0.11547141  0.89188798  0.62539547  1
  O  O375  1  0.64014477  0.37377700  0.12454647  1
  O  O376  1  0.63142287  0.37663826  0.62968086  1
  O  O377  1  0.62740508  0.87378524  0.12975442  1
  O  O378  1  0.61602823  0.86926410  0.63765495  1
  O  O379  1  0.12775026  0.26142345  0.24962805  1
  O  O380  1  0.11662673  0.25119395  0.75800933  1
  O  O381  1  0.11180431  0.74798636  0.24308024  1
  O  O382  1  0.12114044  0.74428226  0.76638500  1
  O  O383  1  0.61291166  0.25235334  0.24389244  1
  O  O384  1  0.61526953  0.26379851  0.74563548  1
  O  O385  1  0.62554680  0.75494154  0.26852586  1
  O  O386  1  0.62639979  0.76135664  0.75620384  1
  O  O387  1  0.38162556  0.24515201  0.24330623  1
  O  O388  1  0.39052590  0.25216532  0.74216200  1
  O  O389  1  0.38108721  0.75649599  0.23146442  1
  O  O390  1  0.37565667  0.73982325  0.74048988  1
  O  O391  1  0.87432682  0.24878042  0.23353342  1
  O  O392  1  0.88061897  0.24637944  0.74552136  1
  O  O393  1  0.88108046  0.74062875  0.23889725  1
  O  O394  1  0.86613212  0.73629520  0.75132810  1
  O  O395  1  0.37837766  0.47588886  0.50852452  1
  O  O396  1  0.38344824  0.48553556  1.00035208  1
  O  O397  1  0.38115529  0.99911637  0.49145352  1
  O  O398  1  0.37265011  0.98412969  0.98956042  1
  O  O399  1  0.88213112  0.49556363  0.49418166  1
  O  O400  1  0.88473849  0.49126316  0.99259161  1
  O  O401  1  0.87968604  1.00376121  0.49126946  1
  O  O402  1  0.88167617  1.00036480  0.99100807  1
  O  O403  1  0.11665773  0.00567908  -0.00092832  1
  O  O404  1  0.11612565  0.01454236  0.51447714  1
  O  O405  1  0.12124900  0.49144668  0.01518757  1
  O  O406  1  0.11550337  0.50500055  0.50672017  1
  O  O407  1  0.62820205  0.01177766  -0.00064656  1
  O  O408  1  0.62514682  0.01716346  0.50150724  1
  O  O409  1  0.61061568  0.50007863  0.00467234  1
  O  O410  1  0.63375297  0.51704413  0.50292114  1
  O  O411  1  0.37311447  0.36634830  0.12029577  1
  O  O412  1  0.38075420  0.36046426  0.61382810  1
  O  O413  1  0.36577416  0.86660015  0.11211697  1
  O  O414  1  0.38105324  0.86000166  0.62281743  1
  O  O415  1  0.86829088  0.37050831  0.11989208  1
  O  O416  1  0.86850870  0.37305943  0.62066401  1
  O  O417  1  0.86676518  0.86613523  0.12353189  1
  O  O418  1  0.88055167  0.87404671  0.62235785  1
  O  O419  1  0.13156753  0.12313825  0.38291978  1
  O  O420  1  0.13227159  0.12975829  0.88210515  1
  O  O421  1  0.11349836  0.62331002  0.38890129  1
  O  O422  1  0.13596779  0.62479088  0.87272111  1
  O  O423  1  0.63363299  0.12567502  0.38772672  1
  O  O424  1  0.63602959  0.12195065  0.88577983  1
  O  O425  1  0.63707132  0.63569981  0.38311918  1
  O  O426  1  0.63601685  0.63019843  0.86725308  1
