# generated using pymatgen
data_V85Zn86O256
_symmetry_space_group_name_H-M   'P 1'
_cell_length_a   16.96403769
_cell_length_b   16.94718970
_cell_length_c   16.96125941
_cell_angle_alpha   89.98251255
_cell_angle_beta   90.02610181
_cell_angle_gamma   90.02721622
_symmetry_Int_Tables_number   1
_chemical_formula_structural   V85Zn86O256
_chemical_formula_sum   'V85 Zn86 O256'
_cell_volume   4876.23808109
_cell_formula_units_Z   1
loop_
 _symmetry_equiv_pos_site_id
 _symmetry_equiv_pos_as_xyz
  1  'x, y, z'
loop_
 _atom_site_type_symbol
 _atom_site_label
 _atom_site_symmetry_multiplicity
 _atom_site_fract_x
 _atom_site_fract_y
 _atom_site_fract_z
 _atom_site_occupancy
  V  V0  1  0.74522386  0.24865479  0.00392448  1
  V  V1  1  0.37320572  0.00130354  0.37961793  1
  V  V2  1  0.38934344  0.13507694  0.73404348  1
  V  V3  1  0.24230493  0.37271658  0.12272367  1
  V  V4  1  0.37081470  0.50085614  0.37427936  1
  V  V5  1  0.49922956  0.62098666  0.62590362  1
  V  V6  1  0.62983983  0.62383429  0.50147526  1
  V  V7  1  0.49864069  0.50611816  0.00174986  1
  V  V8  1  0.37235194  0.49786671  0.87275142  1
  V  V9  1  0.00108694  0.74269252  0.75063910  1
  V  V10  1  0.62403779  0.25615244  0.36511287  1
  V  V11  1  0.49670905  0.63000436  0.12775357  1
  V  V12  1  0.37424883  0.87437046  0.50153220  1
  V  V13  1  0.01401901  -0.00291726  0.00788908  1
  V  V14  1  0.49947549  0.25897104  0.24737491  1
  V  V15  1  0.38359370  0.00644315  0.88412942  1
  V  V16  1  0.37289146  0.12918270  0.25108074  1
  V  V17  1  0.61587387  0.00544435  0.62976018  1
  V  V18  1  0.00128825  0.88442109  0.37865331  1
  V  V19  1  0.74947719  0.25050299  0.50212896  1
  V  V20  1  0.12018516  0.24605564  0.37317097  1
  V  V21  1  0.62977101  0.74528849  0.87416236  1
  V  V22  1  0.88072114  0.24704216  0.62795325  1
  V  V23  1  0.13992085  0.24079598  0.87382981  1
  V  V24  1  0.12122719  0.62882135  -0.01096154  1
  V  V25  1  0.36799544  0.37312016  0.49813894  1
  V  V26  1  -0.00199048  0.75419516  0.24793106  1
  V  V27  1  0.37204977  0.62248130  0.75326555  1
  V  V28  1  0.12297748  0.49868926  0.11690407  1
  V  V29  1  0.62910027  0.75070348  0.37740374  1
  V  V30  1  0.62413742  0.49814169  0.13285806  1
  V  V31  1  0.62049078  0.10836796  0.00221387  1
  V  V32  1  0.11215769  0.62725863  0.50585360  1
  V  V33  1  0.87217689  0.37218395  -0.00248020  1
  V  V34  1  -0.00057560  0.35933463  0.86796801  1
  V  V35  1  0.25222723  0.00463923  0.75987060  1
  V  V36  1  0.74485702  0.12057917  0.37006115  1
  V  V37  1  0.87029965  0.12043641  0.24516243  1
  V  V38  1  0.24341515  0.00088438  0.24104374  1
  V  V39  1  0.50373210  0.11297392  0.12343402  1
  V  V40  1  0.36804581  0.37422102  0.00158014  1
  V  V41  1  0.75388052  0.61741653  0.86305950  1
  V  V42  1  0.11979074  0.11663174  0.50115650  1
  V  V43  1  0.87182150  0.49778741  0.86074038  1
  V  V44  1  0.74871938  0.12513489  0.87414164  1
  V  V45  1  0.61554385  0.12833326  0.50680307  1
  V  V46  1  0.75544526  0.49895903  0.25728793  1
  V  V47  1  0.12138136  0.88158049  0.23674278  1
  V  V48  1  0.25079223  0.12357710  0.37728571  1
  V  V49  1  0.89081952  -0.00309723  0.87410451  1
  V  V50  1  0.61847000  0.25102908  0.87675003  1
  V  V51  1  0.89033562  0.37265055  0.48374795  1
  V  V52  1  0.87587241  0.87876554  0.50602568  1
  V  V53  1  0.11177130  0.50305801  0.62412746  1
  V  V54  1  0.87907503  0.87293442  -0.00234907  1
  V  V55  1  0.37130022  0.25080782  0.11860549  1
  V  V56  1  0.49872686  0.75090493  0.25134164  1
  V  V57  1  0.49765197  0.50038622  0.49951425  1
  V  V58  1  0.24560481  0.49821645  0.74788970  1
  V  V59  1  0.49727795  0.75077711  0.75436494  1
  V  V60  1  0.13705564  0.13349782  0.00571631  1
  V  V61  1  -0.00095602  0.24922942  0.24898523  1
  V  V62  1  0.24902364  0.24915808  0.50283058  1
  V  V63  1  0.87367974  0.00316657  0.37877169  1
  V  V64  1  0.75181409  -0.00018648  0.75168461  1
  V  V65  1  0.62348531  0.87592223  0.75226552  1
  V  V66  1  0.12711647  -0.00609834  0.63033289  1
  V  V67  1  0.24903196  0.63190677  0.37500511  1
  V  V68  1  0.10053434  0.40149194  0.28167574  1
  V  V69  1  0.74454896  0.37427822  0.12843746  1
  V  V70  1  0.24894560  0.74993547  0.50225236  1
  V  V71  1  0.58740971  0.35316621  0.72155699  1
  V  V72  1  0.00004400  0.11985467  0.62329398  1
  V  V73  1  0.25654394  0.75364811  0.00182096  1
  V  V74  1  0.49946609  0.37243926  0.88244243  1
  V  V75  1  -0.00716494  0.62626095  0.12193480  1
  V  V76  1  0.24731015  0.50375127  0.24615084  1
  V  V77  1  -0.00393513  0.49805240  -0.00574914  1
  V  V78  1  0.24704628  0.37021157  0.62455371  1
  V  V79  1  0.50546905  0.87876737  0.37932468  1
  V  V80  1  0.75382749  0.74652604  0.00123445  1
  V  V81  1  0.37415780  0.74915815  0.62747687  1
  V  V82  1  0.63224607  0.49883026  0.63191430  1
  V  V83  1  0.88587609  0.12611636  0.75176224  1
  V  V84  1  0.75578419  0.37605338  0.63514198  1
  Zn  Zn85  1  0.50460555  0.38133013  0.36911183  1
  Zn  Zn86  1  0.50000954  0.88745008  0.89452960  1
  Zn  Zn87  1  0.87808817  0.72874714  0.63256473  1
  Zn  Zn88  1  0.87489572  0.24884778  0.12425215  1
  Zn  Zn89  1  0.74993406  0.62572637  0.37079453  1
  Zn  Zn90  1  0.87017489  0.75075038  0.12981380  1
  Zn  Zn91  1  0.12164885  0.36584178  0.74692013  1
  Zn  Zn92  1  0.75175663  0.75238784  0.50539866  1
  Zn  Zn93  1  0.75104962  0.87367739  0.62660459  1
  Zn  Zn94  1  0.12623151  0.75728490  0.37487466  1
  Zn  Zn95  1  0.88084379  0.61823602  0.27166173  1
  Zn  Zn96  1  0.62892939  0.62175891  -0.00049493  1
  Zn  Zn97  1  0.63804299  0.89276941  0.25023774  1
  Zn  Zn98  1  0.49304783  0.00739994  0.51024497  1
  Zn  Zn99  1  0.37049494  0.62761922  0.24290154  1
  Zn  Zn100  1  0.24491808  0.87335504  0.63411173  1
  Zn  Zn101  1  0.00306039  0.12232536  0.12580302  1
  Zn  Zn102  1  0.12254487  0.77521455  0.86863997  1
  Zn  Zn103  1  0.81821608  0.56339072  0.68387756  1
  Zn  Zn104  1  0.74728215  0.89262123  0.12790329  1
  Zn  Zn105  1  0.24482493  0.63128501  0.87118971  1
  Zn  Zn106  1  0.26736506  0.86921233  0.12146371  1
  Zn  Zn107  1  0.18438516  0.18979783  0.18719734  1
  Zn  Zn108  1  0.18916754  0.18288287  0.69287969  1
  Zn  Zn109  1  0.17974038  0.68912926  0.18307910  1
  Zn  Zn110  1  0.18042888  0.69047800  0.68941481  1
  Zn  Zn111  1  0.68677262  0.05876142  0.19047674  1
  Zn  Zn112  1  0.68854337  0.18732158  0.68930765  1
  Zn  Zn113  1  0.68454496  0.68835474  0.18921957  1
  Zn  Zn114  1  0.69006860  0.69218805  0.68460664  1
  Zn  Zn115  1  0.30334250  0.31586413  0.30779423  1
  Zn  Zn116  1  0.31215798  0.30825384  0.81056988  1
  Zn  Zn117  1  0.32548043  0.82481710  0.28829081  1
  Zn  Zn118  1  0.30896178  0.82135329  0.82239063  1
  Zn  Zn119  1  0.80761742  0.30670276  0.30746648  1
  Zn  Zn120  1  0.80942767  0.30870704  0.81199807  1
  Zn  Zn121  1  0.81242387  0.81427002  0.31307281  1
  Zn  Zn122  1  0.82024685  0.81220571  0.81094090  1
  Zn  Zn123  1  0.17337209  0.44503325  0.43558979  1
  Zn  Zn124  1  0.18486019  0.43342607  0.93449878  1
  Zn  Zn125  1  0.18678757  0.93677623  0.43693404  1
  Zn  Zn126  1  0.20305470  0.94399150  0.94614728  1
  Zn  Zn127  1  0.69195579  0.43471595  0.44424982  1
  Zn  Zn128  1  0.68475081  0.43856657  0.93714108  1
  Zn  Zn129  1  0.68747037  0.94181830  0.44035910  1
  Zn  Zn130  1  0.69415504  0.93251838  0.93563138  1
  Zn  Zn131  1  0.31512085  0.06356584  0.06416170  1
  Zn  Zn132  1  0.31101445  0.06460746  0.57018463  1
  Zn  Zn133  1  0.31131266  0.56910541  0.05782715  1
  Zn  Zn134  1  0.30670237  0.56128445  0.56462707  1
  Zn  Zn135  1  0.81938153  0.06492259  0.05583286  1
  Zn  Zn136  1  0.80735245  0.06107343  0.56212459  1
  Zn  Zn137  1  0.81036304  0.56059614  0.05728385  1
  Zn  Zn138  1  0.85179256  0.57948191  0.50223225  1
  Zn  Zn139  1  0.43360950  0.44015382  0.18695913  1
  Zn  Zn140  1  0.43604800  0.42552786  0.68120174  1
  Zn  Zn141  1  0.43619894  0.93675047  0.19508982  1
  Zn  Zn142  1  0.43189241  0.93719490  0.69559573  1
  Zn  Zn143  1  0.93210264  0.43815793  0.18476615  1
  Zn  Zn144  1  0.94065652  0.42718254  0.68428177  1
  Zn  Zn145  1  0.92782658  0.93817379  0.18473634  1
  Zn  Zn146  1  0.94299223  0.93458828  0.68872544  1
  Zn  Zn147  1  0.05976325  0.06281812  0.31017648  1
  Zn  Zn148  1  0.07052706  -0.06526149  0.80973846  1
  Zn  Zn149  1  0.06569876  0.57261251  0.31355874  1
  Zn  Zn150  1  0.05533042  0.55992080  0.80670815  1
  Zn  Zn151  1  0.55378642  0.07029680  0.31961408  1
  Zn  Zn152  1  0.55624762  0.06800649  0.81133824  1
  Zn  Zn153  1  0.56376638  0.56309250  0.31242274  1
  Zn  Zn154  1  0.56313954  0.55757767  0.81024184  1
  Zn  Zn155  1  0.43701702  0.19252583  0.43905490  1
  Zn  Zn156  1  0.43314523  0.18192320  0.93671396  1
  Zn  Zn157  1  0.43851333  0.68830863  0.43470296  1
  Zn  Zn158  1  0.45976417  0.72359866  0.96516694  1
  Zn  Zn159  1  0.93734014  0.18912105  0.43759236  1
  Zn  Zn160  1  0.94048589  0.18113181  0.93957907  1
  Zn  Zn161  1  0.93737832  0.70296621  0.43385497  1
  Zn  Zn162  1  0.93777275  0.68787208  0.92509252  1
  Zn  Zn163  1  0.05968186  0.31031420  0.06147639  1
  Zn  Zn164  1  0.06420519  0.30577114  0.56483120  1
  Zn  Zn165  1  0.06512151  0.81265681  0.05654222  1
  Zn  Zn166  1  0.05602156  0.81182239  0.56654103  1
  Zn  Zn167  1  0.56201105  0.31016242  0.06352263  1
  Zn  Zn168  1  0.56057863  0.31797055  0.55087141  1
  Zn  Zn169  1  0.56289443  0.82862649  0.06928927  1
  Zn  Zn170  1  0.56269691  0.81309454  0.56629775  1
  O  O171  1  0.12042071  0.13322227  0.11191155  1
  O  O172  1  0.11783131  0.11947227  0.61911100  1
  O  O173  1  0.11161312  0.61778688  0.11328543  1
  O  O174  1  0.12802471  0.61957713  0.61284213  1
  O  O175  1  0.61022590  0.12318812  0.11800763  1
  O  O176  1  0.62855781  0.11888364  0.61890880  1
  O  O177  1  0.61465384  0.61581507  0.12282767  1
  O  O178  1  0.62126892  0.61635789  0.62201328  1
  O  O179  1  0.36574444  0.38863898  0.37837528  1
  O  O180  1  0.37725792  0.37808697  0.88391352  1
  O  O181  1  0.38196466  0.87924172  0.38614093  1
  O  O182  1  0.38235383  0.89838939  0.86458793  1
  O  O183  1  0.87457949  0.35293953  0.38597306  1
  O  O184  1  0.88184171  0.37469230  0.87731460  1
  O  O185  1  0.87968747  0.88507413  0.38269130  1
  O  O186  1  0.86823553  0.88639097  0.88758033  1
  O  O187  1  0.25285865  0.01120326  0.37223204  1
  O  O188  1  0.26096075  0.00472026  0.86435238  1
  O  O189  1  0.25132721  0.51298840  0.36936244  1
  O  O190  1  0.25294766  0.49662101  0.86131142  1
  O  O191  1  0.75531394  0.01499321  0.38108255  1
  O  O192  1  0.75640372  0.00602035  0.86569807  1
  O  O193  1  0.73746830  0.49593286  0.35903021  1
  O  O194  1  0.75792544  0.50420876  0.87616774  1
  O  O195  1  0.24100936  0.49764882  0.12614051  1
  O  O196  1  0.24088732  0.49435658  0.63455398  1
  O  O197  1  0.25906241  0.99434183  0.13908842  1
  O  O198  1  0.24185443  0.99715616  0.63160529  1
  O  O199  1  0.74185030  0.49360924  0.12813666  1
  O  O200  1  0.74285952  0.48979879  0.62655329  1
  O  O201  1  0.74790184  1.00632782  0.11491467  1
  O  O202  1  0.73969453  1.00094097  0.63904783  1
  O  O203  1  0.00581704  0.36961679  0.24572509  1
  O  O204  1  0.00200097  0.37082587  0.76438371  1
  O  O205  1  0.00286860  0.87265629  0.25231847  1
  O  O206  1  -0.00147599  0.86771858  0.75505353  1
  O  O207  1  0.49367559  0.36411429  0.25098785  1
  O  O208  1  0.49268457  0.38894402  0.77817911  1
  O  O209  1  0.50495059  0.86835912  0.26909047  1
  O  O210  1  0.50726049  0.86425268  0.75209504  1
  O  O211  1  0.49259953  0.13802330  0.24147374  1
  O  O212  1  0.49057271  0.12848108  0.74295758  1
  O  O213  1  0.49931541  0.62915399  0.24322719  1
  O  O214  1  0.49189939  0.62580248  0.74334121  1
  O  O215  1  0.99232593  0.13244790  0.24710478  1
  O  O216  1  0.98548511  0.12431932  0.74249676  1
  O  O217  1  0.99954723  0.63346600  0.24316118  1
  O  O218  1  1.00082911  0.63986663  0.75003417  1
  O  O219  1  0.37850787  0.25463177  0.01295040  1
  O  O220  1  0.36677082  0.26560067  0.49264355  1
  O  O221  1  0.35120917  0.72510197  -0.00261024  1
  O  O222  1  0.36918149  0.75474358  0.50475458  1
  O  O223  1  0.86655902  0.25782548  -0.00400651  1
  O  O224  1  0.86640606  0.24803027  0.51046682  1
  O  O225  1  0.87074079  0.75706512  -0.00466842  1
  O  O226  1  0.87287900  0.77019101  0.50254650  1
  O  O227  1  0.12982061  0.23728624  0.49230951  1
  O  O228  1  0.11891850  0.24034755  0.99293580  1
  O  O229  1  0.13291983  0.74457988  0.50204400  1
  O  O230  1  0.12951881  0.74031603  0.99407722  1
  O  O231  1  0.62968601  0.24524125  0.49616207  1
  O  O232  1  0.63014448  0.24290075  0.99437207  1
  O  O233  1  0.62547217  0.74149639  0.49823494  1
  O  O234  1  0.63612499  0.74507798  0.98276978  1
  O  O235  1  0.49220040  0.24626961  0.13247307  1
  O  O236  1  0.51079484  0.32313312  0.65307818  1
  O  O237  1  0.50422860  0.74051221  0.14077370  1
  O  O238  1  0.49583898  0.74251268  0.63690978  1
  O  O239  1  0.99613604  0.25109174  0.13771910  1
  O  O240  1  0.99121814  0.23627145  0.62525158  1
  O  O241  1  0.99873723  0.74267748  0.12972465  1
  O  O242  1  0.99338243  0.75642561  0.63957138  1
  O  O243  1  0.00981621  0.24233702  0.36345272  1
  O  O244  1  0.00191037  0.25813685  0.87843698  1
  O  O245  1  0.00227342  0.76675475  0.36480947  1
  O  O246  1  0.00544915  0.75005292  0.86227528  1
  O  O247  1  0.50791007  0.25232970  0.36749952  1
  O  O248  1  0.50989871  0.25795945  0.88625334  1
  O  O249  1  0.51272155  0.75886791  0.37875253  1
  O  O250  1  0.51221157  0.73574552  0.85960691  1
  O  O251  1  0.24487799  0.12946358  0.49385624  1
  O  O252  1  0.23584226  0.12419206  1.00740288  1
  O  O253  1  0.24664189  0.63634611  0.49531340  1
  O  O254  1  0.23459186  0.62612653  0.99483180  1
  O  O255  1  0.74080846  0.13570151  0.49508911  1
  O  O256  1  0.74258582  0.13347462  0.99234543  1
  O  O257  1  0.73433099  0.62236193  0.49590754  1
  O  O258  1  0.74939755  0.62855695  0.98481467  1
  O  O259  1  0.25313217  0.38228001  0.01423152  1
  O  O260  1  0.25030644  0.37264123  0.50397390  1
  O  O261  1  0.25862464  0.86060375  0.00523668  1
  O  O262  1  0.25679733  0.86291457  0.49803982  1
  O  O263  1  0.75481979  0.36930199  0.00309791  1
  O  O264  1  0.75624395  0.36048203  0.50752179  1
  O  O265  1  0.75851191  0.86239589  -0.00003967  1
  O  O266  1  0.76256547  0.87862428  0.50160378  1
  O  O267  1  0.12760628  0.50388433  0.22980040  1
  O  O268  1  0.13061742  0.49563955  0.74301351  1
  O  O269  1  0.13113736  0.99582232  0.25023024  1
  O  O270  1  0.13999088  1.00349500  0.74290380  1
  O  O271  1  0.62868203  0.50065934  0.23729842  1
  O  O272  1  0.61078637  0.47936378  0.73349112  1
  O  O273  1  0.62282928  1.00551331  0.26406605  1
  O  O274  1  0.63028307  0.99498091  0.74959150  1
  O  O275  1  0.36715123  0.01195256  0.26269736  1
  O  O276  1  0.36935294  0.01304514  0.75277713  1
  O  O277  1  0.36575203  0.50321366  0.25793146  1
  O  O278  1  0.36624033  0.50391767  0.74945962  1
  O  O279  1  0.87963969  0.01306627  0.26082569  1
  O  O280  1  0.86839628  0.00552162  0.75613547  1
  O  O281  1  0.86399054  0.50319636  0.24765877  1
  O  O282  1  0.87385888  0.49035434  0.75638939  1
  O  O283  1  0.14733337  0.34959818  0.37292656  1
  O  O284  1  0.11099449  0.36412204  0.87798202  1
  O  O285  1  0.11372829  0.87726497  0.37086334  1
  O  O286  1  0.12717894  0.88577523  0.89066404  1
  O  O287  1  0.62325982  0.35959982  0.38447521  1
  O  O288  1  0.61458592  0.36697133  0.87714199  1
  O  O289  1  0.61911993  0.86919020  0.38116726  1
  O  O290  1  0.62259527  0.86608039  0.86588417  1
  O  O291  1  0.38124673  0.13433700  0.13010479  1
  O  O292  1  0.38088882  0.12691468  0.63230152  1
  O  O293  1  0.39074157  0.61545659  0.12714477  1
  O  O294  1  0.37739767  0.62894687  0.63371912  1
  O  O295  1  0.87872372  0.12936074  0.13264570  1
  O  O296  1  0.87988124  0.12680870  0.62878992  1
  O  O297  1  0.88785107  0.62311461  0.11991818  1
  O  O298  1  0.86978974  0.61866770  0.60404959  1
  O  O299  1  0.25806262  0.26215449  0.13398626  1
  O  O300  1  0.23798539  0.25956089  0.61638977  1
  O  O301  1  0.24094739  0.74664585  0.10732579  1
  O  O302  1  0.25615245  0.75292514  0.61895358  1
  O  O303  1  0.75098589  0.25882546  0.10980166  1
  O  O304  1  0.75647119  0.25287880  0.61755099  1
  O  O305  1  0.75303574  0.73415416  0.10642542  1
  O  O306  1  0.75857237  0.75657496  0.62357573  1
  O  O307  1  0.24676228  0.23580073  0.37740127  1
  O  O308  1  0.23725546  0.26019762  0.88358038  1
  O  O309  1  0.25146051  0.74082224  0.38116011  1
  O  O310  1  0.24301683  0.74968909  0.88387265  1
  O  O311  1  0.73840013  0.24265062  0.37998692  1
  O  O312  1  0.73887188  0.24759754  0.88385138  1
  O  O313  1  0.73805743  0.74988062  0.38107694  1
  O  O314  1  0.74666317  0.74057819  0.87713634  1
  O  O315  1  0.00622094  0.11209719  0.00262953  1
  O  O316  1  0.00874235  0.12778828  0.50797548  1
  O  O317  1  0.00257343  0.61837699  0.00293101  1
  O  O318  1  0.01483281  0.63544253  0.49266852  1
  O  O319  1  0.50638442  0.12972527  0.01576045  1
  O  O320  1  0.51108934  0.12794521  0.49911071  1
  O  O321  1  0.50326247  0.62144623  0.00793803  1
  O  O322  1  0.50850652  0.62019720  0.50610441  1
  O  O323  1  0.48538673  0.38291219  0.49060356  1
  O  O324  1  0.49188544  0.38453217  0.99740127  1
  O  O325  1  0.49290677  0.87587049  0.49413640  1
  O  O326  1  0.48996403  0.83086471  0.99058329  1
  O  O327  1  0.98971870  0.35901314  0.49835609  1
  O  O328  1  0.98974342  0.37687875  0.99061970  1
  O  O329  1  0.98820958  0.87559281  0.49068412  1
  O  O330  1  0.99489882  0.88785983  1.00337544  1
  O  O331  1  0.48909839  0.50046563  0.37911823  1
  O  O332  1  0.49574189  0.49811056  0.88879085  1
  O  O333  1  0.49078348  0.99446917  0.38459887  1
  O  O334  1  0.49145196  1.00126071  0.87685417  1
  O  O335  1  1.07050215  0.46956844  0.36007341  1
  O  O336  1  0.99039061  0.48771923  0.87732556  1
  O  O337  1  0.99067681  0.99235165  0.37171593  1
  O  O338  1  0.99221761  1.00232692  0.88185432  1
  O  O339  1  -0.00303446  0.00062421  0.11044901  1
  O  O340  1  0.00957688  0.01287410  0.63122074  1
  O  O341  1  0.00452647  0.50394022  0.11563142  1
  O  O342  1  0.01259602  0.49413778  0.62860119  1
  O  O343  1  0.49002510  0.01442292  0.13200584  1
  O  O344  1  0.51302766  -0.00743098  0.62792752  1
  O  O345  1  0.50532105  0.50228068  0.11759065  1
  O  O346  1  0.50413224  0.50330965  0.61698510  1
  O  O347  1  0.23411472  0.38710573  0.24157352  1
  O  O348  1  0.24749846  0.38050994  0.74099627  1
  O  O349  1  0.23162258  0.88923142  0.26583050  1
  O  O350  1  0.26144274  0.89569378  0.74652102  1
  O  O351  1  0.75522556  0.37993116  0.23516978  1
  O  O352  1  0.74558364  0.36636114  0.73556556  1
  O  O353  1  0.75216659  0.87256290  0.24276716  1
  O  O354  1  0.74267559  0.88401805  0.75297034  1
  O  O355  1  0.25127517  0.11988275  0.25711717  1
  O  O356  1  0.26133094  0.10986437  0.74143821  1
  O  O357  1  0.24781671  0.62404244  0.25678164  1
  O  O358  1  0.25454769  0.61710961  0.74887474  1
  O  O359  1  0.75749167  0.12950165  0.26019378  1
  O  O360  1  0.75641172  0.11857059  0.75646986  1
  O  O361  1  0.75443397  0.61498933  0.25159597  1
  O  O362  1  0.74761220  0.62149240  0.75765892  1
  O  O363  1  0.36796951  0.12348874  0.37299671  1
  O  O364  1  0.38169441  0.11415087  0.86328943  1
  O  O365  1  0.36591444  0.61278707  0.38075334  1
  O  O366  1  0.37086446  0.61502023  0.85883483  1
  O  O367  1  0.86603224  0.12066721  0.37125783  1
  O  O368  1  0.87025812  0.11817016  0.86867813  1
  O  O369  1  0.86760619  0.62389958  0.39178321  1
  O  O370  1  0.86788842  0.60774677  0.87738278  1
  O  O371  1  0.12806606  0.38429166  0.12127777  1
  O  O372  1  0.13151912  0.38187928  0.62413202  1
  O  O373  1  0.13072000  0.87219271  0.13591619  1
  O  O374  1  0.12535725  0.89161183  0.61336946  1
  O  O375  1  0.63461665  0.38270034  0.11733468  1
  O  O376  1  0.63989535  0.38131638  0.61921599  1
  O  O377  1  0.63541328  0.86256951  0.13807900  1
  O  O378  1  0.62730706  0.88112197  0.63846790  1
  O  O379  1  0.11493903  0.25301433  0.25785731  1
  O  O380  1  0.12985785  0.24844741  0.76742361  1
  O  O381  1  0.11269544  0.75818684  0.25154396  1
  O  O382  1  0.11377693  0.75365249  0.75202795  1
  O  O383  1  0.61580551  0.24871533  0.26456290  1
  O  O384  1  0.62566137  0.25932114  0.75865123  1
  O  O385  1  0.61474494  0.74411800  0.26534061  1
  O  O386  1  0.62035114  0.75654062  0.75561335  1
  O  O387  1  0.37880081  0.24798109  0.24318192  1
  O  O388  1  0.37012272  0.23403500  0.75147129  1
  O  O389  1  0.39775838  0.73563373  0.27956092  1
  O  O390  1  0.38078582  0.74281147  0.74951712  1
  O  O391  1  0.88134739  0.23799949  0.24988090  1
  O  O392  1  0.86646318  0.23999557  0.73709237  1
  O  O393  1  0.88740365  0.74412286  0.25061821  1
  O  O394  1  0.88797463  0.75087534  0.74857961  1
  O  O395  1  0.37391085  0.49288288  0.49360350  1
  O  O396  1  0.38034279  0.49674124  0.99343302  1
  O  O397  1  0.37265200  0.99135186  0.49853064  1
  O  O398  1  0.37049110  1.00704693  0.98387589  1
  O  O399  1  0.87546697  0.47086254  0.49002980  1
  O  O400  1  0.87637002  0.48575988  0.99047066  1
  O  O401  1  0.87143690  0.99726660  0.48679877  1
  O  O402  1  0.88637166  0.99503590  0.99064267  1
  O  O403  1  0.11731646  0.01335971  -0.00162015  1
  O  O404  1  0.13235901  0.01267552  0.50642153  1
  O  O405  1  0.11743386  0.50392970  0.00357588  1
  O  O406  1  0.12986519  0.51899050  0.51039210  1
  O  O407  1  0.62630245  0.00991081  -0.01181204  1
  O  O408  1  0.62354025  0.01109073  0.51204404  1
  O  O409  1  0.61452777  0.50127101  0.00844541  1
  O  O410  1  0.61971256  0.50412030  0.50931428  1
  O  O411  1  0.36441471  0.37046545  0.12211304  1
  O  O412  1  0.35550514  0.38224523  0.61128037  1
  O  O413  1  0.36234174  0.85645009  0.18029020  1
  O  O414  1  0.37694653  0.86819704  0.61373448  1
  O  O415  1  0.86540353  0.37282558  0.11276325  1
  O  O416  1  0.87183076  0.36267085  0.61861652  1
  O  O417  1  0.87124741  0.87073755  0.11021128  1
  O  O418  1  0.87271737  0.89391223  0.60852492  1
  O  O419  1  0.13079748  0.12832283  0.38103366  1
  O  O420  1  0.12652493  0.14017039  0.88940767  1
  O  O421  1  0.13379913  0.63351240  0.38736185  1
  O  O422  1  0.12232274  0.61529440  0.88536206  1
  O  O423  1  0.62891864  0.13691982  0.38530785  1
  O  O424  1  0.62710411  0.13367710  0.88056936  1
  O  O425  1  0.62291825  0.63253743  0.38536411  1
  O  O426  1  0.63379060  0.62808457  0.87149988  1
