# generated using pymatgen
data_V85Zn86O256
_symmetry_space_group_name_H-M   'P 1'
_cell_length_a   16.97482682
_cell_length_b   16.97211288
_cell_length_c   16.95733807
_cell_angle_alpha   90.03603766
_cell_angle_beta   90.03958369
_cell_angle_gamma   89.96495673
_symmetry_Int_Tables_number   1
_chemical_formula_structural   V85Zn86O256
_chemical_formula_sum   'V85 Zn86 O256'
_cell_volume   4885.38361828
_cell_formula_units_Z   1
loop_
 _symmetry_equiv_pos_site_id
 _symmetry_equiv_pos_as_xyz
  1  'x, y, z'
loop_
 _atom_site_type_symbol
 _atom_site_label
 _atom_site_symmetry_multiplicity
 _atom_site_fract_x
 _atom_site_fract_y
 _atom_site_fract_z
 _atom_site_occupancy
  V  V0  1  0.37325027  0.12748112  0.24807586  1
  V  V1  1  0.25029881  0.00192207  0.74933043  1
  V  V2  1  0.37365596  0.74729514  0.12423703  1
  V  V3  1  0.49911796  0.62230332  0.62669655  1
  V  V4  1  0.11152874  0.88716676  0.23984904  1
  V  V5  1  0.00372604  0.37535384  0.37478318  1
  V  V6  1  0.62507893  0.50093237  0.13706874  1
  V  V7  1  0.24948050  0.87529839  0.61868870  1
  V  V8  1  0.25014827  0.75040147  -0.02029418  1
  V  V9  1  0.50135831  0.12657526  0.12284587  1
  V  V10  1  0.00363686  0.74344416  0.76543290  1
  V  V11  1  0.13068407  0.74920094  0.37199479  1
  V  V12  1  0.87933843  0.50293223  0.37752901  1
  V  V13  1  0.24802060  0.38831164  0.11119076  1
  V  V14  1  0.24814376  0.50568667  0.27472253  1
  V  V15  1  0.75392857  0.12845504  0.37355548  1
  V  V16  1  0.75046864  0.74876547  0.49958832  1
  V  V17  1  0.12041288  0.12478165  0.50199552  1
  V  V18  1  0.63101973  0.12879373  -0.01062081  1
  V  V19  1  0.74628655  0.73862987  -0.00563170  1
  V  V20  1  0.85860476  0.50106689  0.87516676  1
  V  V21  1  0.62850326  0.25598007  0.36722572  1
  V  V22  1  0.25015725  0.25432935  0.50015572  1
  V  V23  1  0.49855476  0.38078934  0.37042150  1
  V  V24  1  0.75063248  0.62489630  0.37340126  1
  V  V25  1  0.12475081  0.64641317  -0.00377003  1
  V  V26  1  0.87391646  -0.00192919  0.37509658  1
  V  V27  1  0.47169487  0.59135900  0.09929796  1
  V  V28  1  0.74503731  0.86830132  0.12167548  1
  V  V29  1  0.00096211  0.36805397  0.86862505  1
  V  V30  1  0.12845674  0.36542320  0.74756510  1
  V  V31  1  0.12182669  0.00191328  0.62234315  1
  V  V32  1  0.49675521  0.87476111  0.37243152  1
  V  V33  1  0.74214983  0.36976511  0.62672781  1
  V  V34  1  0.87913663  0.87444925  0.50234681  1
  V  V35  1  0.75774838  0.00446605  0.75727141  1
  V  V36  1  0.50078945  0.25580639  0.24732171  1
  V  V37  1  0.50134818  0.00357766  -0.00125518  1
  V  V38  1  0.74599307  0.37269553  0.13204167  1
  V  V39  1  0.12607910  0.38178456  0.24384724  1
  V  V40  1  0.87021227  0.88295200  -0.00991949  1
  V  V41  1  0.74948228  0.87526000  0.62438030  1
  V  V42  1  0.49707322  0.00210342  0.49666733  1
  V  V43  1  0.23886341  0.13760849  0.87849967  1
  V  V44  1  0.87555607  0.74676592  0.62893786  1
  V  V45  1  0.37063012  0.25524144  0.11360175  1
  V  V46  1  0.00351802  0.24496868  0.24572275  1
  V  V47  1  0.61124753  0.59959019  -0.01439456  1
  V  V48  1  0.62009896  0.37970177  0.76435887  1
  V  V49  1  0.87645509  0.74407958  0.12222005  1
  V  V50  1  0.75279192  0.49366636  0.25547144  1
  V  V51  1  0.24882699  0.87515484  0.12416154  1
  V  V52  1  0.10938422  0.11507136  0.01170112  1
  V  V53  1  0.62237792  0.87802110  0.74850555  1
  V  V54  1  0.37558839  0.38120169  0.49332085  1
  V  V55  1  0.74661147  -0.00273566  0.24930607  1
  V  V56  1  0.62431667  0.74916788  0.37203934  1
  V  V57  1  0.62755145  0.00095827  0.12282204  1
  V  V58  1  0.12697622  0.62904418  0.49976319  1
  V  V59  1  0.37412386  0.87572866  -0.00335155  1
  V  V60  1  0.36851464  0.62295902  0.26329120  1
  V  V61  1  0.62537135  0.61926165  0.49764056  1
  V  V62  1  0.62208608  0.87230075  0.24709082  1
  V  V63  1  0.87740570  0.12006800  0.24236243  1
  V  V64  1  0.00579574  0.49883120  0.50557064  1
  V  V65  1  0.49842182  0.87844740  0.87225843  1
  V  V66  1  0.24839899  0.00126780  0.24601447  1
  V  V67  1  0.85967293  0.61931838  0.75535758  1
  V  V68  1  0.49602409  0.74457822  0.24573068  1
  V  V69  1  0.87169697  0.37597031  0.00175725  1
  V  V70  1  0.38225942  0.25028821  0.62374443  1
  V  V71  1  0.00144561  0.87517164  0.38086430  1
  V  V72  1  0.00042336  0.62010269  0.63091367  1
  V  V73  1  0.00412433  0.88889674  0.87702243  1
  V  V74  1  0.37625258  0.75012645  0.62738937  1
  V  V75  1  0.62392193  0.13210463  0.49420225  1
  V  V76  1  0.87800895  0.24678682  0.12489152  1
  V  V77  1  0.74597114  0.24975902  -0.01013871  1
  V  V78  1  0.86825521  0.36908587  0.50634403  1
  V  V79  1  0.00919677  0.49867547  0.00594274  1
  V  V80  1  0.37240874  0.01031636  0.87501178  1
  V  V81  1  0.62644857  0.74902269  0.87478372  1
  V  V82  1  0.12430456  0.25186177  0.37218785  1
  V  V83  1  0.50595344  0.24694601  0.76330732  1
  V  V84  1  0.62189016  0.00115738  0.62242259  1
  Zn  Zn85  1  0.25195852  0.37551759  0.63358025  1
  Zn  Zn86  1  0.93616186  0.19018213  0.68860460  1
  Zn  Zn87  1  0.46034366  0.46666005  0.95023644  1
  Zn  Zn88  1  0.37350590  0.00190372  0.37308872  1
  Zn  Zn89  1  0.37176581  0.13317634  0.74822023  1
  Zn  Zn90  1  0.63088984  0.50406464  0.63697495  1
  Zn  Zn91  1  0.12808713  0.86917524  0.75399594  1
  Zn  Zn92  1  0.49911591  0.12625266  0.62354953  1
  Zn  Zn93  1  0.00055374  0.74457932  0.24914142  1
  Zn  Zn94  1  0.49645782  0.74810930  0.75071156  1
  Zn  Zn95  1  0.87662765  0.62492014  0.24635625  1
  Zn  Zn96  1  0.32200828  0.57413499  0.81810149  1
  Zn  Zn97  1  0.25393546  0.74098144  0.49738949  1
  Zn  Zn98  1  -0.03901983  0.04075698  0.54832010  1
  Zn  Zn99  1  0.03042217  0.06150479  0.13699732  1
  Zn  Zn100  1  0.49421034  0.50289984  0.49334947  1
  Zn  Zn101  1  0.24030086  0.25130039  -0.00268810  1
  Zn  Zn102  1  0.00651642  0.62042770  0.12819631  1
  Zn  Zn103  1  0.16483157  0.52985616  0.67595185  1
  Zn  Zn104  1  0.24948379  0.12500487  0.37250637  1
  Zn  Zn105  1  0.79107458  0.15480002  0.83555241  1
  Zn  Zn106  1  0.37332037  0.87536636  0.49769926  1
  Zn  Zn107  1  0.18796880  0.18954584  0.18136380  1
  Zn  Zn108  1  0.18316934  0.19123889  0.68806712  1
  Zn  Zn109  1  0.18502630  0.68628078  0.18208008  1
  Zn  Zn110  1  0.19134360  0.69397636  0.69471300  1
  Zn  Zn111  1  0.68906582  0.18641002  0.18566017  1
  Zn  Zn112  1  0.68599676  0.19243683  0.68072687  1
  Zn  Zn113  1  0.68319365  0.67921472  0.18232897  1
  Zn  Zn114  1  0.68290906  0.68982519  0.68680928  1
  Zn  Zn115  1  0.30998485  0.31558529  0.30855549  1
  Zn  Zn116  1  0.31966179  0.41473860  0.81723186  1
  Zn  Zn117  1  0.30908571  0.81360321  0.31102304  1
  Zn  Zn118  1  0.31679108  0.81857666  0.80502756  1
  Zn  Zn119  1  0.81949980  0.31057149  0.31695618  1
  Zn  Zn120  1  0.81203115  0.32176713  0.80567761  1
  Zn  Zn121  1  0.81299036  0.81000237  0.31050660  1
  Zn  Zn122  1  0.81210307  0.81232056  0.81228950  1
  Zn  Zn123  1  0.22849361  0.48464753  0.48623223  1
  Zn  Zn124  1  0.18114521  0.43953874  0.92677483  1
  Zn  Zn125  1  0.18696608  0.93983562  0.43469206  1
  Zn  Zn126  1  0.18431539  0.93881339  0.93679527  1
  Zn  Zn127  1  0.68729573  0.43528868  0.43718531  1
  Zn  Zn128  1  0.67186300  0.43715729  0.93934371  1
  Zn  Zn129  1  0.68557081  0.93791369  0.43705923  1
  Zn  Zn130  1  0.68900386  0.93697629  0.93628946  1
  Zn  Zn131  1  0.30886109  0.06375177  0.06196205  1
  Zn  Zn132  1  0.30947922  0.06730849  0.56018862  1
  Zn  Zn133  1  0.29636972  0.54011551  0.00487761  1
  Zn  Zn134  1  0.32114598  0.55265102  0.65140835  1
  Zn  Zn135  1  0.85715629  0.09469032  0.01622971  1
  Zn  Zn136  1  0.79762528  0.06650042  0.56531745  1
  Zn  Zn137  1  0.80388744  0.56122454  0.05954898  1
  Zn  Zn138  1  0.81145170  0.55577293  0.56723512  1
  Zn  Zn139  1  0.42572421  0.43530072  0.18873633  1
  Zn  Zn140  1  0.44717195  0.43165207  0.68260362  1
  Zn  Zn141  1  0.43548060  0.93811272  0.18571611  1
  Zn  Zn142  1  0.43484986  0.93987202  0.68504288  1
  Zn  Zn143  1  0.93629857  0.43649427  0.18759765  1
  Zn  Zn144  1  0.93534845  0.43395664  0.68943598  1
  Zn  Zn145  1  0.92647256  0.92459257  0.18976052  1
  Zn  Zn146  1  0.93699688  0.93370087  0.69657446  1
  Zn  Zn147  1  0.05828119  0.06375260  0.32157307  1
  Zn  Zn148  1  0.06923130  0.06302395  0.80799320  1
  Zn  Zn149  1  0.06376209  0.56450857  0.31145977  1
  Zn  Zn150  1  0.05536671  0.55649385  0.82322637  1
  Zn  Zn151  1  0.56092359  0.06482948  0.31025489  1
  Zn  Zn152  1  0.56371004  0.06689925  0.81120285  1
  Zn  Zn153  1  0.55892143  0.56482255  0.30731941  1
  Zn  Zn154  1  0.53036464  0.56287416  0.82070245  1
  Zn  Zn155  1  0.43710619  0.19173223  0.43310695  1
  Zn  Zn156  1  0.44045789  0.30185418  0.93837142  1
  Zn  Zn157  1  0.43678950  0.69050372  0.44190349  1
  Zn  Zn158  1  0.43547806  0.68553943  0.93046143  1
  Zn  Zn159  1  0.93595673  0.19740252  0.52184192  1
  Zn  Zn160  1  0.94712310  0.17800263  0.85474895  1
  Zn  Zn161  1  0.94156178  0.68784145  0.43934316  1
  Zn  Zn162  1  0.93382006  0.68123491  0.94142046  1
  Zn  Zn163  1  0.06201786  0.30518277  0.05440402  1
  Zn  Zn164  1  0.06460798  0.31462938  0.56905710  1
  Zn  Zn165  1  0.04514621  0.84725361  0.07574660  1
  Zn  Zn166  1  0.06237862  0.80944161  0.56836099  1
  Zn  Zn167  1  0.56801923  0.31552143  0.06765510  1
  Zn  Zn168  1  0.56367897  0.31316009  0.55742663  1
  Zn  Zn169  1  0.55809001  0.80912259  0.05835445  1
  Zn  Zn170  1  0.56130926  0.81091597  0.55924575  1
  O  O171  1  0.13143625  0.11558234  0.11804473  1
  O  O172  1  0.13074832  0.11575342  0.61476259  1
  O  O173  1  0.12040295  0.63109139  0.10518096  1
  O  O174  1  0.11160507  0.62607462  0.62164849  1
  O  O175  1  0.62048435  0.11412868  0.12466493  1
  O  O176  1  0.62475424  0.11926581  0.60909647  1
  O  O177  1  0.60997957  0.61228661  0.11813786  1
  O  O178  1  0.61881182  0.62596693  0.61366952  1
  O  O179  1  0.38757866  0.36229991  0.38022953  1
  O  O180  1  0.40188411  0.39266147  0.88537905  1
  O  O181  1  0.38664716  0.87575754  0.37426268  1
  O  O182  1  0.38011708  0.88657140  0.87725250  1
  O  O183  1  0.88078314  0.38898220  0.38064952  1
  O  O184  1  0.87763050  0.38451024  0.88283065  1
  O  O185  1  0.87930875  0.87588513  0.38357597  1
  O  O186  1  0.87861198  0.87493569  0.88431947  1
  O  O187  1  0.25403813  0.00057504  0.36043546  1
  O  O188  1  0.25620830  -0.00160988  0.86463981  1
  O  O189  1  0.24797054  0.50125300  0.37250387  1
  O  O190  1  0.26939972  0.50142761  0.89692378  1
  O  O191  1  0.75272441  0.00329573  0.36745862  1
  O  O192  1  0.74661347  -0.00593023  0.85667657  1
  O  O193  1  0.75758316  0.50393061  0.37189450  1
  O  O194  1  0.76036336  0.49270476  0.88042595  1
  O  O195  1  0.25344099  0.48732280  0.10994273  1
  O  O196  1  0.24202673  0.48778471  0.60156282  1
  O  O197  1  0.25701766  0.98978663  0.13646994  1
  O  O198  1  0.24497157  0.99556762  0.62988034  1
  O  O199  1  0.75161929  0.49369751  0.14143663  1
  O  O200  1  0.74505766  0.48464197  0.62320018  1
  O  O201  1  0.73470356  0.98829303  0.13140727  1
  O  O202  1  0.73822841  0.99219528  0.62969026  1
  O  O203  1  0.00805955  0.37201447  0.25312286  1
  O  O204  1  -0.00595247  0.36883196  0.76450312  1
  O  O205  1  0.00262656  0.86565973  0.26462740  1
  O  O206  1  -0.00351261  0.86221925  0.76513619  1
  O  O207  1  0.49177158  0.36262082  0.25386511  1
  O  O208  1  0.51331789  0.35894606  0.74198569  1
  O  O209  1  0.50307259  0.86888384  0.25518170  1
  O  O210  1  0.50674643  0.87658737  0.75320205  1
  O  O211  1  0.49186951  0.13268691  0.24362742  1
  O  O212  1  0.50083734  0.13516030  0.74379858  1
  O  O213  1  0.48771074  0.63023148  0.24326046  1
  O  O214  1  0.51417463  0.63092648  0.72855435  1
  O  O215  1  0.99541934  0.12058066  0.23977846  1
  O  O216  1  0.99831750  0.13353773  0.76509444  1
  O  O217  1  0.99569834  0.62708207  0.24435738  1
  O  O218  1  0.99223641  0.62968773  0.74824778  1
  O  O219  1  0.37102637  0.24344284  0.01246520  1
  O  O220  1  0.36732233  0.25235183  0.50260264  1
  O  O221  1  0.36931981  0.75376523  0.00315173  1
  O  O222  1  0.37130820  0.75492402  0.50993863  1
  O  O223  1  0.86317089  0.26596571  0.01180803  1
  O  O224  1  0.86760801  0.27398827  0.47571323  1
  O  O225  1  0.86294295  0.75285627  0.00269684  1
  O  O226  1  0.86875469  0.75525639  0.50608437  1
  O  O227  1  0.13151180  0.24747972  0.49166351  1
  O  O228  1  0.12602119  0.22621283  1.00664847  1
  O  O229  1  0.12400571  0.74437468  0.49408687  1
  O  O230  1  0.13372748  0.74979227  0.99600542  1
  O  O231  1  0.61986118  0.23745917  0.48576705  1
  O  O232  1  0.63574896  0.23923948  1.01278999  1
  O  O233  1  0.63120994  0.74169488  0.49224059  1
  O  O234  1  0.63295718  0.75718695  0.98943098  1
  O  O235  1  0.49282949  0.24536719  0.13259467  1
  O  O236  1  0.49267715  0.24503501  0.61659018  1
  O  O237  1  0.48400798  0.75861304  0.13056559  1
  O  O238  1  0.49450807  0.74213564  0.62233503  1
  O  O239  1  0.98491179  0.26153037  0.13103630  1
  O  O240  1  0.98331962  0.25304092  0.60809186  1
  O  O241  1  0.98654871  0.75383370  0.12406945  1
  O  O242  1  0.99169859  0.74103611  0.63544208  1
  O  O243  1  0.01423481  0.25612954  0.36446697  1
  O  O244  1  -0.00599285  0.27357034  0.89706754  1
  O  O245  1  0.00666264  0.76144303  0.37707092  1
  O  O246  1  -0.00866514  0.74943036  0.86638061  1
  O  O247  1  0.50866937  0.25611766  0.36491703  1
  O  O248  1  0.49925066  0.23856337  0.86093234  1
  O  O249  1  0.50475521  0.75730757  0.36814227  1
  O  O250  1  0.50552768  0.76386981  0.87150156  1
  O  O251  1  0.24238614  0.13816221  0.49406170  1
  O  O252  1  0.25239336  0.12555755  0.98574482  1
  O  O253  1  0.22774611  0.62152305  0.50234094  1
  O  O254  1  0.23557801  0.64037961  1.00122026  1
  O  O255  1  0.73819934  0.11858855  0.48116750  1
  O  O256  1  0.74112295  0.13942929  1.01256597  1
  O  O257  1  0.74487056  0.62922611  0.49423564  1
  O  O258  1  0.73193982  0.63471801  0.99948585  1
  O  O259  1  0.23603997  0.36954471  0.00947868  1
  O  O260  1  0.25801969  0.36260056  0.49361642  1
  O  O261  1  0.25491988  0.86922708  0.00493604  1
  O  O262  1  0.25153646  0.87813470  0.51003465  1
  O  O263  1  0.75178784  0.36829219  0.01096345  1
  O  O264  1  0.76167052  0.38222915  0.50613944  1
  O  O265  1  0.75650177  0.86568891  0.00117580  1
  O  O266  1  0.75741760  0.86969202  0.50355267  1
  O  O267  1  0.13738068  0.49467328  0.25330293  1
  O  O268  1  0.10521644  0.48083409  0.75569442  1
  O  O269  1  0.13158635  0.99098401  0.25645758  1
  O  O270  1  0.13813511  0.99584347  0.74236516  1
  O  O271  1  0.63780703  0.50491894  0.24529619  1
  O  O272  1  0.60707846  0.48274797  0.75331281  1
  O  O273  1  0.62528619  0.99254687  0.24268114  1
  O  O274  1  0.62572995  0.99030639  0.74338210  1
  O  O275  1  0.36881871  0.00932097  0.24917743  1
  O  O276  1  0.36485125  0.00422515  0.75366464  1
  O  O277  1  0.35648845  0.50838215  0.24985966  1
  O  O278  1  0.36705263  0.48885032  0.73627246  1
  O  O279  1  0.86529451  -0.00124904  0.25239865  1
  O  O280  1  0.85619736  -0.00100427  0.74172045  1
  O  O281  1  0.86995515  0.50252599  0.26079141  1
  O  O282  1  0.87759476  0.50501313  0.76630867  1
  O  O283  1  0.11905565  0.36724857  0.35910408  1
  O  O284  1  0.10776550  0.37567572  0.86767623  1
  O  O285  1  0.11579925  0.87285795  0.36806469  1
  O  O286  1  0.10875363  0.87611553  0.87418424  1
  O  O287  1  0.61987893  0.36163627  0.37792315  1
  O  O288  1  0.62606410  0.36763452  0.86212531  1
  O  O289  1  0.61505718  0.86948139  0.36897633  1
  O  O290  1  0.61768569  0.87317163  0.86619138  1
  O  O291  1  0.37952715  0.13129474  0.13227760  1
  O  O292  1  0.37454499  0.13669667  0.62525072  1
  O  O293  1  0.37837494  0.63607685  0.13739919  1
  O  O294  1  0.39224292  0.63359350  0.61477153  1
  O  O295  1  0.87180428  0.13628532  0.12632494  1
  O  O296  1  0.88906263  0.11983522  0.59808093  1
  O  O297  1  0.87051313  0.63578582  0.12024010  1
  O  O298  1  0.88186492  0.62706750  0.63315454  1
  O  O299  1  0.25818818  0.25959210  0.12418220  1
  O  O300  1  0.25714891  0.25380448  0.61566339  1
  O  O301  1  0.26225008  0.75654988  0.11982609  1
  O  O302  1  0.25700943  0.75868544  0.62185700  1
  O  O303  1  0.76025646  0.25908426  0.13038237  1
  O  O304  1  0.74760511  0.26800228  0.61921387  1
  O  O305  1  0.74892915  0.75119261  0.11486181  1
  O  O306  1  0.75479294  0.75637225  0.61952713  1
  O  O307  1  0.23809696  0.25090861  0.37629619  1
  O  O308  1  0.25007687  0.23474714  0.87518814  1
  O  O309  1  0.23484154  0.76008002  0.38025421  1
  O  O310  1  0.25989667  0.75337751  0.88000393  1
  O  O311  1  0.74120519  0.23904200  0.36187441  1
  O  O312  1  0.74772157  0.25573495  0.88836566  1
  O  O313  1  0.74449596  0.74442225  0.37899243  1
  O  O314  1  0.73933160  0.75753252  0.88238444  1
  O  O315  1  0.00939270  0.10871609  0.02422137  1
  O  O316  1  0.01684577  0.12102950  0.48453965  1
  O  O317  1  0.00499102  0.61459095  0.00399128  1
  O  O318  1  0.00192730  0.61963736  0.51272804  1
  O  O319  1  0.51411059  0.11635662  0.01034614  1
  O  O320  1  0.50681936  0.11643580  0.49245157  1
  O  O321  1  0.51504900  0.64694441  0.01167471  1
  O  O322  1  0.50950009  0.62512035  0.50402121  1
  O  O323  1  0.49373781  0.37585634  0.48751969  1
  O  O324  1  0.49873356  0.37244069  1.00711880  1
  O  O325  1  0.50075080  0.88374692  0.48928534  1
  O  O326  1  0.49286665  0.88336633  0.99284704  1
  O  O327  1  0.99171537  0.38398052  0.49469367  1
  O  O328  1  0.98964858  0.38438913  1.00099916  1
  O  O329  1  0.98747461  0.86956102  0.49822485  1
  O  O330  1  0.98342638  0.86754104  0.98330209  1
  O  O331  1  0.50630797  0.48448722  0.37046506  1
  O  O332  1  0.56510126  0.51788908  0.92168700  1
  O  O333  1  0.49929267  0.99181650  0.37831568  1
  O  O334  1  0.49186398  0.99821043  0.87802078  1
  O  O335  1  0.99352133  0.49675355  0.38094617  1
  O  O336  1  0.98596993  0.48911412  0.89256001  1
  O  O337  1  0.99037920  0.98449146  0.37311566  1
  O  O338  1  0.99925334  0.98613430  0.86886650  1
  O  O339  1  0.02275023  -0.05096811  0.13863439  1
  O  O340  1  0.01683216  -0.01300144  0.63113660  1
  O  O341  1  -0.01224668  0.50169155  0.10926682  1
  O  O342  1  -0.00852343  0.50833722  0.61825626  1
  O  O343  1  0.50929904  0.00239375  0.12033669  1
  O  O344  1  0.50387020  0.00292124  0.61375898  1
  O  O345  1  0.51130099  0.49830500  0.14271044  1
  O  O346  1  0.50577529  0.51222997  0.61516423  1
  O  O347  1  0.24455009  0.39181477  0.24428694  1
  O  O348  1  0.23372121  0.37391401  0.75353808  1
  O  O349  1  0.24298786  0.88304397  0.24203469  1
  O  O350  1  0.24908998  0.88359269  0.73746316  1
  O  O351  1  0.75874650  0.38562786  0.24868760  1
  O  O352  1  0.73188769  0.37189473  0.73822163  1
  O  O353  1  0.74050778  0.87648138  0.24434675  1
  O  O354  1  0.74190451  0.88179992  0.74260440  1
  O  O355  1  0.25683532  0.11797985  0.24730006  1
  O  O356  1  0.24715431  0.11951746  0.76062128  1
  O  O357  1  0.25128402  0.61150552  0.24752030  1
  O  O358  1  0.24833784  0.60512430  0.73240460  1
  O  O359  1  0.75409777  0.11578203  0.25509257  1
  O  O360  1  0.73552804  0.10940089  0.74617216  1
  O  O361  1  0.75219773  0.61554629  0.25739139  1
  O  O362  1  0.76104503  0.62908711  0.74416859  1
  O  O363  1  0.37322228  0.12684072  0.35925323  1
  O  O364  1  0.36258114  0.11236303  0.86984023  1
  O  O365  1  0.37644617  0.63476886  0.36237991  1
  O  O366  1  0.42327433  0.59708679  0.86477758  1
  O  O367  1  0.86484603  0.11372002  0.36265318  1
  O  O368  1  0.86823525  0.12240442  0.90954740  1
  O  O369  1  0.87097170  0.61587209  0.37756940  1
  O  O370  1  0.87332756  0.60982830  0.87129404  1
  O  O371  1  0.13658095  0.36836590  0.13651151  1
  O  O372  1  0.12526561  0.37691283  0.64078670  1
  O  O373  1  0.14333222  0.85898843  0.13365061  1
  O  O374  1  0.13421302  0.88032987  0.62676546  1
  O  O375  1  0.64042655  0.38073151  0.13296190  1
  O  O376  1  0.63318631  0.37936028  0.62087930  1
  O  O377  1  0.62570841  0.87913859  0.12724806  1
  O  O378  1  0.62749153  0.87911849  0.62971689  1
  O  O379  1  0.12193867  0.25559900  0.25287446  1
  O  O380  1  0.11957334  0.26490068  0.74886874  1
  O  O381  1  0.12384080  0.75990902  0.25687007  1
  O  O382  1  0.10808767  0.75142517  0.74761293  1
  O  O383  1  0.61267582  0.24346649  0.25508879  1
  O  O384  1  0.61170779  0.25593957  0.74295364  1
  O  O385  1  0.61788353  0.75209784  0.25160992  1
  O  O386  1  0.62450685  0.76441796  0.75504385  1
  O  O387  1  0.37941297  0.24356703  0.24144387  1
  O  O388  1  0.39448360  0.25089838  0.73583102  1
  O  O389  1  0.37425159  0.74544755  0.24240124  1
  O  O390  1  0.37838191  0.75272870  0.73360185  1
  O  O391  1  0.88393927  0.24145761  0.24536170  1
  O  O392  1  0.86288960  0.22820316  0.77228641  1
  O  O393  1  0.87350178  0.74697970  0.23745299  1
  O  O394  1  0.88115766  0.74125276  0.74757951  1
  O  O395  1  0.37315770  0.48188296  0.49470182  1
  O  O396  1  0.40802153  0.53543034  1.03062142  1
  O  O397  1  0.38576972  1.00158314  0.49546650  1
  O  O398  1  0.37968505  0.99630254  0.99243898  1
  O  O399  1  0.88452167  0.49499436  0.49369129  1
  O  O400  1  0.87147987  0.49143267  0.99404208  1
  O  O401  1  0.87033307  0.98806110  0.49427094  1
  O  O402  1  0.86873547  0.97832507  1.01337458  1
  O  O403  1  0.13457824  0.01533743  0.00106454  1
  O  O404  1  0.13238882  0.01072182  0.50853440  1
  O  O405  1  0.10889663  0.49527184  0.00256570  1
  O  O406  1  0.10902195  0.50962300  0.49253751  1
  O  O407  1  0.62363187  0.00423040  0.00716582  1
  O  O408  1  0.61408685  0.00699382  0.49990421  1
  O  O409  1  0.65499438  0.50519184  0.03022292  1
  O  O410  1  0.62421752  0.51424940  0.49373944  1
  O  O411  1  0.35669935  0.36808947  0.12754933  1
  O  O412  1  0.37667552  0.36283755  0.61094512  1
  O  O413  1  0.36612874  0.86997721  0.11834456  1
  O  O414  1  0.36833747  0.86954157  0.62085354  1
  O  O415  1  0.86390579  0.37257554  0.12036909  1
  O  O416  1  0.86373672  0.37915994  0.61341396  1
  O  O417  1  0.86228935  0.85987467  0.11506232  1
  O  O418  1  0.87110081  0.86886619  0.61921731  1
  O  O419  1  0.12927272  0.13411558  0.37874639  1
  O  O420  1  0.13579102  0.11994692  0.88676175  1
  O  O421  1  0.11204092  0.64013211  0.38532877  1
  O  O422  1  0.11576025  0.61874976  0.89825661  1
  O  O423  1  0.63140399  0.13206609  0.37490237  1
  O  O424  1  0.62858422  0.11885081  0.88991815  1
  O  O425  1  0.62854473  0.63153840  0.37825972  1
  O  O426  1  0.61815454  0.64586688  0.87664038  1
