# generated using pymatgen
data_V85Zn86O256
_symmetry_space_group_name_H-M   'P 1'
_cell_length_a   16.95017709
_cell_length_b   16.95773540
_cell_length_c   16.96261626
_cell_angle_alpha   89.94231380
_cell_angle_beta   89.99856401
_cell_angle_gamma   89.95498590
_symmetry_Int_Tables_number   1
_chemical_formula_structural   V85Zn86O256
_chemical_formula_sum   'V85 Zn86 O256'
_cell_volume   4875.67307639
_cell_formula_units_Z   1
loop_
 _symmetry_equiv_pos_site_id
 _symmetry_equiv_pos_as_xyz
  1  'x, y, z'
loop_
 _atom_site_type_symbol
 _atom_site_label
 _atom_site_symmetry_multiplicity
 _atom_site_fract_x
 _atom_site_fract_y
 _atom_site_fract_z
 _atom_site_occupancy
  V  V0  1  0.42344114  0.19587407  0.21301046  1
  V  V1  1  0.75394067  0.87570057  0.62072122  1
  V  V2  1  0.62329993  0.87921329  0.74842118  1
  V  V3  1  0.64093375  0.49053268  0.13437892  1
  V  V4  1  0.25130594  0.50029299  0.25272409  1
  V  V5  1  -0.00492341  0.74564881  0.74484813  1
  V  V6  1  0.74475395  0.61633513  0.37235651  1
  V  V7  1  -0.00010979  -0.00295037  0.00630542  1
  V  V8  1  -0.01374155  0.87436266  0.87915917  1
  V  V9  1  0.74664985  0.12461996  0.37523688  1
  V  V10  1  0.87450800  0.25443936  0.12887573  1
  V  V11  1  0.12872545  0.37456398  0.25491296  1
  V  V12  1  0.62070422  0.34607272  0.27369210  1
  V  V13  1  0.87340982  0.74115033  0.62158502  1
  V  V14  1  0.50140067  0.00361772  0.49830749  1
  V  V15  1  0.24682847  0.74295404  0.50128138  1
  V  V16  1  0.12362595  0.87502564  0.75248856  1
  V  V17  1  0.74460032  0.25774657  0.01116509  1
  V  V18  1  0.12188949  0.51226641  0.62435950  1
  V  V19  1  0.25047521  0.87260791  0.62635900  1
  V  V20  1  0.25451533  0.37257393  0.12977679  1
  V  V21  1  0.37501920  0.00315798  0.87476604  1
  V  V22  1  0.00282682  0.51846198  0.50029475  1
  V  V23  1  0.37534501  0.36779020  0.00635367  1
  V  V24  1  0.25013994  0.50073506  0.74680962  1
  V  V25  1  0.00119919  0.37593145  0.38370373  1
  V  V26  1  0.23565668  0.25688760  -0.00689933  1
  V  V27  1  -0.00051002  0.74748098  0.24710476  1
  V  V28  1  0.24998912  0.75150139  0.00171919  1
  V  V29  1  0.62349547  0.87562101  0.24810647  1
  V  V30  1  0.50122762  0.87423625  0.87351392  1
  V  V31  1  0.74356373  0.74840070  0.49598005  1
  V  V32  1  0.25134644  0.00010858  0.75155856  1
  V  V33  1  0.11936852  0.62625520  0.00650462  1
  V  V34  1  0.87517455  0.61719821  0.24591242  1
  V  V35  1  0.38466311  0.49544133  0.37788916  1
  V  V36  1  0.75501281  0.87685503  0.11731214  1
  V  V37  1  0.88004105  -0.00774051  0.37305650  1
  V  V38  1  0.62287167  0.74641294  0.87695518  1
  V  V39  1  0.74689096  0.12440004  0.87513526  1
  V  V40  1  0.87717586  0.12475500  0.25014228  1
  V  V41  1  0.67014534  0.30230041  0.82421567  1
  V  V42  1  0.37938977  0.63142315  0.74849870  1
  V  V43  1  0.25237341  0.62719268  0.87769893  1
  V  V44  1  0.00587582  0.25042928  0.25337608  1
  V  V45  1  0.11631272  0.74967548  0.38090169  1
  V  V46  1  0.51390432  0.51073978  0.51403104  1
  V  V47  1  0.75201389  0.00477736  0.74886238  1
  V  V48  1  0.00331054  0.12461444  0.61963380  1
  V  V49  1  0.37591643  0.87183795  0.50049382  1
  V  V50  1  0.12833012  0.36896048  0.75448025  1
  V  V51  1  0.12846424  0.24711029  0.38831964  1
  V  V52  1  0.00688215  0.24276843  0.76090753  1
  V  V53  1  0.37356128  0.75455613  0.12534254  1
  V  V54  1  0.12574983  0.00194388  0.62045366  1
  V  V55  1  0.24574949  0.00236342  0.24748729  1
  V  V56  1  0.50052483  0.62458363  0.12588385  1
  V  V57  1  0.62015789  0.13540181  0.00278967  1
  V  V58  1  0.62621093  0.00554671  0.12436775  1
  V  V59  1  0.87867452  0.75244592  0.12114728  1
  V  V60  1  0.76005638  0.61983208  0.87136242  1
  V  V61  1  0.37785750  0.50092907  0.87758426  1
  V  V62  1  0.37992745  0.74679800  0.62671043  1
  V  V63  1  0.24442306  0.88000605  0.12487494  1
  V  V64  1  0.11837574  0.50321446  0.12778091  1
  V  V65  1  0.87611748  0.24988725  0.61797354  1
  V  V66  1  0.38349638  0.13791356  0.74531814  1
  V  V67  1  0.00364049  -0.00645169  0.49575567  1
  V  V68  1  0.37145998  0.00029484  0.37172179  1
  V  V69  1  0.74650281  0.25657364  0.49256205  1
  V  V70  1  0.24321760  0.13091246  0.87309303  1
  V  V71  1  0.49994811  0.87337644  0.37201884  1
  V  V72  1  0.55836064  0.69411510  0.69538245  1
  V  V73  1  0.11848102  0.87658682  0.25229788  1
  V  V74  1  0.49738041  0.36240876  0.87638625  1
  V  V75  1  0.62839172  0.62742506  0.00332299  1
  V  V76  1  0.01659121  0.12377417  0.12742255  1
  V  V77  1  0.24610816  0.62336241  0.37780818  1
  V  V78  1  0.12462128  0.75290568  0.87602428  1
  V  V79  1  0.50012637  0.75225730  0.24917677  1
  V  V80  1  0.38153298  0.37048129  0.50664421  1
  V  V81  1  0.87704894  0.38007836  0.00332733  1
  V  V82  1  0.49927721  0.49856488  0.00402174  1
  V  V83  1  0.50064579  0.00599515  0.00165986  1
  V  V84  1  0.24324703  0.11918819  0.38722032  1
  Zn  Zn85  1  0.75261247  -0.00113776  0.24869309  1
  Zn  Zn86  1  -0.00228800  0.50214641  0.00087115  1
  Zn  Zn87  1  0.37385596  0.87929030  0.00042146  1
  Zn  Zn88  1  0.00655599  0.37649166  0.88050448  1
  Zn  Zn89  1  0.12435712  0.12587317  -0.00213557  1
  Zn  Zn90  1  0.49495036  0.13556505  0.61302526  1
  Zn  Zn91  1  0.62794964  0.00979381  0.62138782  1
  Zn  Zn92  1  0.87162053  -0.00166316  0.88237165  1
  Zn  Zn93  1  0.87407137  0.37780397  0.49927127  1
  Zn  Zn94  1  0.87437273  0.49667691  0.37228604  1
  Zn  Zn95  1  0.87772446  0.87302368  0.49291283  1
  Zn  Zn96  1  0.25383305  0.36637049  0.62616621  1
  Zn  Zn97  1  0.62235286  0.12739559  0.49487193  1
  Zn  Zn98  1  0.25967241  0.24500539  0.50683780  1
  Zn  Zn99  1  0.87453916  0.12416522  0.75060966  1
  Zn  Zn100  1  0.62404195  0.74666471  0.37515920  1
  Zn  Zn101  1  0.75855435  0.75536053  -0.00233321  1
  Zn  Zn102  1  0.37516655  0.62576480  0.25230061  1
  Zn  Zn103  1  0.51839629  0.29306026  0.70206162  1
  Zn  Zn104  1  0.87950006  0.49909554  0.85633199  1
  Zn  Zn105  1  -0.06428293  0.58044439  0.68762849  1
  Zn  Zn106  1  0.66846574  0.42510062  0.66283188  1
  Zn  Zn107  1  0.21088434  0.19667833  0.19745654  1
  Zn  Zn108  1  0.19095835  0.18629810  0.68472036  1
  Zn  Zn109  1  0.18746678  0.68764767  0.19121637  1
  Zn  Zn110  1  0.18868663  0.68811078  0.69010796  1
  Zn  Zn111  1  0.68768273  0.18918800  0.19120089  1
  Zn  Zn112  1  0.66405447  0.22002006  0.65715067  1
  Zn  Zn113  1  0.69141743  0.68835899  0.18797944  1
  Zn  Zn114  1  0.70963542  0.57348421  0.69572986  1
  Zn  Zn115  1  0.33067183  0.30080596  0.31859686  1
  Zn  Zn116  1  0.31576003  0.31400777  0.81281165  1
  Zn  Zn117  1  0.31019487  0.81414066  0.31160079  1
  Zn  Zn118  1  0.31478783  0.81377448  0.81388692  1
  Zn  Zn119  1  0.80827193  0.31677311  0.31018273  1
  Zn  Zn120  1  0.83600703  0.31212962  0.81185515  1
  Zn  Zn121  1  0.81006250  0.81112947  0.30742583  1
  Zn  Zn122  1  0.80748950  0.80462055  0.80655964  1
  Zn  Zn123  1  0.19001058  0.43655742  0.44412395  1
  Zn  Zn124  1  0.18759630  0.44149693  0.93624473  1
  Zn  Zn125  1  0.18551909  0.93007799  0.43848352  1
  Zn  Zn126  1  0.18192089  0.94138998  0.94052578  1
  Zn  Zn127  1  0.68181272  0.43422951  0.43026738  1
  Zn  Zn128  1  0.69058455  0.44454356  0.94579605  1
  Zn  Zn129  1  0.68916643  0.93927995  0.43406317  1
  Zn  Zn130  1  0.68623133  0.94014111  0.93783077  1
  Zn  Zn131  1  0.31061249  0.07205229  0.06483974  1
  Zn  Zn132  1  0.31558850  0.05965086  0.56412218  1
  Zn  Zn133  1  0.31090615  0.56171556  0.06531637  1
  Zn  Zn134  1  0.31696596  0.56151257  0.56340655  1
  Zn  Zn135  1  0.81614505  0.06710276  0.06281501  1
  Zn  Zn136  1  0.81610460  0.06479040  0.56024467  1
  Zn  Zn137  1  0.81337136  0.56859900  0.06259306  1
  Zn  Zn138  1  0.80530428  0.55373826  0.54896831  1
  Zn  Zn139  1  0.44214403  0.43590022  0.19369130  1
  Zn  Zn140  1  0.43980983  0.44654164  0.68639658  1
  Zn  Zn141  1  0.43229752  1.02532515  0.18598368  1
  Zn  Zn142  1  0.43895877  0.94154309  0.68635228  1
  Zn  Zn143  1  0.94104533  0.43450299  0.18925780  1
  Zn  Zn144  1  0.94068294  0.42292357  0.68681200  1
  Zn  Zn145  1  0.94063078  0.93776697  0.18630888  1
  Zn  Zn146  1  0.93607073  0.93560534  0.68885489  1
  Zn  Zn147  1  0.06517657  0.06260735  0.31409797  1
  Zn  Zn148  1  0.06052222  0.05820908  0.81266365  1
  Zn  Zn149  1  0.06175288  0.56496836  0.31437377  1
  Zn  Zn150  1  0.06523592  0.56025866  0.82002232  1
  Zn  Zn151  1  0.56220248  0.06449870  0.31166620  1
  Zn  Zn152  1  0.56594866  0.06791134  0.81392066  1
  Zn  Zn153  1  0.56411095  0.56096022  0.30872912  1
  Zn  Zn154  1  0.56843811  0.54600654  0.81446413  1
  Zn  Zn155  1  0.43848589  0.18858037  0.41500532  1
  Zn  Zn156  1  0.42938856  0.18704647  0.94416233  1
  Zn  Zn157  1  0.43724522  0.68321116  0.43760881  1
  Zn  Zn158  1  0.43947376  0.68961362  0.93925283  1
  Zn  Zn159  1  0.93980443  0.18194858  0.43736602  1
  Zn  Zn160  1  0.93300326  0.18496180  0.94351035  1
  Zn  Zn161  1  0.93021963  0.68917462  0.43276877  1
  Zn  Zn162  1  0.94095539  0.68927155  0.93838065  1
  Zn  Zn163  1  0.06361389  0.31361004  0.06695535  1
  Zn  Zn164  1  0.06835992  0.31622918  0.57032450  1
  Zn  Zn165  1  0.06135788  0.81479021  0.06442466  1
  Zn  Zn166  1  0.06141121  0.81269923  0.56342772  1
  Zn  Zn167  1  0.55074595  0.31121201  0.08716419  1
  Zn  Zn168  1  0.55704411  0.31219304  0.53825753  1
  Zn  Zn169  1  0.56225131  0.81680733  0.06187782  1
  Zn  Zn170  1  0.56833510  0.82012052  0.55841373  1
  O  O171  1  0.11764808  0.13482833  0.12908878  1
  O  O172  1  0.11995895  0.10816690  0.63207721  1
  O  O173  1  0.13453822  0.61647439  0.11790242  1
  O  O174  1  0.12979406  0.61198922  0.63028586  1
  O  O175  1  0.63189310  0.11190144  0.11856330  1
  O  O176  1  0.61493777  0.12525911  0.61498512  1
  O  O177  1  0.61865997  0.62362749  0.11955777  1
  O  O178  1  0.62432795  0.64589489  0.64259005  1
  O  O179  1  0.36721414  0.39246268  0.38185472  1
  O  O180  1  0.38000417  0.38229030  0.88589317  1
  O  O181  1  0.37773493  0.87889827  0.38198509  1
  O  O182  1  0.38427295  0.88305604  0.87700571  1
  O  O183  1  0.88775142  0.37731830  0.37192137  1
  O  O184  1  0.88102653  0.37899845  0.88835231  1
  O  O185  1  0.87180648  0.88875488  0.36901363  1
  O  O186  1  0.88394020  0.87052224  0.87188978  1
  O  O187  1  0.25203235  -0.00035726  0.37207911  1
  O  O188  1  0.25877526  0.00529934  0.87359487  1
  O  O189  1  0.25352525  0.50821545  0.37282814  1
  O  O190  1  0.25740915  0.50688753  0.86519989  1
  O  O191  1  0.76176174  0.00711467  0.37101234  1
  O  O192  1  0.75179946  0.00664985  0.87027949  1
  O  O193  1  0.75279864  0.51294015  0.37861619  1
  O  O194  1  0.75507926  0.51581963  0.88078475  1
  O  O195  1  0.24271846  0.49214884  0.13193960  1
  O  O196  1  0.24687356  0.50171859  0.63767942  1
  O  O197  1  0.25362642  0.99059633  0.13295201  1
  O  O198  1  0.24390840  0.99227410  0.62950345  1
  O  O199  1  0.73855659  0.50580168  0.12159532  1
  O  O200  1  0.74366616  0.49840908  0.62056073  1
  O  O201  1  0.74520687  0.99517675  0.12520436  1
  O  O202  1  0.75067594  0.99582852  0.63191578  1
  O  O203  1  0.00938280  0.37044080  0.26199847  1
  O  O204  1  0.01114028  0.35967486  0.75400703  1
  O  O205  1  0.01160450  0.86702213  0.24708061  1
  O  O206  1  0.00494832  0.86776834  0.75836032  1
  O  O207  1  0.52818463  0.37970968  0.23520278  1
  O  O208  1  0.48971761  0.37967429  0.76678899  1
  O  O209  1  0.51254841  0.87018562  0.25370466  1
  O  O210  1  0.51274700  0.88719428  0.76034833  1
  O  O211  1  0.48417407  0.11058167  0.24627334  1
  O  O212  1  0.48514111  0.11872549  0.75188296  1
  O  O213  1  0.49777417  0.63334687  0.24066000  1
  O  O214  1  0.49885962  0.62830830  0.75297549  1
  O  O215  1  0.99456366  0.12945893  0.24592376  1
  O  O216  1  1.00048442  0.12708401  0.74055320  1
  O  O217  1  0.98707949  0.63412157  0.25464339  1
  O  O218  1  1.00793063  0.64142580  0.75472973  1
  O  O219  1  0.36164270  0.26368921  0.00071493  1
  O  O220  1  0.37960502  0.26908669  0.48336582  1
  O  O221  1  0.36767827  0.75294248  0.00649912  1
  O  O222  1  0.36906930  0.75346514  0.50608081  1
  O  O223  1  0.86722169  0.25822171  0.00988983  1
  O  O224  1  0.87254007  0.24778354  0.50334161  1
  O  O225  1  0.87925458  0.74691110  0.01681556  1
  O  O226  1  0.86811264  0.75604885  0.50336796  1
  O  O227  1  0.12735450  0.25645120  0.48992724  1
  O  O228  1  0.13213588  0.25125680  0.99431109  1
  O  O229  1  0.13332041  0.75612910  0.49227735  1
  O  O230  1  0.13129487  0.74471409  0.99812657  1
  O  O231  1  0.64337239  0.24618635  0.48970581  1
  O  O232  1  0.62781834  0.24149053  1.01970971  1
  O  O233  1  0.63947304  0.75556323  0.49583224  1
  O  O234  1  0.62372594  0.74074322  0.99547146  1
  O  O235  1  0.47565499  0.24762615  0.14469020  1
  O  O236  1  0.48904653  0.24768493  0.60650193  1
  O  O237  1  0.49237726  0.74519959  0.12647016  1
  O  O238  1  0.50184888  0.75241077  0.62907263  1
  O  O239  1  0.99612370  0.24382854  0.13459832  1
  O  O240  1  1.00004770  0.23866894  0.62875896  1
  O  O241  1  0.99483400  0.75413613  0.13803578  1
  O  O242  1  0.98920844  0.75686405  0.63309262  1
  O  O243  1  0.00933455  0.25388082  0.37198846  1
  O  O244  1  -0.00477022  0.24364840  0.86292296  1
  O  O245  1  0.00994341  0.74614719  0.36723860  1
  O  O246  1  0.00561050  0.75738475  0.86952175  1
  O  O247  1  0.43691967  0.24153464  0.31391704  1
  O  O248  1  0.49412460  0.26311649  0.88608736  1
  O  O249  1  0.50032588  0.75477102  0.36811467  1
  O  O250  1  0.51196177  0.76053477  0.88099256  1
  O  O251  1  0.25217818  0.12030549  0.49083665  1
  O  O252  1  0.24801722  0.13767262  0.99248028  1
  O  O253  1  0.25393742  0.63628747  0.49543268  1
  O  O254  1  0.24452476  0.63151470  0.99567373  1
  O  O255  1  0.75216348  0.12917536  0.48840013  1
  O  O256  1  0.74447040  0.13828598  0.99596010  1
  O  O257  1  0.75674608  0.63498700  0.48010259  1
  O  O258  1  0.74221285  0.63249488  0.99399885  1
  O  O259  1  0.25458320  0.37298379  0.00403536  1
  O  O260  1  0.26640457  0.37660869  0.50407476  1
  O  O261  1  0.24830711  0.87169780  0.00804920  1
  O  O262  1  0.25603730  0.86291958  0.50646360  1
  O  O263  1  0.75643612  0.36223752  -0.00423049  1
  O  O264  1  0.75541452  0.35992201  0.48677481  1
  O  O265  1  0.74442588  0.87447686  0.01279401  1
  O  O266  1  0.75269658  0.87181809  0.50582083  1
  O  O267  1  0.13135494  0.49688164  0.24584092  1
  O  O268  1  0.13403657  0.49687903  0.74673130  1
  O  O269  1  0.13012051  0.98557607  0.25682228  1
  O  O270  1  0.13150919  0.99163819  0.74470257  1
  O  O271  1  0.62697886  0.50325514  0.23426873  1
  O  O272  1  0.63716676  0.49930715  0.74519008  1
  O  O273  1  0.62630744  0.99382491  0.23992033  1
  O  O274  1  0.63579697  0.99516014  0.74962236  1
  O  O275  1  0.35825896  -0.01779388  0.26197611  1
  O  O276  1  0.37039798  0.00074931  0.76250105  1
  O  O277  1  0.37008745  0.50099294  0.26136337  1
  O  O278  1  0.37011106  0.51335617  0.75496019  1
  O  O279  1  0.87770422  0.00902929  0.25457103  1
  O  O280  1  0.86269341  0.00014850  0.75405090  1
  O  O281  1  0.88165475  0.51395099  0.24826684  1
  O  O282  1  0.88216176  0.49940034  0.74292998  1
  O  O283  1  0.12277157  0.36902385  0.37174925  1
  O  O284  1  0.12635306  0.38137423  0.86026688  1
  O  O285  1  0.13129457  0.85987418  0.36467836  1
  O  O286  1  0.11826209  0.87008220  0.86960871  1
  O  O287  1  0.61382839  0.36319313  0.37340246  1
  O  O288  1  0.61874901  0.37198151  0.88284811  1
  O  O289  1  0.62117568  0.87421713  0.36359022  1
  O  O290  1  0.62111841  0.86923914  0.86858816  1
  O  O291  1  0.37665892  0.11779749  0.14320969  1
  O  O292  1  0.37603208  0.11610323  0.64290090  1
  O  O293  1  0.38211045  0.63589207  0.12523827  1
  O  O294  1  0.37277572  0.63376145  0.63582965  1
  O  O295  1  0.88390929  0.13518586  0.13388928  1
  O  O296  1  0.88656926  0.13035265  0.62721858  1
  O  O297  1  0.87006569  0.63510444  0.13864188  1
  O  O298  1  0.86881060  0.63806480  0.61454036  1
  O  O299  1  0.23453422  0.26993182  0.10941361  1
  O  O300  1  0.24809264  0.25242224  0.61876963  1
  O  O301  1  0.25618260  0.75433112  0.12182890  1
  O  O302  1  0.25519992  0.75413805  0.61912064  1
  O  O303  1  0.76147531  0.24352116  0.12016701  1
  O  O304  1  0.76371615  0.23985482  0.60219522  1
  O  O305  1  0.75910646  0.75928003  0.12341204  1
  O  O306  1  0.75965807  0.76159886  0.61260045  1
  O  O307  1  0.24500093  0.23620707  0.38084757  1
  O  O308  1  0.25511046  0.24281971  0.88102781  1
  O  O309  1  0.24451101  0.74299762  0.38270617  1
  O  O310  1  0.24496362  0.74836889  0.88212468  1
  O  O311  1  0.76654154  0.23607094  0.38534764  1
  O  O312  1  0.74104788  0.24646540  0.88195426  1
  O  O313  1  0.75013877  0.74454643  0.38029291  1
  O  O314  1  0.73749087  0.74773814  0.88074672  1
  O  O315  1  0.00356961  0.12335655  0.01165634  1
  O  O316  1  0.00002048  0.11274276  0.51320328  1
  O  O317  1  0.01597675  0.62613486  0.00007565  1
  O  O318  1  0.00086605  0.61728868  0.49039717  1
  O  O319  1  0.50803118  0.11929842  -0.00444332  1
  O  O320  1  0.49785516  0.11642948  0.48438054  1
  O  O321  1  0.50675809  0.62204597  0.00814633  1
  O  O322  1  0.49809294  0.61033246  0.49741562  1
  O  O323  1  0.48652928  0.39347031  0.49426762  1
  O  O324  1  0.49070299  0.37851039  1.00270804  1
  O  O325  1  0.49553247  0.88085454  0.49142475  1
  O  O326  1  0.50040201  0.88467136  0.98799553  1
  O  O327  1  1.00312173  0.37560874  0.48943039  1
  O  O328  1  0.99169137  0.37357301  1.00031832  1
  O  O329  1  0.99649608  0.88864666  0.50473111  1
  O  O330  1  1.00450160  0.88287696  0.99137455  1
  O  O331  1  0.48541838  0.50790775  0.37364427  1
  O  O332  1  0.49547565  0.49240783  0.88708073  1
  O  O333  1  0.49021243  0.99214771  0.37948915  1
  O  O334  1  0.49553426  0.99591774  0.88309252  1
  O  O335  1  1.00444395  0.49197257  0.38334314  1
  O  O336  1  0.99616325  0.49824583  0.88326525  1
  O  O337  1  0.99443690  1.00567326  0.38508985  1
  O  O338  1  0.99450983  0.99020123  0.87967074  1
  O  O339  1  -0.00090961  0.01079227  0.11956069  1
  O  O340  1  0.00724318  0.00330304  0.62146759  1
  O  O341  1  0.01501887  0.49711686  0.12386788  1
  O  O342  1  0.00614330  0.50413578  0.61838034  1
  O  O343  1  0.50971246  -0.00757896  0.10842951  1
  O  O344  1  0.49781870  0.00142369  0.60681764  1
  O  O345  1  0.50144641  0.51442398  0.12156396  1
  O  O346  1  0.50548606  0.50331023  0.61453941  1
  O  O347  1  0.24734063  0.38184981  0.24487497  1
  O  O348  1  0.24894750  0.38492003  0.74949863  1
  O  O349  1  0.23959595  0.87888781  0.24343813  1
  O  O350  1  0.24530560  0.88035016  0.74631477  1
  O  O351  1  0.72272562  0.36497743  0.25543202  1
  O  O352  1  0.73552318  0.34998334  0.76402281  1
  O  O353  1  0.73804472  0.87618258  0.23939167  1
  O  O354  1  0.73958376  0.88034092  0.74460884  1
  O  O355  1  0.23696227  0.10465188  0.26337631  1
  O  O356  1  0.26080890  0.11838929  0.75652255  1
  O  O357  1  0.25335200  0.61865780  0.25886470  1
  O  O358  1  0.25913722  0.62127907  0.75839162  1
  O  O359  1  0.76437540  0.12392427  0.25513025  1
  O  O360  1  0.74856867  0.11631208  0.75996204  1
  O  O361  1  0.76449498  0.63285091  0.26012410  1
  O  O362  1  0.75306217  0.64214110  0.77369371  1
  O  O363  1  0.36098355  0.10495746  0.37623493  1
  O  O364  1  0.36743986  0.11918314  0.86755860  1
  O  O365  1  0.36253955  0.61625988  0.37439050  1
  O  O366  1  0.37314442  0.62182726  0.87056280  1
  O  O367  1  0.87362029  0.11484690  0.36575290  1
  O  O368  1  0.85873200  0.12730415  0.87475702  1
  O  O369  1  0.86651016  0.62265362  0.36147182  1
  O  O370  1  0.86319910  0.62536747  0.88490549  1
  O  O371  1  0.13120285  0.38432011  0.13457590  1
  O  O372  1  0.12824091  0.38740218  0.64052711  1
  O  O373  1  0.13716398  0.86735860  0.13536992  1
  O  O374  1  0.13009944  0.88183628  0.63310267  1
  O  O375  1  0.62726536  0.39193174  0.11298722  1
  O  O376  1  0.61874203  0.33192233  0.63569904  1
  O  O377  1  0.63077150  0.88519324  0.12852952  1
  O  O378  1  0.63583710  0.88016209  0.63298571  1
  O  O379  1  0.12491370  0.25715939  0.26076809  1
  O  O380  1  0.11876360  0.25598777  0.74688252  1
  O  O381  1  0.11692393  0.75323110  0.25670410  1
  O  O382  1  0.12014600  0.75848619  0.75425843  1
  O  O383  1  0.61593315  0.24523838  0.25521531  1
  O  O384  1  0.61427226  0.23908561  0.76731560  1
  O  O385  1  0.61772286  0.75853688  0.24667415  1
  O  O386  1  0.61533851  0.75897033  0.75873836  1
  O  O387  1  0.32411146  0.23664591  0.22282126  1
  O  O388  1  0.37908967  0.23779053  0.75315626  1
  O  O389  1  0.38095160  0.75071337  0.24169854  1
  O  O390  1  0.37422147  0.73908809  0.74796141  1
  O  O391  1  0.88320737  0.24437476  0.24610999  1
  O  O392  1  0.88794332  0.24407571  0.73844067  1
  O  O393  1  0.88345560  0.74457271  0.24402013  1
  O  O394  1  0.88342791  0.75342098  0.73731681  1
  O  O395  1  0.37887945  0.49675515  0.49027476  1
  O  O396  1  0.37876442  0.49375898  0.99645303  1
  O  O397  1  0.37943199  0.99001073  0.49296279  1
  O  O398  1  0.38139259  1.00382508  0.99019266  1
  O  O399  1  0.88947661  0.49601456  0.49455050  1
  O  O400  1  0.87527363  0.48582734  1.01214603  1
  O  O401  1  0.88402113  0.99799030  0.49008868  1
  O  O402  1  0.89117889  1.00777966  0.99848950  1
  O  O403  1  0.10807521  0.00797409  -0.00412994  1
  O  O404  1  0.11940246  -0.00811045  0.51021911  1
  O  O405  1  0.12848257  0.50958489  0.00981165  1
  O  O406  1  0.11561041  0.49443153  0.51290285  1
  O  O407  1  0.61882205  0.00987822  0.00503020  1
  O  O408  1  0.61440799  0.00041885  0.49806181  1
  O  O409  1  0.61923831  0.51341624  0.00797777  1
  O  O410  1  0.61198787  0.49693239  0.49506605  1
  O  O411  1  0.36499223  0.38647196  0.11843375  1
  O  O412  1  0.37549153  0.38327057  0.61023089  1
  O  O413  1  0.36209519  0.86162259  0.12066333  1
  O  O414  1  0.37132757  0.86746966  0.62254908  1
  O  O415  1  0.88123706  0.36140993  0.12328737  1
  O  O416  1  0.88453555  0.35403771  0.61667444  1
  O  O417  1  0.86549671  0.86706194  0.13408316  1
  O  O418  1  0.86295704  0.87188582  0.62463287  1
  O  O419  1  0.13089909  0.13426573  0.37590493  1
  O  O420  1  0.14061771  0.11913623  0.87114550  1
  O  O421  1  0.13803039  0.63447250  0.37085682  1
  O  O422  1  0.13397301  0.63336392  0.88376962  1
  O  O423  1  0.64301277  0.11664216  0.37195727  1
  O  O424  1  0.63624836  0.12066508  0.88977995  1
  O  O425  1  0.64123674  0.62863094  0.36268283  1
  O  O426  1  0.63006089  0.63119269  0.88437765  1
