# generated using pymatgen
data_V85Zn86O256
_symmetry_space_group_name_H-M   'P 1'
_cell_length_a   16.91798751
_cell_length_b   16.92177116
_cell_length_c   16.93166777
_cell_angle_alpha   90.01394950
_cell_angle_beta   90.09389387
_cell_angle_gamma   90.07902283
_symmetry_Int_Tables_number   1
_chemical_formula_structural   V85Zn86O256
_chemical_formula_sum   'V85 Zn86 O256'
_cell_volume   4847.22575102
_cell_formula_units_Z   1
loop_
 _symmetry_equiv_pos_site_id
 _symmetry_equiv_pos_as_xyz
  1  'x, y, z'
loop_
 _atom_site_type_symbol
 _atom_site_label
 _atom_site_symmetry_multiplicity
 _atom_site_fract_x
 _atom_site_fract_y
 _atom_site_fract_z
 _atom_site_occupancy
  V  V0  1  0.50229120  0.89526874  0.38056817  1
  V  V1  1  0.49899281  0.75032101  0.75158220  1
  V  V2  1  0.74317237  -0.00316880  0.74861664  1
  V  V3  1  0.26110343  -0.00070979  0.25322116  1
  V  V4  1  0.00234867  0.50206992  -0.00033692  1
  V  V5  1  0.00028375  0.37420726  0.37309181  1
  V  V6  1  0.61413717  0.74538144  0.37050349  1
  V  V7  1  0.73904262  0.25028593  0.49555356  1
  V  V8  1  0.12503434  0.37460249  0.24524625  1
  V  V9  1  0.12123718  0.87210504  0.75077879  1
  V  V10  1  0.87049163  0.50099432  0.35964347  1
  V  V11  1  0.49895592  0.62766767  0.62677077  1
  V  V12  1  0.12588833  0.37960411  0.75327739  1
  V  V13  1  0.31034254  0.31995649  0.17161687  1
  V  V14  1  0.25537344  0.11936781  0.38359523  1
  V  V15  1  0.62437601  0.25210624  0.87599684  1
  V  V16  1  0.75432418  0.38505937  0.13012668  1
  V  V17  1  -0.01366663  -0.00142725  0.50382240  1
  V  V18  1  0.12279521  0.50734039  0.62806116  1
  V  V19  1  -0.00125092  -0.00729117  0.00161009  1
  V  V20  1  0.37390784  0.50600922  0.37866423  1
  V  V21  1  0.75043238  0.12653624  0.87594629  1
  V  V22  1  0.62692428  0.75011720  0.87484175  1
  V  V23  1  0.75235253  0.25736574  0.00038428  1
  V  V24  1  -0.00130603  0.50439175  0.50374463  1
  V  V25  1  0.12834612  -0.00221290  0.12572693  1
  V  V26  1  0.51274058  0.11360310  0.62310127  1
  V  V27  1  -0.00295398  0.12526708  0.62650979  1
  V  V28  1  -0.00545905  0.37429313  0.88105400  1
  V  V29  1  0.75286174  0.62165913  0.36088676  1
  V  V30  1  0.50336065  0.50705973  -0.00228466  1
  V  V31  1  0.87426162  -0.00695519  0.37424172  1
  V  V32  1  0.75587818  0.74756308  0.49725622  1
  V  V33  1  -0.00089631  0.74274906  0.25439376  1
  V  V34  1  0.24895629  0.88072680  0.62853923  1
  V  V35  1  0.00034979  0.86962625  0.87495123  1
  V  V36  1  0.75191681  -0.00525881  0.23584822  1
  V  V37  1  0.75781640  0.62822352  0.87531953  1
  V  V38  1  0.37215926  0.24891233  0.62830341  1
  V  V39  1  0.12428667  0.00170077  0.62828935  1
  V  V40  1  0.25546164  0.50543078  0.24425237  1
  V  V41  1  0.74558411  0.12354046  0.37434271  1
  V  V42  1  -0.00265155  0.25215645  0.75154806  1
  V  V43  1  0.74924200  0.37629783  0.62453851  1
  V  V44  1  -0.00423309  0.73547445  0.75202197  1
  V  V45  1  0.00111580  0.86960081  0.38209516  1
  V  V46  1  0.62335376  0.50164829  0.62695579  1
  V  V47  1  0.49993602  0.25055778  0.74924031  1
  V  V48  1  0.62433618  0.86947993  0.24452440  1
  V  V49  1  0.37219057  0.87139407  -0.00340939  1
  V  V50  1  0.24833194  0.38147816  0.63222893  1
  V  V51  1  0.87630513  0.12379019  0.24836742  1
  V  V52  1  0.87692006  0.25249378  0.11919156  1
  V  V53  1  0.87471612  0.12390516  0.74741488  1
  V  V54  1  0.87541514  0.76543358  0.12364190  1
  V  V55  1  0.19148778  0.68971037  -0.05814385  1
  V  V56  1  0.24971896  0.86745747  0.12153011  1
  V  V57  1  0.75597637  0.50650325  0.74916216  1
  V  V58  1  0.25020189  0.25418632  -0.00108328  1
  V  V59  1  0.37349722  0.75401084  0.62495909  1
  V  V60  1  0.38631538  0.63308931  0.25120992  1
  V  V61  1  0.38517863  0.75242573  0.12609866  1
  V  V62  1  0.36054859  0.50424758  0.87258685  1
  V  V63  1  -0.00764280  0.62444202  0.12489815  1
  V  V64  1  0.61169280  -0.00207420  0.11803160  1
  V  V65  1  0.12726095  0.86783683  0.25827275  1
  V  V66  1  0.49779720  0.36598702  0.37252877  1
  V  V67  1  0.24781436  0.12039335  0.87438640  1
  V  V68  1  0.35869955  0.62447782  0.75254981  1
  V  V69  1  0.87525678  -0.00469591  0.87939137  1
  V  V70  1  0.37689796  0.37371240  -0.00035725  1
  V  V71  1  0.36887462  0.11898956  0.74832938  1
  V  V72  1  0.49306155  0.14637619  0.12345117  1
  V  V73  1  0.00070566  0.12348629  0.12468713  1
  V  V74  1  0.87680046  0.50226031  0.87653055  1
  V  V75  1  0.75571922  0.87179415  0.62288478  1
  V  V76  1  0.24602174  0.75641918  0.49431865  1
  V  V77  1  0.37719503  0.00340892  0.88162082  1
  V  V78  1  0.50265758  0.88130697  0.87823591  1
  V  V79  1  0.88080299  0.73252389  0.62276134  1
  V  V80  1  0.12367095  0.62944837  0.49424954  1
  V  V81  1  0.37258485  0.37748216  0.50666672  1
  V  V82  1  0.12947819  0.50630425  0.12158180  1
  V  V83  1  0.75981475  0.76330020  0.00026434  1
  V  V84  1  0.87300947  0.37551214  0.49805772  1
  Zn  Zn85  1  0.63456474  0.50769757  0.12881016  1
  Zn  Zn86  1  0.00108655  0.24803993  0.24909993  1
  Zn  Zn87  1  0.61142768  0.23727192  0.36883754  1
  Zn  Zn88  1  0.12281160  0.24712379  0.37697006  1
  Zn  Zn89  1  0.37720338  0.13303161  0.24843754  1
  Zn  Zn90  1  0.62550157  0.62512949  0.49913349  1
  Zn  Zn91  1  0.49893246  0.50202812  0.50212970  1
  Zn  Zn92  1  0.62505374  0.37046312  0.24840141  1
  Zn  Zn93  1  0.24680497  0.63668255  0.37030157  1
  Zn  Zn94  1  0.11857846  0.12696046  0.49807750  1
  Zn  Zn95  1  0.12331253  0.24879074  0.87673529  1
  Zn  Zn96  1  0.50038610  0.37893997  0.87353388  1
  Zn  Zn97  1  0.87216890  0.25078706  0.62378085  1
  Zn  Zn98  1  0.50840331  0.63230169  0.12554738  1
  Zn  Zn99  1  0.12660585  0.12619691  0.00055859  1
  Zn  Zn100  1  0.61999652  0.12258715  -0.00003883  1
  Zn  Zn101  1  0.62901628  0.62678498  0.00214465  1
  Zn  Zn102  1  0.57810761  0.05662113  0.46948485  1
  Zn  Zn103  1  0.62246651  0.87836044  0.74307395  1
  Zn  Zn104  1  0.38377076  0.88584862  0.50091722  1
  Zn  Zn105  1  0.24114529  0.24979975  0.50469193  1
  Zn  Zn106  1  0.62560876  0.37648409  0.75082693  1
  Zn  Zn107  1  0.18463373  0.18210239  0.19404837  1
  Zn  Zn108  1  0.18522124  0.19081540  0.68943652  1
  Zn  Zn109  1  0.18879371  0.68724448  0.18194365  1
  Zn  Zn110  1  0.18163986  0.69303543  0.68337839  1
  Zn  Zn111  1  0.68249374  0.18938136  0.18844654  1
  Zn  Zn112  1  0.68926845  0.18909932  0.68778896  1
  Zn  Zn113  1  0.69200643  0.69111954  0.18375644  1
  Zn  Zn114  1  0.68881158  0.68859701  0.68885811  1
  Zn  Zn115  1  0.31001392  0.31088543  0.33392004  1
  Zn  Zn116  1  0.31178238  0.31243113  0.81555353  1
  Zn  Zn117  1  0.31967449  0.81640050  0.31296930  1
  Zn  Zn118  1  0.30854103  0.81204600  0.81152858  1
  Zn  Zn119  1  0.81006981  0.30969758  0.30728768  1
  Zn  Zn120  1  0.81282332  0.31684170  0.81233791  1
  Zn  Zn121  1  0.81278407  0.80983845  0.30785838  1
  Zn  Zn122  1  0.81864078  0.81177913  0.80855308  1
  Zn  Zn123  1  0.18771968  0.43989909  0.43685076  1
  Zn  Zn124  1  0.18641878  0.43681536  0.94072539  1
  Zn  Zn125  1  0.18508900  0.94364380  0.44305700  1
  Zn  Zn126  1  0.18718296  0.93400994  0.93656792  1
  Zn  Zn127  1  0.68401299  0.44120665  0.43751838  1
  Zn  Zn128  1  0.68864161  0.43697674  0.93971528  1
  Zn  Zn129  1  0.69545881  0.92472795  0.43120509  1
  Zn  Zn130  1  0.68775874  0.93725505  0.93704039  1
  Zn  Zn131  1  0.31668883  0.06289911  0.06242339  1
  Zn  Zn132  1  0.31690165  0.05563771  0.56178122  1
  Zn  Zn133  1  0.31735869  0.56499567  0.06242632  1
  Zn  Zn134  1  0.30721220  0.56628434  0.56481940  1
  Zn  Zn135  1  0.81160606  0.06546051  0.05834840  1
  Zn  Zn136  1  0.76719412  0.04167944  0.54300869  1
  Zn  Zn137  1  0.81774231  0.56844003  0.05717535  1
  Zn  Zn138  1  0.81124678  0.56313608  0.55654990  1
  Zn  Zn139  1  0.46503004  0.45423093  0.19958186  1
  Zn  Zn140  1  0.43693744  0.44046598  0.69313813  1
  Zn  Zn141  1  0.44128299  0.93363280  0.18991605  1
  Zn  Zn142  1  0.43473130  0.93981564  0.69268180  1
  Zn  Zn143  1  0.93783076  0.43438433  0.18285932  1
  Zn  Zn144  1  0.93713177  0.44132679  0.68866438  1
  Zn  Zn145  1  0.94267329  0.93477954  0.19242573  1
  Zn  Zn146  1  0.92994960  0.93224401  0.68777480  1
  Zn  Zn147  1  0.06624678  0.05900310  0.31323556  1
  Zn  Zn148  1  0.06363936  0.05980038  0.81265528  1
  Zn  Zn149  1  0.06328192  0.56026276  0.31352322  1
  Zn  Zn150  1  0.07243511  0.56323571  0.81871616  1
  Zn  Zn151  1  0.56450428  0.06619724  0.29440483  1
  Zn  Zn152  1  0.56110936  0.06592157  0.81121165  1
  Zn  Zn153  1  0.56574950  0.55598755  0.31220615  1
  Zn  Zn154  1  0.56206835  0.56512698  0.81392077  1
  Zn  Zn155  1  0.42892963  0.18253429  0.44615831  1
  Zn  Zn156  1  0.43935874  0.18779932  0.94226093  1
  Zn  Zn157  1  0.43380619  0.69204910  0.44308626  1
  Zn  Zn158  1  0.43254568  0.68841755  0.93714232  1
  Zn  Zn159  1  0.93207605  0.18710346  0.43768843  1
  Zn  Zn160  1  0.93876665  0.18327269  0.93889511  1
  Zn  Zn161  1  0.93557010  0.68412263  0.43645825  1
  Zn  Zn162  1  0.94260883  0.68585818  0.93954536  1
  Zn  Zn163  1  0.06529035  0.31574576  0.06240681  1
  Zn  Zn164  1  0.06079403  0.31330076  0.56419823  1
  Zn  Zn165  1  0.06339794  0.81069460  0.06242004  1
  Zn  Zn166  1  0.05860502  0.81126459  0.56445912  1
  Zn  Zn167  1  0.56671366  0.31853984  0.05890562  1
  Zn  Zn168  1  0.55938576  0.31215948  0.56293099  1
  Zn  Zn169  1  0.56486448  0.81565174  0.05665885  1
  Zn  Zn170  1  0.57066733  0.81326239  0.55906657  1
  O  O171  1  0.11978429  0.11415503  0.12546545  1
  O  O172  1  0.11532578  0.11807999  0.62849798  1
  O  O173  1  0.11390488  0.61208236  0.13434180  1
  O  O174  1  0.12993736  0.61206223  0.61576538  1
  O  O175  1  0.61423984  0.11487506  0.12549365  1
  O  O176  1  0.61209188  0.12665165  0.62951657  1
  O  O177  1  0.62565987  0.62452302  0.12129746  1
  O  O178  1  0.61638623  0.62017493  0.62646958  1
  O  O179  1  0.37898513  0.38285660  0.38895042  1
  O  O180  1  0.37657959  0.38650480  0.88057445  1
  O  O181  1  0.40168875  0.87497192  0.36990457  1
  O  O182  1  0.37863413  0.88256529  0.87865874  1
  O  O183  1  0.87871978  0.38062415  0.37867634  1
  O  O184  1  0.88772358  0.38322625  0.87203491  1
  O  O185  1  0.88379649  0.88601065  0.36668889  1
  O  O186  1  0.88840180  0.88343348  0.86995483  1
  O  O187  1  0.24283403  0.01046416  0.36730699  1
  O  O188  1  0.25674969  0.01317443  0.88065867  1
  O  O189  1  0.26136724  0.49822423  0.36364584  1
  O  O190  1  0.26183131  0.49716366  0.87729049  1
  O  O191  1  0.75937920  0.00429799  0.36365191  1
  O  O192  1  0.75797861  0.00418931  0.86984925  1
  O  O193  1  0.75476314  0.51162407  0.37726420  1
  O  O194  1  0.75740279  0.50555454  0.87039981  1
  O  O195  1  0.24529379  0.50503488  0.13557634  1
  O  O196  1  0.24064264  0.48904579  0.62310350  1
  O  O197  1  0.24463321  0.99309095  0.13194539  1
  O  O198  1  0.23547418  0.99440962  0.62404953  1
  O  O199  1  0.75626475  0.48801269  0.11529477  1
  O  O200  1  0.74443594  0.49884118  0.63134043  1
  O  O201  1  0.74658785  1.00585180  0.13322682  1
  O  O202  1  0.76848532  0.98548155  0.64012139  1
  O  O203  1  0.00862168  0.37537634  0.25667511  1
  O  O204  1  0.00383863  0.37021127  0.75741590  1
  O  O205  1  0.00902897  0.86636337  0.26019384  1
  O  O206  1  0.00289231  0.86742624  0.75662697  1
  O  O207  1  0.48350748  0.36603144  0.27249566  1
  O  O208  1  0.50050508  0.36211467  0.75110596  1
  O  O209  1  0.51611399  0.88298013  0.26289692  1
  O  O210  1  0.50034069  0.86881759  0.75964514  1
  O  O211  1  0.49351601  0.12659856  0.23269267  1
  O  O212  1  0.49221744  0.13410550  0.74239628  1
  O  O213  1  0.48888424  0.62295849  0.25005037  1
  O  O214  1  0.49332923  0.63151146  0.74180474  1
  O  O215  1  0.99541932  0.12338178  0.24323206  1
  O  O216  1  0.99335349  0.13111576  0.74892473  1
  O  O217  1  1.00623034  0.63708862  0.24738963  1
  O  O218  1  1.00791232  0.63748964  0.75457378  1
  O  O219  1  0.36981618  0.26584739  -0.00521073  1
  O  O220  1  0.36792513  0.25997469  0.51145871  1
  O  O221  1  0.37728430  0.76428530  0.00641594  1
  O  O222  1  0.36733508  0.76311424  0.50807510  1
  O  O223  1  0.86916520  0.24221865  0.01110205  1
  O  O224  1  0.86855596  0.26462553  0.49945021  1
  O  O225  1  0.87466417  0.74678811  0.01332193  1
  O  O226  1  0.87289444  0.74286470  0.51377303  1
  O  O227  1  0.12295757  0.24642723  0.49816980  1
  O  O228  1  0.13481519  0.24895760  0.99862171  1
  O  O229  1  0.13046164  0.74016909  0.50812221  1
  O  O230  1  0.12905537  0.74583098  1.00097815  1
  O  O231  1  0.63625361  0.25555705  0.49408791  1
  O  O232  1  0.63322820  0.24866632  0.99110447  1
  O  O233  1  0.63630617  0.74549534  0.48782893  1
  O  O234  1  0.63549371  0.75252731  0.98777346  1
  O  O235  1  0.50339434  0.24515407  0.12214086  1
  O  O236  1  0.49330726  0.24300914  0.63261482  1
  O  O237  1  0.48959047  0.75380000  0.12087877  1
  O  O238  1  0.49580995  0.74679237  0.62965557  1
  O  O239  1  0.99372598  0.24472966  0.12326352  1
  O  O240  1  0.99406771  0.24489805  0.63314406  1
  O  O241  1  0.99368163  0.74453149  0.13070761  1
  O  O242  1  0.98784023  0.75012082  0.63427348  1
  O  O243  1  -0.00300981  0.26351057  0.37343309  1
  O  O244  1  -0.00020957  0.25799052  0.87253715  1
  O  O245  1  -0.00786533  0.75775547  0.36782756  1
  O  O246  1  -0.00657259  0.75640843  0.86304649  1
  O  O247  1  0.49548434  0.26231749  0.38925682  1
  O  O248  1  0.50788972  0.24945220  0.86741188  1
  O  O249  1  0.51301775  0.74700209  0.37790195  1
  O  O250  1  0.50838101  0.75587920  0.87114735  1
  O  O251  1  0.24530464  0.12307898  0.49105766  1
  O  O252  1  0.25212257  0.13631274  0.99525199  1
  O  O253  1  0.24268390  0.63700977  0.49820120  1
  O  O254  1  0.25155714  0.63244882  1.00177693  1
  O  O255  1  0.76361722  0.13831652  0.48358895  1
  O  O256  1  0.74705368  0.13708643  0.99218282  1
  O  O257  1  0.74768353  0.63329647  0.49090257  1
  O  O258  1  0.75092043  0.63654179  0.99024608  1
  O  O259  1  0.25710066  0.36348241  -0.00129959  1
  O  O260  1  0.25839306  0.37651381  0.50787896  1
  O  O261  1  0.25863576  0.88180200  0.01043177  1
  O  O262  1  0.24174163  0.87118384  0.51356567  1
  O  O263  1  0.75298424  0.36274576  0.00450787  1
  O  O264  1  0.75542720  0.37090580  0.50156626  1
  O  O265  1  0.75595843  0.86256150  -0.00948985  1
  O  O266  1  0.75626337  0.85549693  0.50500039  1
  O  O267  1  0.13680788  0.49408042  0.24728200  1
  O  O268  1  0.11705302  0.48908272  0.74204108  1
  O  O269  1  0.13024002  0.98834313  0.24024864  1
  O  O270  1  0.11349209  0.98793351  0.73688829  1
  O  O271  1  0.58866490  0.48001809  0.23237249  1
  O  O272  1  0.63116823  0.49949210  0.74163688  1
  O  O273  1  0.63403248  0.99390176  0.23528689  1
  O  O274  1  0.63952538  1.00038026  0.75468708  1
  O  O275  1  0.36295368  -0.00175842  0.24649697  1
  O  O276  1  0.37428919  0.01258703  0.76220126  1
  O  O277  1  0.37161355  0.50875000  0.25666141  1
  O  O278  1  0.37661189  0.50825055  0.76388282  1
  O  O279  1  0.87006518  0.00278247  0.25309629  1
  O  O280  1  0.87175210  0.00643593  0.76240822  1
  O  O281  1  0.88190269  0.49720829  0.26117979  1
  O  O282  1  0.86866049  0.49885876  0.76210206  1
  O  O283  1  0.11771613  0.37720691  0.36495510  1
  O  O284  1  0.11420415  0.37645968  0.86853265  1
  O  O285  1  0.11561672  0.88142221  0.36799288  1
  O  O286  1  0.11219419  0.88339914  0.86417669  1
  O  O287  1  0.60397500  0.38047456  0.37918459  1
  O  O288  1  0.62453016  0.36393022  0.87238361  1
  O  O289  1  0.61882138  0.86497313  0.36725644  1
  O  O290  1  0.61767959  0.87035261  0.87166236  1
  O  O291  1  0.38794081  0.12683106  0.12566859  1
  O  O292  1  0.37444264  0.12959696  0.63489054  1
  O  O293  1  0.37771496  0.63700106  0.13320612  1
  O  O294  1  0.38046709  0.63088459  0.63170773  1
  O  O295  1  0.88116839  0.12938815  0.12926609  1
  O  O296  1  0.87857172  0.12564315  0.64060115  1
  O  O297  1  0.88865298  0.63040881  0.12640816  1
  O  O298  1  0.87319931  0.63296893  0.62622273  1
  O  O299  1  0.24816081  0.25375456  0.12012841  1
  O  O300  1  0.25328354  0.26304345  0.62647767  1
  O  O301  1  0.26009592  0.76369509  0.13009588  1
  O  O302  1  0.25415873  0.75913260  0.61623481  1
  O  O303  1  0.75769446  0.25508060  0.11748526  1
  O  O304  1  0.75104076  0.25665383  0.61581763  1
  O  O305  1  0.76774188  0.74924004  0.11699816  1
  O  O306  1  0.76170063  0.74672100  0.61869248  1
  O  O307  1  0.24318787  0.23582153  0.38221950  1
  O  O308  1  0.24846337  0.24056142  0.88316440  1
  O  O309  1  0.25500652  0.75737062  0.38972294  1
  O  O310  1  0.24825607  0.75287633  0.88387767  1
  O  O311  1  0.75206843  0.24023692  0.37986322  1
  O  O312  1  0.74528579  0.24828794  0.87960826  1
  O  O313  1  0.74920440  0.73904957  0.37874184  1
  O  O314  1  0.74873733  0.74486817  0.87649082  1
  O  O315  1  0.00389073  0.11115140  0.00554425  1
  O  O316  1  -0.00578429  0.11676924  0.50804408  1
  O  O317  1  -0.00009418  0.61204919  0.00858398  1
  O  O318  1  0.00632873  0.61226229  0.49439439  1
  O  O319  1  0.50265996  0.12752284  0.01538868  1
  O  O320  1  0.50013583  0.12632122  0.51632535  1
  O  O321  1  0.50380892  0.62099308  -0.00225310  1
  O  O322  1  0.49897694  0.62518450  0.51503851  1
  O  O323  1  0.48521577  0.37956504  0.50070567  1
  O  O324  1  0.49227611  0.38339081  0.99633883  1
  O  O325  1  0.50768763  0.87364555  0.48413084  1
  O  O326  1  0.49246596  0.87402352  0.98478630  1
  O  O327  1  0.99260728  0.38308820  0.49312055  1
  O  O328  1  1.00362345  0.38717086  0.99270771  1
  O  O329  1  1.00144948  0.88064939  0.48958871  1
  O  O330  1  1.00523365  0.88486565  0.99218236  1
  O  O331  1  0.48596479  0.49314151  0.38061718  1
  O  O332  1  0.49345017  0.50015941  0.88317886  1
  O  O333  1  0.51758596  0.99748018  0.37963929  1
  O  O334  1  0.49149182  0.99383361  0.86936278  1
  O  O335  1  0.99352226  0.49026765  0.38081538  1
  O  O336  1  0.99638532  0.49647099  0.88072997  1
  O  O337  1  0.99321502  0.99349021  0.38227883  1
  O  O338  1  0.99427528  0.99435447  0.88270280  1
  O  O339  1  0.00726070  -0.00020768  0.11923847  1
  O  O340  1  -0.00274541  0.00280410  0.61931298  1
  O  O341  1  0.00434801  0.50561740  0.11901529  1
  O  O342  1  0.00825854  0.49423890  0.61448473  1
  O  O343  1  0.51067709  0.00028253  0.12396800  1
  O  O344  1  0.49999484  0.01446371  0.63467921  1
  O  O345  1  0.49148540  0.50954074  0.10428476  1
  O  O346  1  0.50654043  0.50886894  0.62848737  1
  O  O347  1  0.25094639  0.37804970  0.24306711  1
  O  O348  1  0.23887006  0.37143420  0.74499025  1
  O  O349  1  0.24457917  0.88039445  0.24730632  1
  O  O350  1  0.23757787  0.86901922  0.73772749  1
  O  O351  1  0.75290793  0.37878080  0.23388865  1
  O  O352  1  0.74931415  0.38753505  0.74363641  1
  O  O353  1  0.73883603  0.88461034  0.25530727  1
  O  O354  1  0.74987730  0.88168837  0.74654698  1
  O  O355  1  0.25354128  0.11579122  0.25839592  1
  O  O356  1  0.25831897  0.13294119  0.76032097  1
  O  O357  1  0.25806103  0.61994896  0.25225973  1
  O  O358  1  0.25979855  0.63102364  0.74109503  1
  O  O359  1  0.75527131  0.11687893  0.25784510  1
  O  O360  1  0.75718095  0.11901617  0.75487615  1
  O  O361  1  0.75009535  0.62630921  0.26214859  1
  O  O362  1  0.74724621  0.61322995  0.75717460  1
  O  O363  1  0.35951263  0.13196165  0.36922517  1
  O  O364  1  0.37087817  0.11974938  0.87179143  1
  O  O365  1  0.37174947  0.62145737  0.37113397  1
  O  O366  1  0.37585343  0.61379306  0.86736354  1
  O  O367  1  0.87147250  0.11418910  0.36616462  1
  O  O368  1  0.87090365  0.11838337  0.86641047  1
  O  O369  1  0.86195342  0.61566526  0.37729133  1
  O  O370  1  0.86564432  0.61992844  0.87593135  1
  O  O371  1  0.11944239  0.38862664  0.13809138  1
  O  O372  1  0.12989072  0.38324544  0.63228184  1
  O  O373  1  0.13255754  0.87924613  0.13211119  1
  O  O374  1  0.12697801  0.88221317  0.63062793  1
  O  O375  1  0.64561638  0.37629281  0.12022450  1
  O  O376  1  0.63026797  0.38366690  0.62634147  1
  O  O377  1  0.62078571  0.88532302  0.13042226  1
  O  O378  1  0.64706407  0.86122227  0.62944965  1
  O  O379  1  0.12248040  0.26066926  0.25153301  1
  O  O380  1  0.11520795  0.26224854  0.75253808  1
  O  O381  1  0.11879833  0.76114367  0.24450948  1
  O  O382  1  0.10831653  0.76205689  0.73968918  1
  O  O383  1  0.63224009  0.25834875  0.25953592  1
  O  O384  1  0.61791424  0.25124413  0.75681595  1
  O  O385  1  0.63301088  0.75941868  0.25647887  1
  O  O386  1  0.62075795  0.75101931  0.76202838  1
  O  O387  1  0.35825978  0.26063627  0.23846270  1
  O  O388  1  0.38186418  0.24196007  0.74908371  1
  O  O389  1  0.37285731  0.74455840  0.24078243  1
  O  O390  1  0.37983613  0.74389276  0.74558339  1
  O  O391  1  0.87724462  0.24271091  0.23707193  1
  O  O392  1  0.87939229  0.24244923  0.75091360  1
  O  O393  1  0.88525151  0.75441056  0.23614054  1
  O  O394  1  0.88762114  0.74504746  0.74124500  1
  O  O395  1  0.37184879  0.49672706  0.49520974  1
  O  O396  1  0.37784703  0.49363799  0.98935634  1
  O  O397  1  0.37179253  0.99487324  0.49125026  1
  O  O398  1  0.37335929  0.99065175  0.98888099  1
  O  O399  1  0.88028200  0.49126819  0.49269362  1
  O  O400  1  0.88374622  0.50301397  0.98531896  1
  O  O401  1  0.87955856  1.00127998  0.49061121  1
  O  O402  1  0.88221080  1.00434531  0.98801792  1
  O  O403  1  0.11999997  -0.00131108  0.01244726  1
  O  O404  1  0.10752796  0.00294617  0.51253356  1
  O  O405  1  0.11878747  0.49544097  0.01180369  1
  O  O406  1  0.11726610  0.50336564  0.50671417  1
  O  O407  1  0.63419432  0.00196074  0.01521261  1
  O  O408  1  0.66390369  -0.00061121  0.50763160  1
  O  O409  1  0.61672464  0.50266435  0.00043366  1
  O  O410  1  0.62245133  0.50416683  0.51467889  1
  O  O411  1  0.37652483  0.37926440  0.12013549  1
  O  O412  1  0.36693092  0.37417371  0.62497248  1
  O  O413  1  0.37082728  0.87215400  0.11792788  1
  O  O414  1  0.36498462  0.87271315  0.62915077  1
  O  O415  1  0.86640503  0.36554415  0.12386288  1
  O  O416  1  0.86722658  0.37755606  0.61540508  1
  O  O417  1  0.88321832  0.86423769  0.12297007  1
  O  O418  1  0.86346472  0.85620965  0.63174214  1
  O  O419  1  0.13548807  0.12511037  0.37579273  1
  O  O420  1  0.13339756  0.12542081  0.87708413  1
  O  O421  1  0.13007584  0.61736637  0.38926268  1
  O  O422  1  0.13540729  0.62866940  0.88153059  1
  O  O423  1  0.63268737  0.11989719  0.37605955  1
  O  O424  1  0.63081071  0.13564334  0.87527769  1
  O  O425  1  0.63408209  0.62726652  0.37344095  1
  O  O426  1  0.63732933  0.63384031  0.87506945  1
