# generated using pymatgen
data_V85Zn86O256
_symmetry_space_group_name_H-M   'P 1'
_cell_length_a   16.93904884
_cell_length_b   16.94748230
_cell_length_c   16.94626163
_cell_angle_alpha   90.02231749
_cell_angle_beta   90.00959594
_cell_angle_gamma   89.93599992
_symmetry_Int_Tables_number   1
_chemical_formula_structural   V85Zn86O256
_chemical_formula_sum   'V85 Zn86 O256'
_cell_volume   4864.83154262
_cell_formula_units_Z   1
loop_
 _symmetry_equiv_pos_site_id
 _symmetry_equiv_pos_as_xyz
  1  'x, y, z'
loop_
 _atom_site_type_symbol
 _atom_site_label
 _atom_site_symmetry_multiplicity
 _atom_site_fract_x
 _atom_site_fract_y
 _atom_site_fract_z
 _atom_site_occupancy
  V  V0  1  0.37438364  0.87588932  -0.00181729  1
  V  V1  1  -0.00636482  0.51127613  0.49883289  1
  V  V2  1  0.87596738  0.49974727  0.88122175  1
  V  V3  1  0.24662122  0.50457636  0.25797490  1
  V  V4  1  0.11685992  0.75259374  0.87073316  1
  V  V5  1  0.88960457  0.74851630  0.62763726  1
  V  V6  1  0.86229158  0.87548885  -0.00724661  1
  V  V7  1  0.89209553  0.62961121  0.75058397  1
  V  V8  1  0.37198437  0.12719505  0.25046459  1
  V  V9  1  -0.01297798  0.13087536  0.62497959  1
  V  V10  1  0.87073249  0.01217036  0.86448918  1
  V  V11  1  0.37078932  0.24988841  0.12396947  1
  V  V12  1  -0.00373250  -0.00029221  0.50123671  1
  V  V13  1  0.62032978  0.87899549  0.25575037  1
  V  V14  1  0.76641692  0.37606317  0.62819473  1
  V  V15  1  0.50714341  0.37151571  0.87704055  1
  V  V16  1  0.37762490  0.75479315  0.63019818  1
  V  V17  1  0.24426537  0.37600281  0.62663326  1
  V  V18  1  -0.00323954  0.24157855  0.75573763  1
  V  V19  1  0.62699162  0.24469816  0.37949844  1
  V  V20  1  0.37567281  0.25249702  0.62422181  1
  V  V21  1  0.12169519  0.87077127  0.73986177  1
  V  V22  1  0.60977385  0.48648102  0.10694727  1
  V  V23  1  0.12205818  0.87028115  0.25062398  1
  V  V24  1  0.64341179  0.70571179  0.34629493  1
  V  V25  1  0.50310236  0.24793496  0.75120723  1
  V  V26  1  0.50239724  0.12637557  0.61317344  1
  V  V27  1  0.75687874  0.24925922  0.50039150  1
  V  V28  1  -0.00642028  0.25196831  0.24372018  1
  V  V29  1  0.00014916  0.88310477  0.37391106  1
  V  V30  1  0.24921665  0.87564938  0.12296084  1
  V  V31  1  0.37205873  0.87802095  0.50519746  1
  V  V32  1  0.50233958  0.51066086  0.50460279  1
  V  V33  1  0.24775680  0.75241992  -0.00058262  1
  V  V34  1  0.24486622  0.25111158  0.49828474  1
  V  V35  1  0.00120489  0.49854882  0.00279262  1
  V  V36  1  0.50063968  0.86547986  0.86933555  1
  V  V37  1  0.37456733  0.37826534  0.50078603  1
  V  V38  1  0.38745495  0.62979051  0.75147220  1
  V  V39  1  0.75326208  0.24535375  0.00856083  1
  V  V40  1  0.37351434  0.62516412  0.24212537  1
  V  V41  1  0.24330516  0.13122094  0.87091560  1
  V  V42  1  0.25156437  0.62687429  0.87409924  1
  V  V43  1  0.37758234  -0.00026009  0.37552264  1
  V  V44  1  0.24873132  -0.00478708  0.74022332  1
  V  V45  1  0.61723328  0.63055247  0.00651816  1
  V  V46  1  0.88428988  0.37723047  0.48156215  1
  V  V47  1  0.75446380  0.50806021  0.75437236  1
  V  V48  1  0.75328698  0.11865122  0.37864910  1
  V  V49  1  0.37347548  0.12545837  0.74818647  1
  V  V50  1  0.12249128  0.13231806  -0.00306175  1
  V  V51  1  0.38179000  0.50084357  0.87933674  1
  V  V52  1  0.11551679  0.25186366  0.37486731  1
  V  V53  1  0.87156675  0.87048144  0.49086182  1
  V  V54  1  0.11744921  0.37832310  0.25498016  1
  V  V55  1  0.24867181  0.00052757  0.24969457  1
  V  V56  1  0.12141847  0.00098363  0.12404238  1
  V  V57  1  0.63086502  0.37520824  0.75367025  1
  V  V58  1  0.13583108  0.62322245  0.50303394  1
  V  V59  1  0.25084859  0.50209237  0.74932240  1
  V  V60  1  0.62618585  0.86641258  0.74630023  1
  V  V61  1  0.36975092  0.51089675  0.38013140  1
  V  V62  1  0.87471701  0.36899863  0.01016124  1
  V  V63  1  0.87358756  0.74901374  0.11883665  1
  V  V64  1  -0.02662553  0.73084934  0.26935561  1
  V  V65  1  0.50279578  0.25442217  0.25101578  1
  V  V66  1  0.50011523  0.37655615  0.37781414  1
  V  V67  1  0.75507459  -0.00576198  0.25313182  1
  V  V68  1  -0.00042437  -0.00395641  -0.00303574  1
  V  V69  1  0.62636846  0.50695786  0.62902727  1
  V  V70  1  0.50029189  0.00118616  -0.00326391  1
  V  V71  1  0.37320512  0.00021732  0.87262858  1
  V  V72  1  0.68222576  0.43177051  0.29826867  1
  V  V73  1  0.12592692  0.50411124  0.12711020  1
  V  V74  1  0.12184905  0.62780082  0.00367904  1
  V  V75  1  0.62786760  0.00139354  0.61941745  1
  V  V76  1  0.00906182  0.36996652  0.87661684  1
  V  V77  1  0.62762497  0.12883354  -0.00204484  1
  V  V78  1  0.73636584  0.73367204  0.50689083  1
  V  V79  1  0.68641190  0.18841739  0.82638097  1
  V  V80  1  0.37690042  0.37758736  0.00094594  1
  V  V81  1  0.49667421  0.74938002  0.24434445  1
  V  V82  1  0.87385941  0.12219399  0.24291810  1
  V  V83  1  0.25515028  0.75127144  0.49564478  1
  V  V84  1  0.62593200  0.00122259  0.12458489  1
  Zn  Zn85  1  0.24611319  0.12657120  0.37583356  1
  Zn  Zn86  1  0.12028969  0.12500220  0.50025659  1
  Zn  Zn87  1  0.75148965  0.00690566  0.74898596  1
  Zn  Zn88  1  0.76052877  0.63988537  0.90387252  1
  Zn  Zn89  1  0.12799078  0.36876433  0.75648681  1
  Zn  Zn90  1  0.37670609  0.74582897  0.12026183  1
  Zn  Zn91  1  0.11596665  0.50909198  0.63250682  1
  Zn  Zn92  1  -0.00352092  0.87344429  0.86767007  1
  Zn  Zn93  1  0.24606314  0.25226278  -0.00526496  1
  Zn  Zn94  1  0.74403399  0.86773776  0.12212086  1
  Zn  Zn95  1  0.63396115  0.74845203  0.87956683  1
  Zn  Zn96  1  0.13262552  0.74747669  0.37426697  1
  Zn  Zn97  1  0.50176491  0.86701344  0.37856521  1
  Zn  Zn98  1  0.75403853  0.87560967  0.62467590  1
  Zn  Zn99  1  0.50632056  0.00079837  0.49556740  1
  Zn  Zn100  1  0.12540789  0.00196951  0.62176607  1
  Zn  Zn101  1  0.49804475  0.12490431  0.12338795  1
  Zn  Zn102  1  0.24903555  0.37466693  0.12594963  1
  Zn  Zn103  1  -0.00738614  0.12593342  0.12165572  1
  Zn  Zn104  1  0.51008142  0.63590329  0.62985645  1
  Zn  Zn105  1  -0.04620518  0.59205384  0.16815798  1
  Zn  Zn106  1  0.74069036  0.37304832  0.12874549  1
  Zn  Zn107  1  0.18397111  0.18843428  0.18600420  1
  Zn  Zn108  1  0.17753932  0.18647523  0.68539789  1
  Zn  Zn109  1  0.18912329  0.68704533  0.18804051  1
  Zn  Zn110  1  0.19317948  0.69082554  0.68224506  1
  Zn  Zn111  1  0.68548757  0.18613686  0.18970551  1
  Zn  Zn112  1  0.69167169  0.18465740  0.66298951  1
  Zn  Zn113  1  0.68338401  0.68432566  0.16874655  1
  Zn  Zn114  1  0.69675651  0.68931805  0.69186880  1
  Zn  Zn115  1  0.30857105  0.31836416  0.31463582  1
  Zn  Zn116  1  0.31499461  0.31283070  0.81210064  1
  Zn  Zn117  1  0.31261262  0.81504254  0.31395020  1
  Zn  Zn118  1  0.30837621  0.81305396  0.81130769  1
  Zn  Zn119  1  0.81791361  0.30509432  0.31533042  1
  Zn  Zn120  1  0.82428555  0.31687691  0.81305668  1
  Zn  Zn121  1  0.80888188  0.68998337  0.31277898  1
  Zn  Zn122  1  0.81041984  0.81227855  0.81022669  1
  Zn  Zn123  1  0.18157800  0.43891727  0.43823949  1
  Zn  Zn124  1  0.19263159  0.43879837  0.93921085  1
  Zn  Zn125  1  0.18883629  0.93863101  0.43828360  1
  Zn  Zn126  1  0.18526516  0.94050566  0.93103265  1
  Zn  Zn127  1  0.69495034  0.44736057  0.45761590  1
  Zn  Zn128  1  0.69067425  0.44029518  0.94284935  1
  Zn  Zn129  1  0.69239921  0.93273814  0.43815223  1
  Zn  Zn130  1  0.68749600  0.94235124  0.92959623  1
  Zn  Zn131  1  0.30914443  0.06379074  0.06057772  1
  Zn  Zn132  1  0.31298971  0.06599975  0.56104577  1
  Zn  Zn133  1  0.30909099  0.56037686  0.06212721  1
  Zn  Zn134  1  0.31373019  0.56771614  0.56785582  1
  Zn  Zn135  1  0.80970194  0.06036456  0.06004774  1
  Zn  Zn136  1  0.81455792  0.05894781  0.55999021  1
  Zn  Zn137  1  0.80316974  0.55413125  0.08977486  1
  Zn  Zn138  1  0.81977883  0.56410473  0.56766416  1
  Zn  Zn139  1  0.43710762  0.43686245  0.18961796  1
  Zn  Zn140  1  0.43882927  0.43847505  0.69046736  1
  Zn  Zn141  1  0.43815225  0.93721997  0.18530856  1
  Zn  Zn142  1  0.44063369  0.93792448  0.68527464  1
  Zn  Zn143  1  0.92569914  0.43193300  0.19535919  1
  Zn  Zn144  1  0.94388805  0.43921961  0.69004922  1
  Zn  Zn145  1  0.93446557  0.93276220  0.18532035  1
  Zn  Zn146  1  0.93884251  0.93622601  0.68323710  1
  Zn  Zn147  1  0.06055567  0.06410271  0.31358478  1
  Zn  Zn148  1  0.06067138  0.05966395  0.81071561  1
  Zn  Zn149  1  0.06011557  0.56568584  0.32472689  1
  Zn  Zn150  1  0.06620683  0.55931965  0.81784737  1
  Zn  Zn151  1  0.56277100  0.06766466  0.31354489  1
  Zn  Zn152  1  0.55687976  0.05231588  0.80276318  1
  Zn  Zn153  1  0.54937085  0.56062920  0.30686720  1
  Zn  Zn154  1  0.56769214  0.56319636  0.82451263  1
  Zn  Zn155  1  0.43349190  0.18964118  0.43519619  1
  Zn  Zn156  1  0.43682269  0.18832157  0.93610699  1
  Zn  Zn157  1  0.44499554  0.69096330  0.43352442  1
  Zn  Zn158  1  0.44169183  0.68747774  0.94099333  1
  Zn  Zn159  1  0.93403065  0.18566363  0.43306517  1
  Zn  Zn160  1  0.93722053  0.18705162  0.93682672  1
  Zn  Zn161  1  0.94533736  0.69292293  0.44419581  1
  Zn  Zn162  1  0.93786785  0.68700332  0.94192876  1
  Zn  Zn163  1  0.06261259  0.31382410  0.06808792  1
  Zn  Zn164  1  0.05798209  0.31362706  0.56714469  1
  Zn  Zn165  1  0.05392303  0.81113760  0.06784454  1
  Zn  Zn166  1  0.06665678  0.81245558  0.56039040  1
  Zn  Zn167  1  0.55818730  0.30514273  0.05790477  1
  Zn  Zn168  1  0.56854149  0.31947454  0.56362849  1
  Zn  Zn169  1  0.56078819  0.81328013  0.06333582  1
  Zn  Zn170  1  0.55813025  0.81537938  0.56298176  1
  O  O171  1  0.12442047  0.11554980  0.11642391  1
  O  O172  1  0.11121159  0.12129441  0.61840669  1
  O  O173  1  0.13291829  0.61811423  0.11417637  1
  O  O174  1  0.12936046  0.62615276  0.61163364  1
  O  O175  1  0.62047768  0.11909551  0.11607761  1
  O  O176  1  0.61399778  0.11579684  0.62419076  1
  O  O177  1  0.61712074  0.61107908  0.11293984  1
  O  O178  1  0.62583464  0.61137390  0.63975539  1
  O  O179  1  0.37861108  0.38440940  0.38341956  1
  O  O180  1  0.38087886  0.38200476  0.88052374  1
  O  O181  1  0.37879103  0.88547710  0.38044947  1
  O  O182  1  0.38126544  0.87978488  0.87742162  1
  O  O183  1  0.87386722  0.38107549  0.38318078  1
  O  O184  1  0.88870911  0.38211526  0.88482862  1
  O  O185  1  0.88708826  0.86658798  0.38962054  1
  O  O186  1  0.87777434  0.88181693  0.88245964  1
  O  O187  1  0.26052709  0.00310925  0.36815179  1
  O  O188  1  0.25577012  0.01007767  0.86496406  1
  O  O189  1  0.25784631  0.49542864  0.37024443  1
  O  O190  1  0.26091769  0.50415085  0.86809652  1
  O  O191  1  0.74488341  0.00787918  0.36687612  1
  O  O192  1  0.76520005  0.00174562  0.87006988  1
  O  O193  1  0.73578440  0.48947371  0.35961042  1
  O  O194  1  0.76583702  0.49470642  0.87008373  1
  O  O195  1  0.23949150  0.49742920  0.13351367  1
  O  O196  1  0.25226497  0.49316525  0.63477952  1
  O  O197  1  0.24250476  0.99518381  0.12956572  1
  O  O198  1  0.24841722  1.00786228  0.63675661  1
  O  O199  1  0.71790724  0.48809771  0.12939381  1
  O  O200  1  0.74727256  0.49491998  0.63373083  1
  O  O201  1  0.73671892  1.00077739  0.13111704  1
  O  O202  1  0.74334180  1.00004631  0.62837614  1
  O  O203  1  0.00401650  0.36729264  0.24625874  1
  O  O204  1  0.00476053  0.36932105  0.76089361  1
  O  O205  1  0.00436577  0.87113461  0.25865228  1
  O  O206  1  0.01747001  0.87846468  0.74982030  1
  O  O207  1  0.48822613  0.36031098  0.26158918  1
  O  O208  1  0.50946526  0.36745623  0.75435072  1
  O  O209  1  0.50343978  0.87051848  0.25332667  1
  O  O210  1  0.51294665  0.88288166  0.75763644  1
  O  O211  1  0.48723355  0.13629956  0.25069584  1
  O  O212  1  0.49304593  0.13046798  0.74139003  1
  O  O213  1  0.48536918  0.63492977  0.24938947  1
  O  O214  1  0.48967156  0.61940831  0.75432899  1
  O  O215  1  0.98956201  0.12935022  0.24887523  1
  O  O216  1  1.00227351  0.13310489  0.74084224  1
  O  O217  1  1.02633078  0.64093832  0.24185533  1
  O  O218  1  0.99117112  0.61924642  0.75600944  1
  O  O219  1  0.37221226  0.25407140  0.00941097  1
  O  O220  1  0.36603999  0.25799616  0.50410536  1
  O  O221  1  0.36756067  0.75692155  -0.00137615  1
  O  O222  1  0.37344390  0.75781764  0.50250819  1
  O  O223  1  0.86472724  0.25496779  -0.00589651  1
  O  O224  1  0.86903789  0.26528343  0.49048900  1
  O  O225  1  0.88504429  0.77029126  0.00294997  1
  O  O226  1  0.87000518  0.75246687  0.51071730  1
  O  O227  1  0.12846345  0.25424229  0.49193537  1
  O  O228  1  0.12522890  0.23615552  1.00623763  1
  O  O229  1  0.13759905  0.74329236  0.50235750  1
  O  O230  1  0.12660537  0.74499996  0.99603358  1
  O  O231  1  0.63666634  0.26177240  0.48684023  1
  O  O232  1  0.62922308  0.23552073  0.99557325  1
  O  O233  1  0.63608763  0.74763733  0.51081850  1
  O  O234  1  0.62246619  0.73699074  1.00462273  1
  O  O235  1  0.48773699  0.24775529  0.13432749  1
  O  O236  1  0.49960423  0.24575480  0.62916461  1
  O  O237  1  0.49287724  0.75771635  0.13832368  1
  O  O238  1  0.48521916  0.74852674  0.62169931  1
  O  O239  1  1.00650292  0.24318025  0.13937351  1
  O  O240  1  0.99937151  0.23700848  0.63086831  1
  O  O241  1  0.98305005  0.75779451  0.14069062  1
  O  O242  1  0.98832569  0.75177038  0.61996535  1
  O  O243  1  0.01005156  0.24535728  0.36439943  1
  O  O244  1  -0.00011210  0.25415055  0.86565358  1
  O  O245  1  0.01238640  0.76687039  0.37127194  1
  O  O246  1  0.01401060  0.75063038  0.87782252  1
  O  O247  1  0.50800288  0.25498394  0.37310180  1
  O  O248  1  0.49295579  0.26069755  0.86472826  1
  O  O249  1  0.51517954  0.74910382  0.36117787  1
  O  O250  1  0.50492024  0.76346754  0.87721072  1
  O  O251  1  0.24833197  0.14128765  0.49992328  1
  O  O252  1  0.24051652  0.12494679  0.98940072  1
  O  O253  1  0.24372462  0.63122960  0.50074202  1
  O  O254  1  0.24208221  0.63112575  0.99354851  1
  O  O255  1  0.75981801  0.13678937  0.49294509  1
  O  O256  1  0.74182661  0.13130308  0.99824295  1
  O  O257  1  0.75245940  0.63445934  0.50533801  1
  O  O258  1  0.73020791  0.60483418  1.00853626  1
  O  O259  1  0.26192056  0.37047728  0.00093490  1
  O  O260  1  0.25240265  0.36804553  0.50689066  1
  O  O261  1  0.25282815  0.87199808  0.00112353  1
  O  O262  1  0.26340826  0.87020544  0.49746974  1
  O  O263  1  0.75855422  0.36400109  -0.00196904  1
  O  O264  1  0.76550770  0.37334181  0.50799687  1
  O  O265  1  0.76003797  0.88335724  0.00008748  1
  O  O266  1  0.75904582  0.86441274  0.50271951  1
  O  O267  1  0.12745628  0.49718827  0.24851895  1
  O  O268  1  0.13903498  0.49783722  0.75097771  1
  O  O269  1  0.12742799  0.99258043  0.24408626  1
  O  O270  1  0.13227856  0.98895668  0.74902117  1
  O  O271  1  0.61517969  0.48881439  0.24686353  1
  O  O272  1  0.63670258  0.49466886  0.75090898  1
  O  O273  1  0.62526639  0.99882985  0.24093590  1
  O  O274  1  0.62850586  0.99232223  0.73714599  1
  O  O275  1  0.37180871  0.00878262  0.25458236  1
  O  O276  1  0.36764918  0.00470788  0.75271724  1
  O  O277  1  0.36665204  0.50571652  0.25837209  1
  O  O278  1  0.36721368  0.50633974  0.75675945  1
  O  O279  1  0.86410971  0.00408655  0.24631249  1
  O  O280  1  0.87454943  -0.00471285  0.76079136  1
  O  O281  1  0.86613213  0.52468508  0.18959899  1
  O  O282  1  0.87338755  0.50553169  0.75975019  1
  O  O283  1  0.12669837  0.36906260  0.36225538  1
  O  O284  1  0.11333975  0.37975876  0.88013320  1
  O  O285  1  0.12069819  0.87766752  0.36523355  1
  O  O286  1  0.12267874  0.86756702  0.86555863  1
  O  O287  1  0.62489642  0.37358303  0.36964192  1
  O  O288  1  0.61413591  0.38042377  0.87105716  1
  O  O289  1  0.62113143  0.88477319  0.36034653  1
  O  O290  1  0.61772387  0.87813747  0.86339640  1
  O  O291  1  0.37509401  0.13153713  0.13173012  1
  O  O292  1  0.38163313  0.13302178  0.62956987  1
  O  O293  1  0.36588465  0.62548743  0.13772153  1
  O  O294  1  0.37956392  0.63220493  0.63758447  1
  O  O295  1  0.87199427  0.12018442  0.13732519  1
  O  O296  1  0.88775931  0.12160341  0.62532200  1
  O  O297  1  0.88169636  0.64887093  0.09290169  1
  O  O298  1  0.87633166  0.63755917  0.63615232  1
  O  O299  1  0.26058973  0.25190712  0.12498886  1
  O  O300  1  0.25280240  0.25773697  0.61917872  1
  O  O301  1  0.25102570  0.75791228  0.11576184  1
  O  O302  1  0.26754238  0.74638807  0.61110697  1
  O  O303  1  0.74129672  0.25146023  0.11198949  1
  O  O304  1  0.74925325  0.26244322  0.61036540  1
  O  O305  1  0.76540209  0.75252955  0.12436336  1
  O  O306  1  0.75891622  0.75179012  0.61685644  1
  O  O307  1  0.23883845  0.25267794  0.38278382  1
  O  O308  1  0.25521113  0.23566843  0.87367738  1
  O  O309  1  0.25180363  0.75386598  0.38945215  1
  O  O310  1  0.24044487  0.74703750  0.88290219  1
  O  O311  1  0.74391374  0.24363808  0.38198960  1
  O  O312  1  0.74937413  0.25015726  0.87867223  1
  O  O313  1  0.73614329  0.74597855  0.39327688  1
  O  O314  1  0.74848172  0.74882768  0.87592391  1
  O  O315  1  0.00521478  0.11499903  0.00038872  1
  O  O316  1  -0.00534084  0.11895500  0.50707192  1
  O  O317  1  0.01535300  0.61632629  -0.00622229  1
  O  O318  1  0.00804026  0.61619227  0.50446900  1
  O  O319  1  0.50694809  0.11917132  -0.00140053  1
  O  O320  1  0.49384417  0.12623653  0.51015313  1
  O  O321  1  0.51577776  0.61975945  -0.00861316  1
  O  O322  1  0.49102071  0.61258758  0.50741391  1
  O  O323  1  0.49406771  0.38382862  0.49753533  1
  O  O324  1  0.48597031  0.36580329  0.98929202  1
  O  O325  1  0.48776859  0.87911432  0.49563666  1
  O  O326  1  0.49560040  0.88230049  0.99105409  1
  O  O327  1  0.98649818  0.37754877  0.50113594  1
  O  O328  1  0.99529802  0.37703596  0.99727847  1
  O  O329  1  0.99772938  0.88086420  0.49431267  1
  O  O330  1  0.99476694  0.88710643  0.99732087  1
  O  O331  1  0.49060085  0.49351132  0.38551476  1
  O  O332  1  0.48713746  0.48836937  0.86637519  1
  O  O333  1  0.48720423  1.00572601  0.37609057  1
  O  O334  1  0.49135689  0.99315259  0.87845150  1
  O  O335  1  1.00788605  0.49602524  0.39881348  1
  O  O336  1  0.99375192  0.49190682  0.88256888  1
  O  O337  1  1.00147997  0.99082770  0.38176130  1
  O  O338  1  0.99004455  0.99715960  0.88045651  1
  O  O339  1  0.00463144  0.00086272  0.11625878  1
  O  O340  1  0.00127258  0.01024073  0.61826277  1
  O  O341  1  0.01596938  0.49910386  0.11977669  1
  O  O342  1  0.00450128  0.49055233  0.60768445  1
  O  O343  1  0.50941556  0.00227454  0.11710289  1
  O  O344  1  0.50597837  0.01119957  0.62199484  1
  O  O345  1  0.51094584  0.49695311  0.13175706  1
  O  O346  1  0.50897072  0.49989125  0.62168713  1
  O  O347  1  0.24169435  0.38838926  0.24892494  1
  O  O348  1  0.25036808  0.38209674  0.74428067  1
  O  O349  1  0.24354602  0.88273340  0.24455248  1
  O  O350  1  0.23905691  0.88654863  0.75563229  1
  O  O351  1  0.74605556  0.36667818  0.24824329  1
  O  O352  1  0.75139840  0.38316485  0.74626764  1
  O  O353  1  0.73752224  0.89003280  0.24535932  1
  O  O354  1  0.73650053  0.87970960  0.74602108  1
  O  O355  1  0.25864417  0.12072133  0.24950753  1
  O  O356  1  0.25200709  0.12009669  0.75394176  1
  O  O357  1  0.25283866  0.61257895  0.25173736  1
  O  O358  1  0.25794076  0.61840782  0.75564535  1
  O  O359  1  0.75358439  0.11607324  0.25567758  1
  O  O360  1  0.73989940  0.13442399  0.75807117  1
  O  O361  1  0.71137443  0.65131323  0.27527918  1
  O  O362  1  0.76147196  0.61257987  0.75262995  1
  O  O363  1  0.36927197  0.12149001  0.36660887  1
  O  O364  1  0.36876602  0.11921129  0.86693291  1
  O  O365  1  0.37968783  0.61392778  0.36817789  1
  O  O366  1  0.37159732  0.61909537  0.87184540  1
  O  O367  1  0.86051597  0.12798330  0.36244389  1
  O  O368  1  0.87879786  0.11038586  0.87434893  1
  O  O369  1  0.91198758  0.66084164  0.34060301  1
  O  O370  1  0.87535966  0.61676228  0.87386810  1
  O  O371  1  0.12773020  0.38299539  0.13718897  1
  O  O372  1  0.13792862  0.37826350  0.62544793  1
  O  O373  1  0.12783685  0.88162428  0.13048941  1
  O  O374  1  0.12683717  0.87708811  0.63653946  1
  O  O375  1  0.61804136  0.37959490  0.11655345  1
  O  O376  1  0.63699514  0.38504093  0.63539950  1
  O  O377  1  0.62430049  0.88458872  0.13231797  1
  O  O378  1  0.62306959  0.88064554  0.63502705  1
  O  O379  1  0.11972993  0.25856858  0.25576722  1
  O  O380  1  0.10717876  0.25489393  0.74497350  1
  O  O381  1  0.13161161  0.76512776  0.25063669  1
  O  O382  1  0.13613019  0.76288550  0.75567918  1
  O  O383  1  0.61346487  0.24471040  0.26157638  1
  O  O384  1  0.62911537  0.24891010  0.75761134  1
  O  O385  1  0.61467482  0.76153609  0.24628558  1
  O  O386  1  0.62586301  0.76343167  0.74882404  1
  O  O387  1  0.37598469  0.24435295  0.24623748  1
  O  O388  1  0.38068184  0.24598523  0.74091931  1
  O  O389  1  0.37776204  0.74188058  0.25112908  1
  O  O390  1  0.36883569  0.74178324  0.74396798  1
  O  O391  1  0.88380145  0.23954711  0.25146506  1
  O  O392  1  0.89618478  0.25721836  0.74777254  1
  O  O393  1  0.87255474  0.75655121  0.23301422  1
  O  O394  1  0.87503273  0.74476634  0.73752848  1
  O  O395  1  0.37828973  0.49731377  0.49683533  1
  O  O396  1  0.37013682  0.49144486  0.99129125  1
  O  O397  1  0.37388902  0.99565243  0.49217334  1
  O  O398  1  0.37836672  0.99608581  0.99281151  1
  O  O399  1  0.88481586  0.49406393  0.50093579  1
  O  O400  1  0.88113577  0.49053904  0.99650193  1
  O  O401  1  0.88694401  0.98618734  0.50450246  1
  O  O402  1  0.88010016  0.99252914  0.99197366  1
  O  O403  1  0.11681950  0.00591456  0.00315257  1
  O  O404  1  0.11235103  0.00042686  0.50023903  1
  O  O405  1  0.12552359  0.50682982  0.00861547  1
  O  O406  1  0.12306710  0.51118249  0.50583462  1
  O  O407  1  0.62263153  0.00931701  0.00370165  1
  O  O408  1  0.62412663  -0.01014214  0.51389186  1
  O  O409  1  0.61254329  0.49841201  0.00295707  1
  O  O410  1  0.61449999  0.49613553  0.51625260  1
  O  O411  1  0.37346867  0.36833536  0.11784763  1
  O  O412  1  0.36559469  0.37172947  0.62161735  1
  O  O413  1  0.36621491  0.87723086  0.11554704  1
  O  O414  1  0.37774160  0.86980527  0.61777909  1
  O  O415  1  0.87134861  0.36794030  0.11207665  1
  O  O416  1  0.86753015  0.38088046  0.62211968  1
  O  O417  1  0.86990107  0.87236535  0.10893702  1
  O  O418  1  0.87575605  0.86313316  0.61804947  1
  O  O419  1  0.12733894  0.13559806  0.37801812  1
  O  O420  1  0.13236476  0.11761751  0.88306279  1
  O  O421  1  0.12178978  0.63145001  0.39650623  1
  O  O422  1  0.13319853  0.63223267  0.88041499  1
  O  O423  1  0.63694940  0.13406026  0.37459995  1
  O  O424  1  0.62311961  0.12273655  0.87649702  1
  O  O425  1  0.60548931  0.62309149  0.38673708  1
  O  O426  1  0.63380809  0.62638781  0.88848018  1
