# generated using pymatgen
data_V85Zn86O256
_symmetry_space_group_name_H-M   'P 1'
_cell_length_a   16.91091447
_cell_length_b   16.91412153
_cell_length_c   16.91269255
_cell_angle_alpha   90.03111122
_cell_angle_beta   89.97208809
_cell_angle_gamma   90.01534226
_symmetry_Int_Tables_number   1
_chemical_formula_structural   V85Zn86O256
_chemical_formula_sum   'V85 Zn86 O256'
_cell_volume   4837.59116639
_cell_formula_units_Z   1
loop_
 _symmetry_equiv_pos_site_id
 _symmetry_equiv_pos_as_xyz
  1  'x, y, z'
loop_
 _atom_site_type_symbol
 _atom_site_label
 _atom_site_symmetry_multiplicity
 _atom_site_fract_x
 _atom_site_fract_y
 _atom_site_fract_z
 _atom_site_occupancy
  V  V0  1  0.00257183  0.24864574  0.74650933  1
  V  V1  1  0.49838495  0.62414074  0.11798217  1
  V  V2  1  -0.00296195  0.49409244  0.00183217  1
  V  V3  1  0.24873958  0.75374411  0.00164826  1
  V  V4  1  -0.00263095  0.62599779  0.12355389  1
  V  V5  1  0.00383999  0.12406528  0.12326687  1
  V  V6  1  0.87172099  0.24708795  0.62597578  1
  V  V7  1  0.62222333  0.61685989  0.50183943  1
  V  V8  1  0.37786697  0.87798580  -0.01807311  1
  V  V9  1  0.12358450  0.74977611  0.37381683  1
  V  V10  1  0.37691147  0.25235690  0.12322121  1
  V  V11  1  0.00197891  0.10721746  0.62440640  1
  V  V12  1  0.12481172  0.87663071  0.74176022  1
  V  V13  1  0.38133971  0.37546940  -0.00085221  1
  V  V14  1  0.24449963  0.01042399  0.75346100  1
  V  V15  1  0.86815129  0.62690882  0.24574810  1
  V  V16  1  0.24887136  0.62052639  0.87146040  1
  V  V17  1  0.87134645  0.37408377  0.50291885  1
  V  V18  1  0.37882405  0.50303610  0.38014248  1
  V  V19  1  0.75866319  0.25703434  0.00071084  1
  V  V20  1  0.49941320  0.25669397  0.74420274  1
  V  V21  1  0.37741580  0.12241742  0.75657084  1
  V  V22  1  0.74596509  0.50739142  0.75181315  1
  V  V23  1  0.74725969  0.61911237  0.37111239  1
  V  V24  1  0.61860067  0.75057863  0.37660550  1
  V  V25  1  0.87330937  0.49994382  0.37207920  1
  V  V26  1  -0.00710978  0.75060241  0.24527460  1
  V  V27  1  0.12081647  0.62760958  0.50522109  1
  V  V28  1  0.50168050  0.62467632  0.62451460  1
  V  V29  1  0.75242506  0.12591542  0.87599445  1
  V  V30  1  0.37217719  0.12696429  0.25100870  1
  V  V31  1  0.11796850  0.10613555  0.50336458  1
  V  V32  1  0.62022727  0.49429349  0.62929248  1
  V  V33  1  -0.00503437  0.37261996  0.87774155  1
  V  V34  1  0.24763890  0.13208391  0.38244325  1
  V  V35  1  0.86988874  0.50131456  0.87763385  1
  V  V36  1  0.13378092  0.37834568  0.75063318  1
  V  V37  1  0.24895556  -0.00188061  0.24406967  1
  V  V38  1  0.38560721  0.87676834  0.49700990  1
  V  V39  1  0.63929708  0.24364829  0.37653818  1
  V  V40  1  0.75242113  0.74452587  0.50570235  1
  V  V41  1  0.62619849  0.25353317  0.87148364  1
  V  V42  1  0.37264152  0.62171934  0.74882552  1
  V  V43  1  0.63135935  0.38446588  0.25027694  1
  V  V44  1  0.50721556  0.01326728  0.49465324  1
  V  V45  1  0.24945588  0.50115352  0.24973583  1
  V  V46  1  0.88971773  0.74192786  0.62820257  1
  V  V47  1  0.37445975  -0.00290278  0.37521043  1
  V  V48  1  0.12801490  0.50338308  0.62953170  1
  V  V49  1  0.37490449  0.62570094  0.24745049  1
  V  V50  1  0.86317675  -0.00159223  0.38026712  1
  V  V51  1  0.62566601  0.76995096  0.87302511  1
  V  V52  1  -0.00223651  0.50493989  0.50630006  1
  V  V53  1  0.50408246  0.38136829  0.38257390  1
  V  V54  1  0.74588108  0.36999786  0.63115726  1
  V  V55  1  0.12431734  0.37181830  0.25166891  1
  V  V56  1  0.61881097  0.87592057  0.25770297  1
  V  V57  1  0.13188004  0.24600738  0.87472923  1
  V  V58  1  0.37671511  0.75271555  0.62553299  1
  V  V59  1  0.62383532  0.50119396  0.12017204  1
  V  V60  1  0.37690187  0.50138499  0.87874868  1
  V  V61  1  0.87552298  0.12440930  0.25047604  1
  V  V62  1  0.62565029  -0.00146851  0.12456485  1
  V  V63  1  0.12185329  0.74836424  0.86760401  1
  V  V64  1  0.87654825  -0.00206981  0.87611702  1
  V  V65  1  0.25144425  0.75259187  0.50046075  1
  V  V66  1  0.75110921  0.74390097  0.00267027  1
  V  V67  1  0.37219743  0.76139104  0.12607720  1
  V  V68  1  0.13525586  0.12193399  -0.00269870  1
  V  V69  1  0.88075364  0.87249747  0.50212691  1
  V  V70  1  0.75875242  0.38148756  0.12524995  1
  V  V71  1  0.87646148  0.86851666  0.00819652  1
  V  V72  1  0.36777740  0.37213186  0.50080235  1
  V  V73  1  0.50223469  0.25525035  0.25255139  1
  V  V74  1  0.11762100  0.25107728  0.38850795  1
  V  V75  1  0.25118300  0.37498728  0.12276214  1
  V  V76  1  0.50218064  0.12521075  0.12547966  1
  V  V77  1  0.50259416  0.76646484  0.75362212  1
  V  V78  1  0.62406349  0.62127255  -0.01285805  1
  V  V79  1  0.12844107  0.87312035  0.24016728  1
  V  V80  1  0.74920523  0.00292187  0.25176138  1
  V  V81  1  0.50611230  0.37986228  0.87499423  1
  V  V82  1  0.88914391  0.62477759  0.74881450  1
  V  V83  1  0.00037428  0.88286129  0.37333964  1
  V  V84  1  -0.00066067  0.86897576  0.87062329  1
  Zn  Zn85  1  0.00049721  0.24893748  0.25105363  1
  Zn  Zn86  1  0.24789361  0.37562682  0.62329582  1
  Zn  Zn87  1  0.75360724  0.86944307  0.12854480  1
  Zn  Zn88  1  0.49750192  0.75372844  0.25242050  1
  Zn  Zn89  1  0.62660041  0.12523190  0.00004730  1
  Zn  Zn90  1  0.24938921  0.62535503  0.37501256  1
  Zn  Zn91  1  0.36420675  0.24334800  0.61934188  1
  Zn  Zn92  1  0.12970352  -0.00454022  0.11923860  1
  Zn  Zn93  1  0.69397113  0.16835405  0.52511424  1
  Zn  Zn94  1  -0.00173549  0.37354506  0.37684946  1
  Zn  Zn95  1  0.50677034  0.13115958  0.62003992  1
  Zn  Zn96  1  0.25745499  0.24596386  -0.00740075  1
  Zn  Zn97  1  0.12408228  0.62419742  -0.00020764  1
  Zn  Zn98  1  0.87692530  0.11888199  0.75095280  1
  Zn  Zn99  1  0.63020050  0.00385616  0.63088623  1
  Zn  Zn100  1  0.74447792  0.87181412  0.63703418  1
  Zn  Zn101  1  0.87858265  0.25380439  0.12365821  1
  Zn  Zn102  1  0.00504306  -0.00352449  -0.00028740  1
  Zn  Zn103  1  0.73576919  -0.01942479  0.76083549  1
  Zn  Zn104  1  0.50410464  -0.01335034  -0.01434025  1
  Zn  Zn105  1  0.24749182  0.88352310  0.62154204  1
  Zn  Zn106  1  0.12419370  0.49940162  0.12435060  1
  Zn  Zn107  1  0.18759510  0.18892844  0.18778201  1
  Zn  Zn108  1  0.18940235  0.18902466  0.67896791  1
  Zn  Zn109  1  0.18620235  0.68705827  0.18486031  1
  Zn  Zn110  1  0.18765285  0.68911011  0.68625622  1
  Zn  Zn111  1  0.69065800  0.19012950  0.19034809  1
  Zn  Zn112  1  0.68372989  0.17995596  0.69657668  1
  Zn  Zn113  1  0.68505219  0.68743051  0.18526380  1
  Zn  Zn114  1  0.69004053  0.68965697  0.69481189  1
  Zn  Zn115  1  0.31059039  0.31325370  0.31572367  1
  Zn  Zn116  1  0.31611499  0.31053357  0.80852863  1
  Zn  Zn117  1  0.31148793  0.81309462  0.31323311  1
  Zn  Zn118  1  0.30760837  0.81178595  0.80881381  1
  Zn  Zn119  1  0.81478450  0.31408482  0.30797471  1
  Zn  Zn120  1  0.81329293  0.31519298  0.80943450  1
  Zn  Zn121  1  0.80649248  0.81167183  0.31484028  1
  Zn  Zn122  1  0.81231736  0.80473675  0.81729040  1
  Zn  Zn123  1  0.18695183  0.44193574  0.43568094  1
  Zn  Zn124  1  0.18660349  0.43720532  0.93765976  1
  Zn  Zn125  1  0.19112970  0.93602548  0.43203800  1
  Zn  Zn126  1  0.19281794  0.93681480  0.93108732  1
  Zn  Zn127  1  0.68958253  0.43557146  0.44164524  1
  Zn  Zn128  1  0.68848692  0.43853197  0.94042028  1
  Zn  Zn129  1  0.67623570  0.92099096  0.46444506  1
  Zn  Zn130  1  0.69248244  0.93837304  0.94380929  1
  Zn  Zn131  1  0.31523328  0.06004983  0.06128422  1
  Zn  Zn132  1  0.31076399  0.06496912  0.56839991  1
  Zn  Zn133  1  0.31202774  0.56400960  0.05944308  1
  Zn  Zn134  1  0.30993127  0.56152223  0.56143251  1
  Zn  Zn135  1  0.81360071  0.06153842  0.06183876  1
  Zn  Zn136  1  0.81558922  0.05107169  0.56988340  1
  Zn  Zn137  1  0.80994080  0.56248592  0.06129941  1
  Zn  Zn138  1  0.81028200  0.56085534  0.56638580  1
  Zn  Zn139  1  0.44096142  0.44068092  0.18862290  1
  Zn  Zn140  1  0.43701018  0.43927877  0.68961918  1
  Zn  Zn141  1  0.43994757  0.93956928  0.18720787  1
  Zn  Zn142  1  0.43564513  0.94734291  0.68057371  1
  Zn  Zn143  1  0.93902671  0.44045601  0.19121546  1
  Zn  Zn144  1  0.94043883  0.43793749  0.68896936  1
  Zn  Zn145  1  0.94014248  0.94078896  0.18609537  1
  Zn  Zn146  1  0.92960179  0.92923271  0.69262011  1
  Zn  Zn147  1  0.06155799  0.06258765  0.31272775  1
  Zn  Zn148  1  0.06308062  0.06022521  0.81357236  1
  Zn  Zn149  1  0.06039445  0.56189781  0.31552136  1
  Zn  Zn150  1  0.06220292  0.55987787  0.81508746  1
  Zn  Zn151  1  0.56208198  0.06393327  0.31570822  1
  Zn  Zn152  1  0.56043332  0.05914353  0.81471391  1
  Zn  Zn153  1  0.56018490  0.56394737  0.30740857  1
  Zn  Zn154  1  0.55825307  0.56295345  0.80797653  1
  Zn  Zn155  1  0.43712395  0.19272057  0.43252709  1
  Zn  Zn156  1  0.45137342  0.16418679  0.92375241  1
  Zn  Zn157  1  0.43837274  0.68461250  0.43951317  1
  Zn  Zn158  1  0.44028248  0.69295342  0.93665995  1
  Zn  Zn159  1  0.89893135  0.16397021  0.45872035  1
  Zn  Zn160  1  0.94133271  0.18640932  0.94028038  1
  Zn  Zn161  1  0.93871030  0.68762526  0.43418115  1
  Zn  Zn162  1  0.93517393  0.68428495  0.93515699  1
  Zn  Zn163  1  0.06363848  0.30964618  0.06203869  1
  Zn  Zn164  1  0.05969421  0.31391080  0.56368984  1
  Zn  Zn165  1  0.06118806  0.80833419  0.05959091  1
  Zn  Zn166  1  0.06094495  0.81276643  0.56219553  1
  Zn  Zn167  1  0.56639397  0.31257639  0.05956274  1
  Zn  Zn168  1  0.56160734  0.31371493  0.55812045  1
  Zn  Zn169  1  0.56078415  0.81114315  0.06303275  1
  Zn  Zn170  1  0.56283311  0.81471834  0.56387835  1
  O  O171  1  0.12006927  0.12439960  0.11748742  1
  O  O172  1  0.11748393  0.12462062  0.61069563  1
  O  O173  1  0.11031215  0.62155079  0.12509921  1
  O  O174  1  0.12772279  0.62054080  0.61410322  1
  O  O175  1  0.62068481  0.11414611  0.13193114  1
  O  O176  1  0.62894333  0.12704009  0.61214562  1
  O  O177  1  0.61744822  0.61896991  0.11831939  1
  O  O178  1  0.61979473  0.62043814  0.62071205  1
  O  O179  1  0.38196448  0.38172322  0.38170226  1
  O  O180  1  0.38038533  0.38212430  0.88069786  1
  O  O181  1  0.36883003  0.88634340  0.38198415  1
  O  O182  1  0.37675590  0.86877316  0.88315745  1
  O  O183  1  0.87287601  0.38325485  0.38275639  1
  O  O184  1  0.88812439  0.38328693  0.86828777  1
  O  O185  1  0.88185400  0.87846823  0.37778794  1
  O  O186  1  0.88270704  0.87621749  0.88333497  1
  O  O187  1  0.25661496  0.01060260  0.36692018  1
  O  O188  1  0.25545629  -0.00691408  0.85324868  1
  O  O189  1  0.25807363  0.50303199  0.36565252  1
  O  O190  1  0.25544255  0.51349517  0.87932680  1
  O  O191  1  0.76035381  -0.00821934  0.36845554  1
  O  O192  1  0.75731352  0.00934744  0.87911766  1
  O  O193  1  0.75688583  0.51103219  0.38054185  1
  O  O194  1  0.76182133  0.48990045  0.86703928  1
  O  O195  1  0.24907867  0.49374586  0.13169079  1
  O  O196  1  0.23341274  0.49561307  0.61858953  1
  O  O197  1  0.24942363  1.00437570  0.14017497  1
  O  O198  1  0.25739617  0.99575298  0.64349254  1
  O  O199  1  0.73736250  0.49382313  0.12157776  1
  O  O200  1  0.73964870  0.49425538  0.63226352  1
  O  O201  1  0.74235042  0.99647616  0.13256418  1
  O  O202  1  0.75192591  0.99318020  0.63861888  1
  O  O203  1  0.01307470  0.37539148  0.25279370  1
  O  O204  1  0.00745748  0.36698351  0.75669294  1
  O  O205  1  0.00451624  0.86740252  0.25360370  1
  O  O206  1  0.00693908  0.87687766  0.76288469  1
  O  O207  1  0.50697627  0.37119255  0.25860633  1
  O  O208  1  0.49339440  0.36604852  0.76050269  1
  O  O209  1  0.51400498  0.87545286  0.25136949  1
  O  O210  1  0.49345593  0.86506855  0.74070788  1
  O  O211  1  0.49431673  0.13495663  0.24446714  1
  O  O212  1  0.48912723  0.13891473  0.74827862  1
  O  O213  1  0.49251507  0.62832125  0.23771278  1
  O  O214  1  0.49372775  0.63430902  0.73905441  1
  O  O215  1  0.99639491  0.12401504  0.23924982  1
  O  O216  1  1.00124164  0.13264593  0.74361502  1
  O  O217  1  0.99190404  0.63114605  0.24565333  1
  O  O218  1  0.98815376  0.61946839  0.74921809  1
  O  O219  1  0.37501103  0.25905591  0.00722276  1
  O  O220  1  0.38011459  0.26827797  0.49904981  1
  O  O221  1  0.36943745  0.75824148  0.00576747  1
  O  O222  1  0.37008473  0.75727744  0.50130950  1
  O  O223  1  0.86380212  0.24808514  0.00190649  1
  O  O224  1  0.88530679  0.26239737  0.51725705  1
  O  O225  1  0.86336844  0.75431672  -0.00737350  1
  O  O226  1  0.87008886  0.74604533  0.50806245  1
  O  O227  1  0.12122280  0.24659775  0.49101699  1
  O  O228  1  0.12836509  0.24272842  0.99095965  1
  O  O229  1  0.13133526  0.74523331  0.49703546  1
  O  O230  1  0.13301724  0.74797385  0.99023004  1
  O  O231  1  0.62632618  0.25351660  0.48287329  1
  O  O232  1  0.63779677  0.25189007  0.98982886  1
  O  O233  1  0.63190793  0.73671779  0.49490589  1
  O  O234  1  0.62633363  0.74465683  0.98947189  1
  O  O235  1  0.49861022  0.25279891  0.13963257  1
  O  O236  1  0.50063394  0.25303641  0.63321863  1
  O  O237  1  0.49131014  0.74268828  0.12881849  1
  O  O238  1  0.49741019  0.74520509  0.62998576  1
  O  O239  1  0.99830765  0.23975162  0.12734136  1
  O  O240  1  0.99598854  0.24642080  0.63585000  1
  O  O241  1  1.00127590  0.74211615  0.13641397  1
  O  O242  1  0.98909278  0.74616970  0.62284904  1
  O  O243  1  0.01102078  0.25316773  0.37167377  1
  O  O244  1  0.00527474  0.25584932  0.86755993  1
  O  O245  1  0.00378824  0.75633146  0.36247976  1
  O  O246  1  0.01081945  0.75438731  0.87932763  1
  O  O247  1  0.50676852  0.26024648  0.36569797  1
  O  O248  1  0.50919529  0.25746577  0.86994842  1
  O  O249  1  0.51420361  0.74137360  0.37312000  1
  O  O250  1  0.51381089  0.74825728  0.86676929  1
  O  O251  1  0.23369521  0.11714559  0.49336222  1
  O  O252  1  0.24017889  0.12756425  1.00510371  1
  O  O253  1  0.24299786  0.63440101  0.49757441  1
  O  O254  1  0.24863491  0.63529515  0.99153771  1
  O  O255  1  0.78985605  0.12607318  0.49017691  1
  O  O256  1  0.75040372  0.13368088  0.99280551  1
  O  O257  1  0.74373486  0.62792141  0.49418175  1
  O  O258  1  0.73798589  0.63161957  1.00294022  1
  O  O259  1  0.26082304  0.37518225  0.00566420  1
  O  O260  1  0.26544864  0.37930618  0.49356464  1
  O  O261  1  0.25991511  0.86173723  -0.00614846  1
  O  O262  1  0.25648898  0.86874590  0.50068792  1
  O  O263  1  0.74792693  0.36926296  0.01169043  1
  O  O264  1  0.76343252  0.38188933  0.51342376  1
  O  O265  1  0.75964815  0.86584055  0.00334787  1
  O  O266  1  0.76950378  0.85635599  0.48947673  1
  O  O267  1  0.13133349  0.49200712  0.25193496  1
  O  O268  1  0.11699203  0.49228065  0.74080827  1
  O  O269  1  0.13226454  0.99105800  0.25081037  1
  O  O270  1  0.13515749  0.99337361  0.75283821  1
  O  O271  1  0.62271485  0.49076653  0.24254486  1
  O  O272  1  0.63305219  0.50323114  0.74245403  1
  O  O273  1  0.63094597  0.99519907  0.24956336  1
  O  O274  1  0.62488548  1.00719883  0.74595121  1
  O  O275  1  0.36906306  0.00471241  0.25621005  1
  O  O276  1  0.37306335  0.01663289  0.75027223  1
  O  O277  1  0.36968098  0.50507004  0.25752353  1
  O  O278  1  0.37804576  0.51353518  0.75948987  1
  O  O279  1  0.86644024  0.00170910  0.25421838  1
  O  O280  1  0.87231612  -0.00274936  0.76749405  1
  O  O281  1  0.88038408  0.50933948  0.26510705  1
  O  O282  1  0.87109748  0.50752654  0.75428989  1
  O  O283  1  0.12585279  0.36720901  0.37067190  1
  O  O284  1  0.11421281  0.37111715  0.86926925  1
  O  O285  1  0.11715852  0.86913346  0.36689391  1
  O  O286  1  0.11869818  0.86688753  0.86770545  1
  O  O287  1  0.62089413  0.37414235  0.36911518  1
  O  O288  1  0.61279071  0.37246730  0.88077409  1
  O  O289  1  0.63299319  0.86127209  0.37140258  1
  O  O290  1  0.62165220  0.86839470  0.88258408  1
  O  O291  1  0.38212250  0.13031308  0.13176017  1
  O  O292  1  0.38089567  0.12845353  0.63481846  1
  O  O293  1  0.38152886  0.63066163  0.12728860  1
  O  O294  1  0.38087403  0.62832463  0.62984016  1
  O  O295  1  0.88382630  0.12255400  0.13406377  1
  O  O296  1  0.88601840  0.13283998  0.63013572  1
  O  O297  1  0.88334052  0.61728409  0.13658329  1
  O  O298  1  0.87224894  0.62717534  0.63787033  1
  O  O299  1  0.25943927  0.25997365  0.12630950  1
  O  O300  1  0.25225784  0.26295533  0.62641152  1
  O  O301  1  0.25900578  0.74314278  0.11435369  1
  O  O302  1  0.25709774  0.75248813  0.61317185  1
  O  O303  1  0.75057633  0.26021996  0.11801000  1
  O  O304  1  0.75731266  0.25532465  0.63051633  1
  O  O305  1  0.74077136  0.75291383  0.10918079  1
  O  O306  1  0.75381730  0.74630268  0.61425247  1
  O  O307  1  0.24099877  0.23734386  0.37146558  1
  O  O308  1  0.23465480  0.25961877  0.87425242  1
  O  O309  1  0.24376475  0.74914544  0.38558419  1
  O  O310  1  0.24393721  0.73969058  0.88016058  1
  O  O311  1  0.73852297  0.25573263  0.37069117  1
  O  O312  1  0.74705786  0.25074981  0.88070737  1
  O  O313  1  0.74294381  0.73554285  0.38358774  1
  O  O314  1  0.73254655  0.74980556  0.88647910  1
  O  O315  1  0.01111367  0.12298464  0.00847271  1
  O  O316  1  0.00853158  0.12508931  0.50949994  1
  O  O317  1  -0.00116978  0.61895447  0.00914890  1
  O  O318  1  0.00875829  0.61887145  0.49566251  1
  O  O319  1  0.50850519  0.15010628  0.02491105  1
  O  O320  1  0.49126380  0.11628227  0.49792805  1
  O  O321  1  0.50636531  0.63092398  0.01102226  1
  O  O322  1  0.50689684  0.62831793  0.51468039  1
  O  O323  1  0.49258395  0.37792088  0.48689869  1
  O  O324  1  0.48880558  0.37161754  0.99275603  1
  O  O325  1  0.48917215  0.88570407  0.49611663  1
  O  O326  1  0.48378525  0.87265302  1.00160862  1
  O  O327  1  0.98824996  0.38503023  0.50003897  1
  O  O328  1  1.00256670  0.38195492  0.99234202  1
  O  O329  1  0.98991279  0.86358478  0.48750169  1
  O  O330  1  0.99439306  0.87274713  0.99039387  1
  O  O331  1  0.49168631  0.49326749  0.36816944  1
  O  O332  1  0.49073224  0.49107701  0.86992782  1
  O  O333  1  0.48232045  1.00865540  0.37898218  1
  O  O334  1  0.49093763  1.05576575  0.89969801  1
  O  O335  1  0.99134418  0.49830895  0.38684287  1
  O  O336  1  0.99245640  0.49236002  0.88200269  1
  O  O337  1  0.99114539  0.98572576  0.36611295  1
  O  O338  1  0.99366857  0.99009540  0.87899445  1
  O  O339  1  0.00650562  0.00955877  0.12110358  1
  O  O340  1  -0.00854033  0.00846637  0.63320626  1
  O  O341  1  -0.00003831  0.50556831  0.11765972  1
  O  O342  1  0.00813113  0.49808978  0.61301571  1
  O  O343  1  0.50653164  0.01076233  0.12301235  1
  O  O344  1  0.50537675  0.00429404  0.60464716  1
  O  O345  1  0.51206984  0.50855991  0.12760173  1
  O  O346  1  0.51202873  0.50805912  0.63234017  1
  O  O347  1  0.24241565  0.38057865  0.24591120  1
  O  O348  1  0.23629784  0.37852698  0.75454081  1
  O  O349  1  0.23911977  0.88376694  0.25705775  1
  O  O350  1  0.24060198  0.87990576  0.74541675  1
  O  O351  1  0.74081907  0.37376259  0.24060081  1
  O  O352  1  0.75570036  0.38622094  0.73682583  1
  O  O353  1  0.74091100  0.88350928  0.24802393  1
  O  O354  1  0.74853449  0.86586266  0.75100651  1
  O  O355  1  0.25358740  0.11929286  0.25818070  1
  O  O356  1  0.25557211  0.11672063  0.74495822  1
  O  O357  1  0.25625166  0.61886198  0.25024511  1
  O  O358  1  0.26075465  0.63178399  0.75744718  1
  O  O359  1  0.75894353  0.11185497  0.24584388  1
  O  O360  1  0.75873567  0.13041973  0.76887827  1
  O  O361  1  0.75733678  0.62900538  0.25673614  1
  O  O362  1  0.75832642  0.61114757  0.74802780  1
  O  O363  1  0.36430009  0.12306116  0.37092355  1
  O  O364  1  0.36105423  0.14646159  0.85310166  1
  O  O365  1  0.37529935  0.61895412  0.36793099  1
  O  O366  1  0.37136081  0.62054310  0.86990139  1
  O  O367  1  0.88856298  0.10937325  0.35820685  1
  O  O368  1  0.87319582  0.11485561  0.87832189  1
  O  O369  1  0.86696157  0.61959721  0.36816098  1
  O  O370  1  0.87743368  0.61383324  0.86208036  1
  O  O371  1  0.13254443  0.37515231  0.13302918  1
  O  O372  1  0.12158761  0.38422611  0.63404289  1
  O  O373  1  0.12059431  0.87381747  0.13626287  1
  O  O374  1  0.12273373  0.87056671  0.63795744  1
  O  O375  1  0.62943766  0.38302261  0.13129945  1
  O  O376  1  0.63279063  0.38344900  0.61790547  1
  O  O377  1  0.62313141  0.88615210  0.13335111  1
  O  O378  1  0.64183165  0.89202063  0.57902254  1
  O  O379  1  0.12596102  0.25830834  0.25966555  1
  O  O380  1  0.11816908  0.25563693  0.75549196  1
  O  O381  1  0.11868879  0.75517960  0.25407948  1
  O  O382  1  0.13074022  0.75784826  0.76023554  1
  O  O383  1  0.62009199  0.26263184  0.25613498  1
  O  O384  1  0.61824719  0.25042245  0.76347138  1
  O  O385  1  0.62627318  0.75765017  0.25893146  1
  O  O386  1  0.61859698  0.74758270  0.76482058  1
  O  O387  1  0.38303703  0.24870925  0.24696766  1
  O  O388  1  0.38375735  0.24797065  0.74189552  1
  O  O389  1  0.37365706  0.74412994  0.24388809  1
  O  O390  1  0.38214090  0.74157819  0.74619642  1
  O  O391  1  0.87770552  0.23871300  0.24769654  1
  O  O392  1  0.88458106  0.25046685  0.74105492  1
  O  O393  1  0.88071050  0.74023759  0.25532267  1
  O  O394  1  0.87167204  0.73205880  0.74484736  1
  O  O395  1  0.37256313  0.49616953  0.48588794  1
  O  O396  1  0.37323837  0.49480160  0.98702172  1
  O  O397  1  0.37808741  0.99495081  0.49271844  1
  O  O398  1  0.37183577  0.97987324  1.00369551  1
  O  O399  1  0.87996276  0.49775405  0.49429351  1
  O  O400  1  0.88433058  0.50604773  0.98987968  1
  O  O401  1  0.87822004  0.98414023  0.49135476  1
  O  O402  1  0.87610017  0.98875882  0.99173230  1
  O  O403  1  0.12822406  0.00574727  -0.00106639  1
  O  O404  1  0.11974970  0.00748699  0.49230178  1
  O  O405  1  0.11170342  0.50281788  0.00026566  1
  O  O406  1  0.11717255  0.50815591  0.50339709  1
  O  O407  1  0.62271009  0.00341047  0.01090207  1
  O  O408  1  0.60557943  0.01193069  0.47232048  1
  O  O409  1  0.62547440  0.50897041  0.00704949  1
  O  O410  1  0.62891212  0.51091276  0.50874389  1
  O  O411  1  0.37278451  0.37512970  0.11786076  1
  O  O412  1  0.37600619  0.38646099  0.60679186  1
  O  O413  1  0.37677068  0.86327036  0.12679174  1
  O  O414  1  0.37507300  0.86871557  0.61410491  1
  O  O415  1  0.86282922  0.37684465  0.13340306  1
  O  O416  1  0.86926779  0.37012111  0.62158442  1
  O  O417  1  0.87788265  0.87642354  0.11204516  1
  O  O418  1  0.87449002  0.86104799  0.61683142  1
  O  O419  1  0.12623319  0.13041858  0.38553160  1
  O  O420  1  0.11852723  0.13469330  0.88405643  1
  O  O421  1  0.12546619  0.63173411  0.38516907  1
  O  O422  1  0.13178916  0.63060506  0.87400064  1
  O  O423  1  0.62601629  0.14482252  0.36483083  1
  O  O424  1  0.63745148  0.13817537  0.87972673  1
  O  O425  1  0.62998886  0.62482532  0.38119791  1
  O  O426  1  0.61801803  0.62440691  0.88566835  1
