# generated using pymatgen
data_V85Zn86O256
_symmetry_space_group_name_H-M   'P 1'
_cell_length_a   16.95158281
_cell_length_b   16.94148342
_cell_length_c   16.94231004
_cell_angle_alpha   89.96574872
_cell_angle_beta   90.05710756
_cell_angle_gamma   90.05621342
_symmetry_Int_Tables_number   1
_chemical_formula_structural   V85Zn86O256
_chemical_formula_sum   'V85 Zn86 O256'
_cell_volume   4865.57099208
_cell_formula_units_Z   1
loop_
 _symmetry_equiv_pos_site_id
 _symmetry_equiv_pos_as_xyz
  1  'x, y, z'
loop_
 _atom_site_type_symbol
 _atom_site_label
 _atom_site_symmetry_multiplicity
 _atom_site_fract_x
 _atom_site_fract_y
 _atom_site_fract_z
 _atom_site_occupancy
  V  V0  1  0.25506056  0.24744875  0.00275675  1
  V  V1  1  0.50108504  0.49611889  0.00422508  1
  V  V2  1  0.87273463  0.50449434  0.85818353  1
  V  V3  1  0.86869042  0.74803773  0.61391234  1
  V  V4  1  0.49588023  0.37274836  0.88276059  1
  V  V5  1  0.62631589  0.24963263  0.87468652  1
  V  V6  1  0.01447542  0.37133490  0.37176757  1
  V  V7  1  0.24694087  0.00143845  0.74215099  1
  V  V8  1  0.12426680  -0.00224792  0.12019949  1
  V  V9  1  -0.00755298  0.88018102  0.87045328  1
  V  V10  1  0.51646538  0.74997176  0.75690249  1
  V  V11  1  -0.00880534  0.74622373  0.74818136  1
  V  V12  1  0.01920103  0.25304867  0.24938374  1
  V  V13  1  0.37723875  0.25025896  0.62084568  1
  V  V14  1  0.37714519  -0.00776312  0.88617605  1
  V  V15  1  0.23759934  0.13070303  0.37537354  1
  V  V16  1  0.45974066  0.56963090  0.57126740  1
  V  V17  1  0.25492658  0.61325780  0.37474374  1
  V  V18  1  0.75281230  0.37523457  0.62703241  1
  V  V19  1  0.49407066  0.37442864  0.39313915  1
  V  V20  1  0.37658480  0.61319007  0.25504569  1
  V  V21  1  0.62003801  0.35300925  0.26349405  1
  V  V22  1  -0.00045133  0.74705206  0.24757117  1
  V  V23  1  0.49915609  0.87709255  0.37486282  1
  V  V24  1  0.62863512  0.75498338  0.38489356  1
  V  V25  1  0.87898905  0.00607694  0.37520393  1
  V  V26  1  0.50070134  0.11870833  0.12601659  1
  V  V27  1  0.70150858  -0.05315217  0.79420653  1
  V  V28  1  0.75213975  0.63176847  0.37714651  1
  V  V29  1  0.50101482  0.25064472  0.75058665  1
  V  V30  1  0.36764794  0.49538920  0.86670717  1
  V  V31  1  0.37740111  0.24929482  0.12666254  1
  V  V32  1  -0.00175668  0.61863585  0.11155161  1
  V  V33  1  0.62665062  0.87339900  0.24949045  1
  V  V34  1  0.62297676  0.11939670  0.00011592  1
  V  V35  1  0.12335132  0.74969000  0.87468502  1
  V  V36  1  0.75131269  0.00171561  0.24757394  1
  V  V37  1  0.37421737  0.75801007  0.12816833  1
  V  V38  1  -0.00783094  0.62304852  0.62712569  1
  V  V39  1  0.62974012  0.38270934  0.75261537  1
  V  V40  1  -0.00028511  0.24910189  0.74967230  1
  V  V41  1  0.37325130  0.00268004  0.37647379  1
  V  V42  1  0.75567091  0.12256698  0.86808028  1
  V  V43  1  0.87353587  0.12911630  0.25224667  1
  V  V44  1  0.62920170  -0.00058520  0.62665734  1
  V  V45  1  0.37529318  0.12266265  0.75130879  1
  V  V46  1  0.74304092  0.49926440  0.25328479  1
  V  V47  1  0.87669459  0.25100602  0.12456283  1
  V  V48  1  0.12578216  0.37989721  0.75318546  1
  V  V49  1  0.49844920  0.00432767  0.50548030  1
  V  V50  1  0.37315063  0.87472434  0.50258286  1
  V  V51  1  0.24792922  0.62113347  0.86484276  1
  V  V52  1  0.63288870  0.50351057  0.62488726  1
  V  V53  1  0.74831602  0.24204482  0.49055229  1
  V  V54  1  0.24006366  0.24894876  0.49679637  1
  V  V55  1  0.74584570  0.62021902  0.86234077  1
  V  V56  1  0.25012072  0.00421957  0.24977423  1
  V  V57  1  0.87452435  0.11078769  0.74954467  1
  V  V58  1  0.12317196  0.12555556  -0.00218313  1
  V  V59  1  0.12371855  0.62703597  0.49799224  1
  V  V60  1  -0.00219390  0.12419036  0.12224397  1
  V  V61  1  0.01312870  0.12128150  0.62166397  1
  V  V62  1  0.63034119  0.62402325  0.50286892  1
  V  V63  1  0.87450285  0.24588022  0.62495142  1
  V  V64  1  0.37938035  0.75371039  0.63116682  1
  V  V65  1  0.24959711  0.37584320  0.63135906  1
  V  V66  1  -0.00212450  0.37852325  0.87895706  1
  V  V67  1  0.25662109  0.75660809  -0.00253341  1
  V  V68  1  0.12136887  0.87985490  0.74108151  1
  V  V69  1  0.87158608  0.75208937  0.12386936  1
  V  V70  1  0.38026903  0.13138209  0.25637195  1
  V  V71  1  0.62575233  0.62301456  0.00116936  1
  V  V72  1  -0.00455211  -0.00142740  -0.00502711  1
  V  V73  1  0.87501959  0.38662835  0.00130670  1
  V  V74  1  0.74713637  0.37444586  0.12774382  1
  V  V75  1  0.87628551  0.49741552  0.37531354  1
  V  V76  1  0.75208421  0.25004024  -0.00116631  1
  V  V77  1  0.00237461  0.87382878  0.37471571  1
  V  V78  1  0.12925825  0.87055283  0.24401814  1
  V  V79  1  0.74578521  0.74530786  -0.00480365  1
  V  V80  1  0.12532183  0.50262322  0.62978377  1
  V  V81  1  0.86722129  0.88069642  -0.00752462  1
  V  V82  1  0.74554120  0.87537766  0.60716670  1
  V  V83  1  0.32152451  0.42131669  0.06083910  1
  V  V84  1  0.01431505  0.00399054  0.50116625  1
  Zn  Zn85  1  0.37686701  0.39338705  0.50605288  1
  Zn  Zn86  1  0.24477931  0.87690783  0.62179246  1
  Zn  Zn87  1  0.12106111  0.61554959  -0.00376817  1
  Zn  Zn88  1  0.38012075  0.62520577  0.75039801  1
  Zn  Zn89  1  0.87639616  0.37250186  0.49755017  1
  Zn  Zn90  1  0.62164324  0.49521401  0.12946951  1
  Zn  Zn91  1  0.49593339  0.86928296  0.87916992  1
  Zn  Zn92  1  0.12621515  0.25130555  0.87614037  1
  Zn  Zn93  1  0.50097291  0.74852064  0.25092637  1
  Zn  Zn94  1  0.87266653  0.87560276  0.49396288  1
  Zn  Zn95  1  0.25073211  0.75063549  0.50007668  1
  Zn  Zn96  1  0.50433492  0.12650013  0.62527250  1
  Zn  Zn97  1  0.49975400  0.62365382  0.12763507  1
  Zn  Zn98  1  0.74811342  0.87351498  0.12408877  1
  Zn  Zn99  1  0.12820355  0.48148509  0.13060637  1
  Zn  Zn100  1  0.12913597  0.74579912  0.37253008  1
  Zn  Zn101  1  0.00013053  0.49742224  0.49775036  1
  Zn  Zn102  1  0.24881861  0.12412912  0.87466811  1
  Zn  Zn103  1  0.25434610  0.87890096  0.11437260  1
  Zn  Zn104  1  0.61799803  -0.00471729  0.12418834  1
  Zn  Zn105  1  0.62266682  0.13260060  0.48827530  1
  Zn  Zn106  1  0.87306969  0.62480877  0.24867896  1
  Zn  Zn107  1  0.19621362  0.31659312  0.19287406  1
  Zn  Zn108  1  0.18931825  0.19219597  0.68991252  1
  Zn  Zn109  1  0.17309947  0.65319960  0.20043407  1
  Zn  Zn110  1  0.18693012  0.69332718  0.68682562  1
  Zn  Zn111  1  0.69042133  0.18431938  0.18717301  1
  Zn  Zn112  1  0.68692121  0.18570653  0.68412163  1
  Zn  Zn113  1  0.68505296  0.68601140  0.18863478  1
  Zn  Zn114  1  0.68844065  0.69086357  0.68306092  1
  Zn  Zn115  1  0.31964708  0.32021407  0.31823832  1
  Zn  Zn116  1  0.31213914  0.30914102  0.81497359  1
  Zn  Zn117  1  0.30919616  0.80697144  0.31360397  1
  Zn  Zn118  1  0.31075079  0.81534263  0.81004993  1
  Zn  Zn119  1  0.81656705  0.31475155  0.31200817  1
  Zn  Zn120  1  0.81358186  0.31057337  0.80967108  1
  Zn  Zn121  1  0.81290719  0.81480571  0.31313442  1
  Zn  Zn122  1  0.81054419  0.80323504  0.80839117  1
  Zn  Zn123  1  0.18923365  0.43832527  0.44348618  1
  Zn  Zn124  1  0.17855801  0.44409104  0.94201089  1
  Zn  Zn125  1  0.18833984  0.93685643  0.43351631  1
  Zn  Zn126  1  0.18700700  0.93796723  0.92784180  1
  Zn  Zn127  1  0.68679676  0.43739236  0.44119203  1
  Zn  Zn128  1  0.68870578  0.44001594  0.93767535  1
  Zn  Zn129  1  0.67795656  0.96969089  0.42362295  1
  Zn  Zn130  1  0.64782245  0.91230765  0.96370497  1
  Zn  Zn131  1  0.31016465  0.06653710  0.06570957  1
  Zn  Zn132  1  0.30952087  0.06695499  0.56360948  1
  Zn  Zn133  1  0.31154920  0.58825612  0.05897900  1
  Zn  Zn134  1  0.29536550  0.56729703  0.57058191  1
  Zn  Zn135  1  0.80863373  0.06130695  0.06113413  1
  Zn  Zn136  1  0.81636981  0.06067688  0.56133301  1
  Zn  Zn137  1  0.81173162  0.56196895  0.06454818  1
  Zn  Zn138  1  0.81163676  0.56076273  0.56049018  1
  Zn  Zn139  1  0.43769582  0.43007625  0.20074995  1
  Zn  Zn140  1  0.43887271  0.43172762  0.69452781  1
  Zn  Zn141  1  0.43794427  0.93901607  0.18815892  1
  Zn  Zn142  1  0.44108876  0.93363970  0.69356274  1
  Zn  Zn143  1  0.93776874  0.43740896  0.19230137  1
  Zn  Zn144  1  0.93880979  0.43552644  0.68703475  1
  Zn  Zn145  1  0.93703753  0.93537889  0.18446630  1
  Zn  Zn146  1  0.93453970  0.93496128  0.67933365  1
  Zn  Zn147  1  0.06206578  0.06299789  0.30767167  1
  Zn  Zn148  1  0.06072471  0.06177850  0.81062872  1
  Zn  Zn149  1  0.06677493  0.55569695  0.30672282  1
  Zn  Zn150  1  0.05742422  0.56230652  0.81308428  1
  Zn  Zn151  1  0.56432406  0.06793435  0.31370241  1
  Zn  Zn152  1  0.55645536  0.06417348  0.81680524  1
  Zn  Zn153  1  0.55944786  0.56062639  0.31823928  1
  Zn  Zn154  1  0.55935210  0.56476589  0.81308366  1
  Zn  Zn155  1  0.44092562  0.19491957  0.43591267  1
  Zn  Zn156  1  0.43808723  0.18202503  0.93946057  1
  Zn  Zn157  1  0.43660805  0.69431655  0.43315940  1
  Zn  Zn158  1  0.43755570  0.68548931  0.93544027  1
  Zn  Zn159  1  0.94279212  0.18959427  0.43832748  1
  Zn  Zn160  1  0.93560415  0.19092678  0.93504342  1
  Zn  Zn161  1  0.93955333  0.68592289  0.43713037  1
  Zn  Zn162  1  0.92943397  0.68959750  0.93319282  1
  Zn  Zn163  1  0.06188757  0.31281212  0.05955222  1
  Zn  Zn164  1  0.06035879  0.31368455  0.56170256  1
  Zn  Zn165  1  0.06028485  0.80908915  0.05889223  1
  Zn  Zn166  1  0.05770062  0.81088491  0.56013385  1
  Zn  Zn167  1  0.56277277  0.30696530  0.06844156  1
  Zn  Zn168  1  0.56693416  0.31224743  0.56118654  1
  Zn  Zn169  1  0.55558073  0.80752888  0.06197362  1
  Zn  Zn170  1  0.56077549  0.81417405  0.56823360  1
  O  O171  1  0.11363842  0.11464319  0.10808716  1
  O  O172  1  0.11164739  0.12971679  0.63348273  1
  O  O173  1  0.09963275  0.64996372  0.11041947  1
  O  O174  1  0.11919112  0.61894667  0.62175386  1
  O  O175  1  0.61722001  0.12626890  0.11891180  1
  O  O176  1  0.62400296  0.11381398  0.61937064  1
  O  O177  1  0.62239515  0.61983864  0.11476926  1
  O  O178  1  0.63029454  0.61718148  0.61624164  1
  O  O179  1  0.38755402  0.37743550  0.39010495  1
  O  O180  1  0.38508153  0.38020853  0.87110209  1
  O  O181  1  0.37754513  0.88029206  0.38281713  1
  O  O182  1  0.37143780  0.88815907  0.87621376  1
  O  O183  1  0.88346995  0.38398411  0.37659937  1
  O  O184  1  0.87723006  0.38451665  0.87861187  1
  O  O185  1  0.89014913  0.88059548  0.37152480  1
  O  O186  1  0.88070868  0.86560371  0.88082223  1
  O  O187  1  0.25566129  0.00923616  0.37211414  1
  O  O188  1  0.25915498  0.00291881  0.86251810  1
  O  O189  1  0.25256420  0.51325435  0.38532111  1
  O  O190  1  0.25723828  0.50656872  0.88024107  1
  O  O191  1  0.77281958  -0.01019613  0.35925377  1
  O  O192  1  0.74847011  0.00876056  0.86209114  1
  O  O193  1  0.75579328  0.50776360  0.37156681  1
  O  O194  1  0.76112281  0.50851777  0.87659693  1
  O  O195  1  0.27167912  0.49074654  0.11272313  1
  O  O196  1  0.23485589  0.49126767  0.62907199  1
  O  O197  1  0.24319296  0.99746749  0.13033856  1
  O  O198  1  0.25200779  0.99903130  0.63710625  1
  O  O199  1  0.74970693  0.49230681  0.13573341  1
  O  O200  1  0.74183015  0.49156093  0.62388917  1
  O  O201  1  0.75212394  0.99598294  0.13783905  1
  O  O202  1  0.73864677  0.99382719  0.61976204  1
  O  O203  1  -0.00411441  0.36583872  0.26199571  1
  O  O204  1  0.00529436  0.37008194  0.75849394  1
  O  O205  1  0.00894427  0.86657121  0.25177832  1
  O  O206  1  0.00141476  0.86956522  0.75335306  1
  O  O207  1  0.51764504  0.36944622  0.25516618  1
  O  O208  1  0.50934906  0.36942304  0.76293547  1
  O  O209  1  0.50963639  0.87660353  0.25781082  1
  O  O210  1  0.49590229  0.85759782  0.75856578  1
  O  O211  1  0.49249636  0.11863863  0.24317083  1
  O  O212  1  0.49250979  0.13333605  0.74828521  1
  O  O213  1  0.49077602  0.62802067  0.25205741  1
  O  O214  1  0.49729438  0.64035961  0.75548479  1
  O  O215  1  0.99283373  0.13240840  0.24266589  1
  O  O216  1  0.99277170  0.13030657  0.74529981  1
  O  O217  1  0.99494299  0.63927979  0.24283170  1
  O  O218  1  1.00390832  0.63301066  0.73742876  1
  O  O219  1  0.36614589  0.24105159  0.00761793  1
  O  O220  1  0.36961762  0.25003617  0.51525864  1
  O  O221  1  0.36842619  0.74195820  0.01182636  1
  O  O222  1  0.37823033  0.75931240  0.51082807  1
  O  O223  1  0.86919293  0.26065061  0.00362559  1
  O  O224  1  0.87079365  0.25027574  0.51175316  1
  O  O225  1  0.86456684  0.75797997  0.00453947  1
  O  O226  1  0.88075749  0.75363483  0.50966048  1
  O  O227  1  0.14167324  0.25496851  0.50460930  1
  O  O228  1  0.13171029  0.24091347  0.99868120  1
  O  O229  1  0.12264547  0.73717409  0.49961680  1
  O  O230  1  0.12608135  0.75178746  0.98245425  1
  O  O231  1  0.64263229  0.24743438  0.50470407  1
  O  O232  1  0.63359053  0.24094986  0.99496956  1
  O  O233  1  0.62150916  0.74612617  0.49061855  1
  O  O234  1  0.63833002  0.73819684  1.00448407  1
  O  O235  1  0.48709692  0.23577316  0.11886404  1
  O  O236  1  0.49336769  0.25186820  0.63160115  1
  O  O237  1  0.48770063  0.74594996  0.12697710  1
  O  O238  1  0.49111846  0.75442303  0.63896295  1
  O  O239  1  0.99277943  0.24326565  0.13062066  1
  O  O240  1  0.99307408  0.24435512  0.62840000  1
  O  O241  1  0.98546067  0.74916291  0.12806795  1
  O  O242  1  0.99251144  0.74186113  0.62971633  1
  O  O243  1  -0.00024367  0.26298373  0.36675371  1
  O  O244  1  -0.00038323  0.26069239  0.86706318  1
  O  O245  1  0.00174909  0.75641330  0.36498396  1
  O  O246  1  0.00195359  0.75527574  0.86627947  1
  O  O247  1  0.50614682  0.27031944  0.38239799  1
  O  O248  1  0.50548175  0.25575279  0.87271413  1
  O  O249  1  0.51066861  0.76055629  0.37362070  1
  O  O250  1  0.49609951  0.75105160  0.86347901  1
  O  O251  1  0.25359377  0.13990227  0.49326854  1
  O  O252  1  0.23910027  0.13121931  0.99856240  1
  O  O253  1  0.24058486  0.62907763  0.49455663  1
  O  O254  1  0.24303248  0.64043948  0.98581340  1
  O  O255  1  0.75429756  0.13970334  0.50480345  1
  O  O256  1  0.75052530  0.13275320  0.98864913  1
  O  O257  1  0.73946023  0.62330584  0.49090729  1
  O  O258  1  0.74468679  0.62736989  0.99475173  1
  O  O259  1  0.25513355  0.36903381  0.00031096  1
  O  O260  1  0.25424312  0.36822566  0.51255410  1
  O  O261  1  0.24237445  0.86125407  -0.00463928  1
  O  O262  1  0.26135440  0.87644906  0.50059328  1
  O  O263  1  0.75528470  0.37003388  0.00573809  1
  O  O264  1  0.75240231  0.36649579  0.51286627  1
  O  O265  1  0.75073458  0.86379170  0.00003344  1
  O  O266  1  0.74970394  0.88404736  0.50540733  1
  O  O267  1  0.13898886  0.54317222  0.22464369  1
  O  O268  1  0.11807730  0.48798824  0.74556142  1
  O  O269  1  0.12829820  0.99135767  0.24093144  1
  O  O270  1  0.13216627  0.99092578  0.75531855  1
  O  O271  1  0.63627543  0.49930165  0.25050006  1
  O  O272  1  0.62191599  0.48826801  0.74703905  1
  O  O273  1  0.63662792  0.99211152  0.24678030  1
  O  O274  1  0.62744545  1.00428249  0.74383163  1
  O  O275  1  0.36901219  0.00482493  0.25718380  1
  O  O276  1  0.36786885  0.00762616  0.75272619  1
  O  O277  1  0.38045370  0.51490147  0.24960684  1
  O  O278  1  0.37917404  0.50298088  0.76311631  1
  O  O279  1  0.87552919  0.00825095  0.25269852  1
  O  O280  1  0.87979002  0.01151632  0.74558659  1
  O  O281  1  0.86302935  0.50029044  0.26051533  1
  O  O282  1  0.87230246  0.49652904  0.75981182  1
  O  O283  1  0.11349079  0.38396206  0.37469975  1
  O  O284  1  0.11518438  0.37710206  0.86996185  1
  O  O285  1  0.11592313  0.87305341  0.36433589  1
  O  O286  1  0.11333267  0.86793202  0.86349331  1
  O  O287  1  0.63035486  0.37242918  0.36499458  1
  O  O288  1  0.62259515  0.37079697  0.86868029  1
  O  O289  1  0.62365364  0.87213439  0.36819695  1
  O  O290  1  0.64999909  0.88363149  0.85143581  1
  O  O291  1  0.38067377  0.12905133  0.13416692  1
  O  O292  1  0.37673985  0.13288913  0.63600189  1
  O  O293  1  0.37781967  0.63547706  0.13894354  1
  O  O294  1  0.38356316  0.62980438  0.62399364  1
  O  O295  1  0.87986488  0.12975040  0.12914048  1
  O  O296  1  0.88153855  0.13063492  0.63217743  1
  O  O297  1  0.88171298  0.63358182  0.12596109  1
  O  O298  1  0.88251499  0.63061428  0.61930437  1
  O  O299  1  0.26491581  0.24805948  0.11194967  1
  O  O300  1  0.25654907  0.25602058  0.61814815  1
  O  O301  1  0.26201125  0.75085068  0.11477884  1
  O  O302  1  0.26092115  0.75321911  0.62100401  1
  O  O303  1  0.75746148  0.25521643  0.11956318  1
  O  O304  1  0.75908871  0.25557828  0.62089133  1
  O  O305  1  0.75919409  0.74709626  0.11853904  1
  O  O306  1  0.75847455  0.75988223  0.62596821  1
  O  O307  1  0.25806331  0.24702605  0.38980267  1
  O  O308  1  0.24836694  0.24714329  0.88768190  1
  O  O309  1  0.24690363  0.73976239  0.38165410  1
  O  O310  1  0.24121850  0.74535763  0.87559266  1
  O  O311  1  0.76159935  0.25428361  0.39290494  1
  O  O312  1  0.74528897  0.24304935  0.87818768  1
  O  O313  1  0.74574720  0.73993171  0.37213160  1
  O  O314  1  0.75754058  0.73098459  0.88223071  1
  O  O315  1  0.00115253  0.11869304  0.00017600  1
  O  O316  1  -0.00071713  0.11785840  0.50905327  1
  O  O317  1  -0.00897183  0.62781212  0.00875610  1
  O  O318  1  0.00605816  0.62133807  0.50930321  1
  O  O319  1  0.51325779  0.12571848  0.00664761  1
  O  O320  1  0.50056706  0.11714092  0.50321508  1
  O  O321  1  0.50875062  0.61437152  -0.00103552  1
  O  O322  1  0.50986229  0.62777563  0.49922324  1
  O  O323  1  0.49837556  0.37827166  0.49946177  1
  O  O324  1  0.51240065  0.37904581  0.98860040  1
  O  O325  1  0.48821516  0.88120708  0.49724789  1
  O  O326  1  0.53990151  0.88190986  0.98310841  1
  O  O327  1  0.99861015  0.37600288  0.48655754  1
  O  O328  1  0.98937859  0.36853464  0.98612388  1
  O  O329  1  1.00002376  0.88167198  0.48868324  1
  O  O330  1  0.98900704  0.87732496  0.98948355  1
  O  O331  1  0.51360449  0.47426547  0.37328900  1
  O  O332  1  0.49109626  0.49321141  0.88668832  1
  O  O333  1  0.49081526  0.99462462  0.38592111  1
  O  O334  1  0.48117180  0.99739106  0.86944938  1
  O  O335  1  0.99388435  0.49142268  0.37001771  1
  O  O336  1  0.98364065  0.49367033  0.87189763  1
  O  O337  1  0.99577344  0.99351812  0.37650711  1
  O  O338  1  0.99949851  0.98682767  0.87771377  1
  O  O339  1  0.00326848  0.00273416  0.11496715  1
  O  O340  1  -0.00359823  0.00826160  0.61305202  1
  O  O341  1  -0.00598583  0.51837856  0.13180531  1
  O  O342  1  0.00697607  0.50558685  0.62423776  1
  O  O343  1  0.49973073  0.01238736  0.12464730  1
  O  O344  1  0.50628315  0.00017420  0.62222152  1
  O  O345  1  0.49814413  0.49773502  0.11354128  1
  O  O346  1  0.51156112  0.50254997  0.63383034  1
  O  O347  1  0.28870045  0.36650696  0.22486418  1
  O  O348  1  0.24072817  0.36724229  0.74018201  1
  O  O349  1  0.23786857  0.88002012  0.25079221  1
  O  O350  1  0.23819258  0.88308479  0.74796594  1
  O  O351  1  0.74197274  0.38019108  0.24824477  1
  O  O352  1  0.74253633  0.36821378  0.73796001  1
  O  O353  1  0.74390272  0.88109536  0.24783521  1
  O  O354  1  0.76155734  0.88365013  0.73834519  1
  O  O355  1  0.26341601  0.11693946  0.26208972  1
  O  O356  1  0.25639718  0.12048058  0.75185138  1
  O  O357  1  0.26884563  0.63276655  0.26120484  1
  O  O358  1  0.25076084  0.62896229  0.76149688  1
  O  O359  1  0.76502617  0.11742386  0.24581737  1
  O  O360  1  0.75940704  0.13256182  0.75820133  1
  O  O361  1  0.75086325  0.61752187  0.25878496  1
  O  O362  1  0.74277703  0.62606401  0.76394526  1
  O  O363  1  0.37347081  0.12167043  0.37122184  1
  O  O364  1  0.37427949  0.11945688  0.86267618  1
  O  O365  1  0.37158096  0.62955502  0.36459073  1
  O  O366  1  0.36480074  0.61330684  0.87688934  1
  O  O367  1  0.88602726  0.11773829  0.36413409  1
  O  O368  1  0.86497767  0.13013797  0.86541219  1
  O  O369  1  0.86787917  0.61938657  0.37355355  1
  O  O370  1  0.86484331  0.61132278  0.87581094  1
  O  O371  1  0.11551012  0.36971879  0.13658363  1
  O  O372  1  0.12796903  0.38202547  0.63246143  1
  O  O373  1  0.12540320  0.87791258  0.12917855  1
  O  O374  1  0.12248583  0.86780927  0.63727183  1
  O  O375  1  0.63113007  0.37214253  0.13851312  1
  O  O376  1  0.63260104  0.38223026  0.63258028  1
  O  O377  1  0.62617640  0.87241959  0.13887885  1
  O  O378  1  0.63513839  0.88185408  0.62675067  1
  O  O379  1  0.11753936  0.24303271  0.24600030  1
  O  O380  1  0.11881540  0.26239926  0.75295770  1
  O  O381  1  0.11746904  0.75452739  0.24810275  1
  O  O382  1  0.11361940  0.75613473  0.75740161  1
  O  O383  1  0.63273946  0.25461626  0.25575692  1
  O  O384  1  0.62049320  0.25830724  0.75470575  1
  O  O385  1  0.62546904  0.75680878  0.26192050  1
  O  O386  1  0.61508684  0.74827293  0.74920643  1
  O  O387  1  0.37743231  0.23524075  0.24376147  1
  O  O388  1  0.37878493  0.24367443  0.74221311  1
  O  O389  1  0.37783168  0.74912929  0.23908395  1
  O  O390  1  0.37260265  0.74724916  0.73965508  1
  O  O391  1  0.87920057  0.24316174  0.24365839  1
  O  O392  1  0.88088510  0.24468298  0.73933113  1
  O  O393  1  0.88081107  0.75204844  0.24060818  1
  O  O394  1  0.88646307  0.75175509  0.73707860  1
  O  O395  1  0.38778609  0.51183993  0.52276260  1
  O  O396  1  0.37676026  0.49035055  0.99815699  1
  O  O397  1  0.38151052  0.99556498  0.50020418  1
  O  O398  1  0.36692085  1.00848213  0.98390073  1
  O  O399  1  0.87720885  0.49825904  0.48687426  1
  O  O400  1  0.86958791  0.48855604  0.99340981  1
  O  O401  1  0.88438043  0.99901005  0.48817422  1
  O  O402  1  0.87533127  0.98636748  1.00133281  1
  O  O403  1  0.11815967  0.00370955  -0.00070789  1
  O  O404  1  0.11367188  -0.00285746  0.49492214  1
  O  O405  1  0.12671573  0.50477128  0.01739072  1
  O  O406  1  0.12238939  0.51027614  0.51102603  1
  O  O407  1  0.64585061  0.01807337  0.00907759  1
  O  O408  1  0.60659385  -0.01102962  0.51429529  1
  O  O409  1  0.61711691  0.50355549  0.00418420  1
  O  O410  1  0.62725987  0.50978620  0.51148318  1
  O  O411  1  0.39492650  0.36589669  0.11134877  1
  O  O412  1  0.36643420  0.36952647  0.62846732  1
  O  O413  1  0.37347901  0.86316392  0.12755223  1
  O  O414  1  0.37295660  0.86970381  0.61885350  1
  O  O415  1  0.87090813  0.37242743  0.11816004  1
  O  O416  1  0.86946760  0.36701230  0.62415530  1
  O  O417  1  0.87191180  0.86725954  0.11427797  1
  O  O418  1  0.86698559  0.86682502  0.61624911  1
  O  O419  1  0.13854164  0.12262101  0.36883919  1
  O  O420  1  0.12259101  0.12636159  0.88568742  1
  O  O421  1  0.13028493  0.62344988  0.38384513  1
  O  O422  1  0.12758276  0.63133294  0.87445426  1
  O  O423  1  0.64079557  0.07837902  0.39093912  1
  O  O424  1  0.63210670  0.12918716  0.88068425  1
  O  O425  1  0.63152358  0.63376569  0.38183059  1
  O  O426  1  0.63863391  0.61261611  0.88674099  1
