# generated using pymatgen
data_V85Zn86O256
_symmetry_space_group_name_H-M   'P 1'
_cell_length_a   16.97142964
_cell_length_b   16.96954487
_cell_length_c   16.98670552
_cell_angle_alpha   89.93431524
_cell_angle_beta   90.01640880
_cell_angle_gamma   90.04865485
_symmetry_Int_Tables_number   1
_chemical_formula_structural   V85Zn86O256
_chemical_formula_sum   'V85 Zn86 O256'
_cell_volume   4892.12247126
_cell_formula_units_Z   1
loop_
 _symmetry_equiv_pos_site_id
 _symmetry_equiv_pos_as_xyz
  1  'x, y, z'
loop_
 _atom_site_type_symbol
 _atom_site_label
 _atom_site_symmetry_multiplicity
 _atom_site_fract_x
 _atom_site_fract_y
 _atom_site_fract_z
 _atom_site_occupancy
  V  V0  1  0.12201502  0.00180148  0.62925531  1
  V  V1  1  0.62267508  0.24909650  0.87936389  1
  V  V2  1  0.25152264  0.50097580  0.75039211  1
  V  V3  1  0.87631459  0.50217287  0.37546944  1
  V  V4  1  0.75686726  0.86593964  0.12378801  1
  V  V5  1  -0.00099654  0.49913200  0.50083223  1
  V  V6  1  0.63193588  0.62163801  -0.00699441  1
  V  V7  1  0.62375898  0.74851869  0.37814371  1
  V  V8  1  0.37506831  0.39209124  0.00566640  1
  V  V9  1  0.24713400  0.25266932  0.49831602  1
  V  V10  1  -0.00975555  0.37692951  0.88256512  1
  V  V11  1  0.12297543  0.25123757  0.87685819  1
  V  V12  1  0.75222283  0.50300348  0.25049991  1
  V  V13  1  0.37514352  0.37674788  0.49972579  1
  V  V14  1  0.62897250  0.36849202  0.25322003  1
  V  V15  1  0.51204517  0.12772209  0.61014662  1
  V  V16  1  0.87414104  0.86247403  0.50388258  1
  V  V17  1  0.49319326  0.87916177  0.37240469  1
  V  V18  1  0.12327586  0.50040212  0.62637293  1
  V  V19  1  0.74881335  0.00477711  0.23750404  1
  V  V20  1  0.24788312  0.63061324  0.87289214  1
  V  V21  1  0.62116130  0.77833590  0.84925596  1
  V  V22  1  0.25319174  0.75095569  0.49931156  1
  V  V23  1  0.11932400  0.86796346  0.24677966  1
  V  V24  1  0.13430790  -0.00261702  0.12482047  1
  V  V25  1  0.37487757  0.50091190  0.37561379  1
  V  V26  1  0.73956966  0.87939403  0.62854289  1
  V  V27  1  0.25624056  0.25477189  0.00077609  1
  V  V28  1  0.37530252  0.49719956  0.86807410  1
  V  V29  1  0.00119901  -0.00140263  -0.00038789  1
  V  V30  1  0.12078963  0.75112044  0.37732836  1
  V  V31  1  0.87802682  0.25743079  0.12380878  1
  V  V32  1  0.12439615  0.62478556  0.50067798  1
  V  V33  1  0.69063717  0.07913233  0.42839135  1
  V  V34  1  0.38031295  0.74782500  0.63277184  1
  V  V35  1  -0.00480143  -0.00361718  0.50228919  1
  V  V36  1  -0.00631265  0.49837861  0.00504427  1
  V  V37  1  0.75427516  0.36047651  0.62563314  1
  V  V38  1  0.49246056  0.24137400  0.75173103  1
  V  V39  1  0.62673030  0.49823308  0.62452272  1
  V  V40  1  0.62306512  0.49708155  0.12459277  1
  V  V41  1  0.12139912  0.37668754  0.75293047  1
  V  V42  1  0.12147487  0.12708526  0.49748803  1
  V  V43  1  0.75086300  0.63110942  0.38149850  1
  V  V44  1  0.24487241  0.37668399  0.13259606  1
  V  V45  1  0.75330123  0.50606302  0.75322183  1
  V  V46  1  0.00080263  0.12318125  0.12832872  1
  V  V47  1  0.62592344  0.36691841  0.74897194  1
  V  V48  1  -0.00302812  0.87144638  0.37287709  1
  V  V49  1  0.24966686  0.62484845  0.37436888  1
  V  V50  1  0.86795622  0.74507240  0.63566996  1
  V  V51  1  0.12742449  0.12618159  -0.00114202  1
  V  V52  1  0.50641575  0.37182456  0.37630714  1
  V  V53  1  0.25169702  0.87813600  0.62681715  1
  V  V54  1  0.26231570  0.85316942  0.12403312  1
  V  V55  1  0.00479649  0.37704056  0.36604228  1
  V  V56  1  0.49739238  0.37125245  0.88013935  1
  V  V57  1  0.37401985  0.88698336  0.49378319  1
  V  V58  1  0.12591304  0.25217134  0.36512275  1
  V  V59  1  0.12879356  0.63208739  -0.00385774  1
  V  V60  1  0.12384756  0.49873949  0.13069720  1
  V  V61  1  0.37377624  0.12285394  0.25620884  1
  V  V62  1  0.37825349  0.63059422  0.24841572  1
  V  V63  1  0.75143279  0.12482277  0.87544673  1
  V  V64  1  -0.00743454  0.25003174  0.74796400  1
  V  V65  1  0.87706955  -0.00241890  0.87324303  1
  V  V66  1  0.49864866  0.62659843  0.64251993  1
  V  V67  1  0.50348867  0.13190798  0.12499255  1
  V  V68  1  0.73708332  0.25292960  0.48516974  1
  V  V69  1  0.87728507  0.86342862  0.00085107  1
  V  V70  1  0.50165247  0.62172290  0.11991454  1
  V  V71  1  -0.00061800  0.64113441  0.12759491  1
  V  V72  1  0.26631016  0.12925038  0.87303466  1
  V  V73  1  0.62416756  0.87821608  0.24898712  1
  V  V74  1  0.62446229  0.12592559  0.00491972  1
  V  V75  1  0.50148174  0.50684845  0.50072694  1
  V  V76  1  0.87363515  0.12546633  0.25574495  1
  V  V77  1  0.87761022  0.36487708  0.50180174  1
  V  V78  1  0.37229090  0.24493832  0.62671794  1
  V  V79  1  0.56861885  -0.05462333  0.06864855  1
  V  V80  1  0.75546869  0.25910757  0.00208906  1
  V  V81  1  0.26344480  0.01760586  0.74386395  1
  V  V82  1  0.24820314  0.49817395  0.24918416  1
  V  V83  1  0.87889281  0.64134039  0.24749092  1
  V  V84  1  -0.00819849  0.12966731  0.62619266  1
  Zn  Zn85  1  0.49779135  0.75167032  0.24436053  1
  Zn  Zn86  1  0.74732351  0.74412243  -0.00586921  1
  Zn  Zn87  1  0.01150099  0.74753629  0.76152638  1
  Zn  Zn88  1  0.13604122  0.86431802  0.76471384  1
  Zn  Zn89  1  0.42416983  0.93772868  0.94132457  1
  Zn  Zn90  1  0.50284576  0.24985733  0.25458359  1
  Zn  Zn91  1  0.02214770  0.86766570  0.87822631  1
  Zn  Zn92  1  0.87695162  0.62687319  0.76871343  1
  Zn  Zn93  1  0.25351052  0.11866101  0.37703298  1
  Zn  Zn94  1  0.87250481  0.12398539  0.74811870  1
  Zn  Zn95  1  0.37756725  0.25487728  0.12832698  1
  Zn  Zn96  1  0.75607686  0.37876354  0.12351296  1
  Zn  Zn97  1  0.86324700  0.50234467  0.89096476  1
  Zn  Zn98  1  0.25085870  0.37487894  0.62727672  1
  Zn  Zn99  1  0.00379304  0.25433833  0.24660565  1
  Zn  Zn100  1  0.25415308  -0.00722911  0.25969450  1
  Zn  Zn101  1  0.74199385  -0.00920892  0.75110655  1
  Zn  Zn102  1  0.30968345  0.78365349  -0.03573094  1
  Zn  Zn103  1  0.62859530  0.63083561  0.50445045  1
  Zn  Zn104  1  -0.00679147  0.62432007  0.62994697  1
  Zn  Zn105  1  0.50953861  0.00824727  0.49185723  1
  Zn  Zn106  1  0.87090892  0.00177968  0.37740109  1
  Zn  Zn107  1  0.19047454  0.18685678  0.18668559  1
  Zn  Zn108  1  0.17997094  0.19063016  0.68577361  1
  Zn  Zn109  1  0.18397405  0.68542432  0.18942443  1
  Zn  Zn110  1  0.19353864  0.68492282  0.68812258  1
  Zn  Zn111  1  0.68971505  0.18898590  0.18820630  1
  Zn  Zn112  1  0.64064662  0.13249600  0.72912116  1
  Zn  Zn113  1  0.68431298  0.68805582  0.18980837  1
  Zn  Zn114  1  0.68773328  0.69011400  0.68460917  1
  Zn  Zn115  1  0.31644270  0.30931354  0.31249751  1
  Zn  Zn116  1  0.31110242  0.31314604  0.81308764  1
  Zn  Zn117  1  0.30880225  0.81202187  0.31004471  1
  Zn  Zn118  1  0.38001181  0.84994726  0.79339258  1
  Zn  Zn119  1  0.81769339  0.31446506  0.31088826  1
  Zn  Zn120  1  0.81236414  0.31283750  0.81427071  1
  Zn  Zn121  1  0.80951085  0.81492875  0.31461079  1
  Zn  Zn122  1  0.80682409  0.81244449  0.81620096  1
  Zn  Zn123  1  0.18623898  0.43640983  0.43678937  1
  Zn  Zn124  1  0.18384287  0.44216563  0.94154710  1
  Zn  Zn125  1  0.18376598  0.93880718  0.43933230  1
  Zn  Zn126  1  0.23294054  0.92279768  0.91787827  1
  Zn  Zn127  1  0.68873914  0.43975992  0.43774768  1
  Zn  Zn128  1  0.68407056  0.43694071  0.93842846  1
  Zn  Zn129  1  0.68910232  0.91675266  0.43978263  1
  Zn  Zn130  1  0.69416580  0.93548286  0.93477428  1
  Zn  Zn131  1  0.31444268  0.06546781  0.06885943  1
  Zn  Zn132  1  0.31282183  0.06785200  0.55899163  1
  Zn  Zn133  1  0.34004147  0.61763984  0.03721167  1
  Zn  Zn134  1  0.31309682  0.56442408  0.56542353  1
  Zn  Zn135  1  0.81551040  0.06392718  0.06236873  1
  Zn  Zn136  1  0.81270254  0.06182210  0.56682799  1
  Zn  Zn137  1  0.81508767  0.56747484  0.06695202  1
  Zn  Zn138  1  0.81085321  0.55735835  0.56417364  1
  Zn  Zn139  1  0.43762844  0.44040533  0.19094495  1
  Zn  Zn140  1  0.43897983  0.43143563  0.68662124  1
  Zn  Zn141  1  0.43210135  0.93839886  0.19079735  1
  Zn  Zn142  1  0.44072614  0.94923234  0.66911864  1
  Zn  Zn143  1  0.93683827  0.44400909  0.18820311  1
  Zn  Zn144  1  0.93528536  0.43610069  0.68726219  1
  Zn  Zn145  1  0.93581394  0.93666697  0.18782614  1
  Zn  Zn146  1  0.93869791  0.93081761  0.69503784  1
  Zn  Zn147  1  0.06619783  0.05744551  0.31341163  1
  Zn  Zn148  1  0.06850671  0.05853663  0.81459453  1
  Zn  Zn149  1  0.06071054  0.56563556  0.31024458  1
  Zn  Zn150  1  0.05669917  0.56471538  0.81549037  1
  Zn  Zn151  1  0.55771540  0.05756479  0.30469363  1
  Zn  Zn152  1  0.55288960  -0.03434716  0.80309014  1
  Zn  Zn153  1  0.56409026  0.55966117  0.31111637  1
  Zn  Zn154  1  0.56586369  0.55117780  0.81174164  1
  Zn  Zn155  1  0.43606215  0.19162678  0.43630751  1
  Zn  Zn156  1  0.44312198  0.09766014  0.92632656  1
  Zn  Zn157  1  0.43805222  0.69215736  0.43728275  1
  Zn  Zn158  1  0.45269831  0.66767668  0.90609473  1
  Zn  Zn159  1  0.93894557  0.18934277  0.43598469  1
  Zn  Zn160  1  0.93748329  0.18659703  0.93940887  1
  Zn  Zn161  1  0.93822423  0.68710154  0.44013827  1
  Zn  Zn162  1  0.94145158  0.68425922  0.93176715  1
  Zn  Zn163  1  0.06462872  0.31389058  0.06356182  1
  Zn  Zn164  1  0.06228312  0.31390891  0.56215206  1
  Zn  Zn165  1  0.06941154  0.81483241  0.05485698  1
  Zn  Zn166  1  0.07488045  0.79693976  0.59625045  1
  Zn  Zn167  1  0.56191060  0.31399125  0.06362645  1
  Zn  Zn168  1  0.56311710  0.31229677  0.56274059  1
  Zn  Zn169  1  0.50694993  0.76593452  0.01636133  1
  Zn  Zn170  1  0.55797299  0.81203583  0.55980823  1
  O  O171  1  0.11957660  0.11797009  0.12243455  1
  O  O172  1  0.11417721  0.12013145  0.61678965  1
  O  O173  1  0.11946918  0.61824159  0.11915878  1
  O  O174  1  0.12641804  0.61115897  0.61833316  1
  O  O175  1  0.61398422  0.12901940  0.12282727  1
  O  O176  1  0.60942835  0.14423186  0.61674023  1
  O  O177  1  0.61855613  0.61375101  0.12743308  1
  O  O178  1  0.61598544  0.62012639  0.62285560  1
  O  O179  1  0.38151672  0.38281579  0.38078452  1
  O  O180  1  0.37748631  0.38055959  0.88366885  1
  O  O181  1  0.38138660  0.86825752  0.38025304  1
  O  O182  1  0.34249570  0.87211001  0.89574511  1
  O  O183  1  0.88447344  0.38267392  0.38131470  1
  O  O184  1  0.88737785  0.38014759  0.87396448  1
  O  O185  1  0.87875862  0.87668255  0.38608222  1
  O  O186  1  0.87027255  0.88739005  0.88437769  1
  O  O187  1  0.23737656  0.00665345  0.37094568  1
  O  O188  1  0.25414138  0.01771129  0.85232949  1
  O  O189  1  0.25288384  0.50498456  0.36979364  1
  O  O190  1  0.25522791  0.50002704  0.86685167  1
  O  O191  1  0.74755379  0.00784147  0.37290494  1
  O  O192  1  0.76019594  0.00961149  0.87656372  1
  O  O193  1  0.75470594  0.50735238  0.36560848  1
  O  O194  1  0.74914770  0.48516978  0.85671289  1
  O  O195  1  0.24038608  0.49262134  0.13450820  1
  O  O196  1  0.24311807  0.49804589  0.63228196  1
  O  O197  1  0.23924024  0.99907829  0.12878392  1
  O  O198  1  0.24154347  1.00214742  0.62533967  1
  O  O199  1  0.74798409  0.49925447  0.13838109  1
  O  O200  1  0.74376745  0.48927147  0.63242062  1
  O  O201  1  0.75453475  0.99226003  0.13439008  1
  O  O202  1  0.75547577  0.98408336  0.62652886  1
  O  O203  1  -0.00292221  0.37700386  0.26303308  1
  O  O204  1  0.00349374  0.36971875  0.75718754  1
  O  O205  1  0.00529783  0.87870184  0.26065771  1
  O  O206  1  0.01028587  0.87168674  0.75706025  1
  O  O207  1  0.50968378  0.37766890  0.25981650  1
  O  O208  1  0.50879656  0.36490375  0.75286978  1
  O  O209  1  0.50612399  0.87386381  0.25304708  1
  O  O210  1  0.47699969  0.89134328  0.75521799  1
  O  O211  1  0.49262036  0.12769216  0.24337973  1
  O  O212  1  0.49830260  0.14142458  0.73084562  1
  O  O213  1  0.49364670  0.62340849  0.24444070  1
  O  O214  1  0.50098456  0.61687878  0.74176795  1
  O  O215  1  0.99678091  0.12165305  0.23865717  1
  O  O216  1  1.00228285  0.13261956  0.74345989  1
  O  O217  1  0.99169045  0.62398923  0.23968517  1
  O  O218  1  0.99435106  0.62819179  0.74683610  1
  O  O219  1  0.35857198  0.26755001  0.00445072  1
  O  O220  1  0.36456273  0.25768569  0.50274021  1
  O  O221  1  0.39471806  0.71787847  -0.00300247  1
  O  O222  1  0.36727390  0.75812513  0.50340960  1
  O  O223  1  0.86752787  0.24336705  0.01134523  1
  O  O224  1  0.87144596  0.26210197  0.49485941  1
  O  O225  1  0.87038949  0.76176617  -0.00553884  1
  O  O226  1  0.87452675  0.76022304  0.50471250  1
  O  O227  1  0.13057439  0.24757569  0.49288633  1
  O  O228  1  0.13315441  0.24654378  0.99632809  1
  O  O229  1  0.13312937  0.74356406  0.50182741  1
  O  O230  1  0.12829366  0.73072609  1.00422297  1
  O  O231  1  0.63844174  0.26009865  0.49231122  1
  O  O232  1  0.63474433  0.24441056  0.99980097  1
  O  O233  1  0.61852652  0.74793281  0.48318120  1
  O  O234  1  0.62297029  0.72530188  1.00655614  1
  O  O235  1  0.49855106  0.24465676  0.13065295  1
  O  O236  1  0.48998610  0.24996306  0.62690676  1
  O  O237  1  0.50590896  0.72549276  0.12898140  1
  O  O238  1  0.48855519  0.74124874  0.61903685  1
  O  O239  1  0.99685739  0.24174291  0.12658636  1
  O  O240  1  1.00712245  0.24221598  0.63526721  1
  O  O241  1  1.00740910  0.73935598  0.12084854  1
  O  O242  1  0.97666884  0.74518175  0.62274302  1
  O  O243  1  0.00827464  0.26010071  0.37298943  1
  O  O244  1  0.00484282  0.25660617  0.87269590  1
  O  O245  1  0.00479628  0.76364854  0.38401412  1
  O  O246  1  0.00609853  0.75431297  0.87613931  1
  O  O247  1  0.49715335  0.26836239  0.37572411  1
  O  O248  1  0.50033620  0.26110790  0.86618210  1
  O  O249  1  0.50586989  0.75952448  0.36884171  1
  O  O250  1  0.52583739  0.75089169  0.88707459  1
  O  O251  1  0.24279505  0.13853494  0.49811460  1
  O  O252  1  0.24549854  0.13842143  0.99260634  1
  O  O253  1  0.24515195  0.62913382  0.49313721  1
  O  O254  1  0.23807417  0.61516915  0.98966217  1
  O  O255  1  0.75150288  0.13563079  0.49543508  1
  O  O256  1  0.74327424  0.13222270  0.99870631  1
  O  O257  1  0.74814922  0.61658174  0.48472745  1
  O  O258  1  0.73702726  0.62568177  1.00881459  1
  O  O259  1  0.25361166  0.37549080  0.01154590  1
  O  O260  1  0.25345741  0.36559725  0.50095417  1
  O  O261  1  0.24467161  0.86466945  0.02105518  1
  O  O262  1  0.25582285  0.87206684  0.50712114  1
  O  O263  1  0.74832551  0.36301099  0.00298439  1
  O  O264  1  0.75746828  0.36858865  0.50115946  1
  O  O265  1  0.75824041  0.87348399  0.00861142  1
  O  O266  1  0.76791962  0.87816433  0.50946887  1
  O  O267  1  0.13056132  0.50703797  0.23893428  1
  O  O268  1  0.12697255  0.49508639  0.74303236  1
  O  O269  1  0.12281849  0.98710402  0.23958354  1
  O  O270  1  0.13400683  1.00519260  0.73481549  1
  O  O271  1  0.63539713  0.49341098  0.24409743  1
  O  O272  1  0.63501465  0.48778902  0.74328145  1
  O  O273  1  0.63461404  0.98683764  0.25369318  1
  O  O274  1  0.63384371  1.02266828  0.75197747  1
  O  O275  1  0.37261101  0.01749766  0.24614542  1
  O  O276  1  0.36015338  0.01697918  0.72746570  1
  O  O277  1  0.36827539  0.50761405  0.25874507  1
  O  O278  1  0.36186313  0.48647904  0.75476031  1
  O  O279  1  0.86516573  0.00535243  0.25423437  1
  O  O280  1  0.87173904  0.00293091  0.76099833  1
  O  O281  1  0.86836322  0.50837922  0.25737698  1
  O  O282  1  0.85942664  0.49946631  0.74648072  1
  O  O283  1  0.11581103  0.36591195  0.38007504  1
  O  O284  1  0.11631710  0.37102589  0.87111545  1
  O  O285  1  0.11596509  0.86924704  0.36905537  1
  O  O286  1  0.13498382  0.89351611  0.87329047  1
  O  O287  1  0.61732651  0.38645549  0.36558020  1
  O  O288  1  0.61526416  0.36876853  0.87287806  1
  O  O289  1  0.61868537  0.86688489  0.36636617  1
  O  O290  1  0.62315309  0.88069110  0.86328307  1
  O  O291  1  0.38812784  0.13011740  0.13341114  1
  O  O292  1  0.38246978  0.14225649  0.61415008  1
  O  O293  1  0.39343739  0.60772935  0.13525829  1
  O  O294  1  0.38213007  0.63926963  0.61985636  1
  O  O295  1  0.88439896  0.13134565  0.13357510  1
  O  O296  1  0.88785172  0.12360700  0.62783497  1
  O  O297  1  0.88785161  0.62501835  0.13483700  1
  O  O298  1  0.86771695  0.63761087  0.62423032  1
  O  O299  1  0.24868199  0.25973784  0.11804720  1
  O  O300  1  0.25315888  0.25265907  0.61730962  1
  O  O301  1  0.25523691  0.75287879  0.12956395  1
  O  O302  1  0.26091402  0.75925104  0.61777387  1
  O  O303  1  0.76100833  0.25164746  0.11917135  1
  O  O304  1  0.75250193  0.26190078  0.60825847  1
  O  O305  1  0.74344887  0.76427138  0.12541994  1
  O  O306  1  0.76099405  0.75922450  0.62331178  1
  O  O307  1  0.24224848  0.24920278  0.38203452  1
  O  O308  1  0.24046251  0.25103611  0.88218225  1
  O  O309  1  0.24173294  0.74486736  0.38105225  1
  O  O310  1  0.25634170  0.72922908  0.87192801  1
  O  O311  1  0.75521092  0.25436810  0.38661301  1
  O  O312  1  0.74830314  0.24599858  0.88617703  1
  O  O313  1  0.73976429  0.74212328  0.37110104  1
  O  O314  1  0.72323970  0.75843054  0.87751542  1
  O  O315  1  0.00449031  0.11966070  0.01172337  1
  O  O316  1  0.00126940  0.11951398  0.50698739  1
  O  O317  1  0.01127180  0.61711876  0.00958101  1
  O  O318  1  0.00611593  0.61615480  0.50279883  1
  O  O319  1  0.51743450  0.13546963  0.00956042  1
  O  O320  1  0.50006529  0.12983287  0.50498513  1
  O  O321  1  0.51328323  0.61182835  0.01506992  1
  O  O322  1  0.50000595  0.61397504  0.50192361  1
  O  O323  1  0.49684633  0.38737007  0.49557729  1
  O  O324  1  0.48796354  0.37053027  0.99197798  1
  O  O325  1  0.49126179  0.87915923  0.49074250  1
  O  O326  1  0.50587960  0.88231710  1.01718346  1
  O  O327  1  0.99370850  0.38007800  0.49350909  1
  O  O328  1  1.00609907  0.38409051  0.99332981  1
  O  O329  1  0.98821924  0.88195404  0.49759753  1
  O  O330  1  0.99475447  0.88394052  0.99983169  1
  O  O331  1  0.49561371  0.49480213  0.38329128  1
  O  O332  1  0.48918097  0.48180594  0.86490211  1
  O  O333  1  0.50328436  0.98463082  0.37514764  1
  O  O334  1  0.49930154  1.00723219  0.89164183  1
  O  O335  1  0.99814408  0.49470118  0.38105944  1
  O  O336  1  1.00123633  0.49156880  0.88849450  1
  O  O337  1  1.00009645  0.98765363  0.38487275  1
  O  O338  1  0.99469400  1.00376807  0.88786600  1
  O  O339  1  0.00542428  0.00559172  0.11830903  1
  O  O340  1  0.00445797  0.00534335  0.62071449  1
  O  O341  1  0.00770918  0.50529601  0.12213279  1
  O  O342  1  0.00679848  0.50059178  0.61945788  1
  O  O343  1  0.50657849  0.00487540  0.12505203  1
  O  O344  1  0.50327144  0.02235895  0.61075166  1
  O  O345  1  0.51479361  0.50580748  0.13534663  1
  O  O346  1  0.50378159  0.50651306  0.61918960  1
  O  O347  1  0.25672890  0.37907180  0.23966168  1
  O  O348  1  0.23798111  0.38335839  0.74996106  1
  O  O349  1  0.24083764  0.87414777  0.23848077  1
  O  O350  1  0.25735104  0.89398290  0.73264996  1
  O  O351  1  0.74606823  0.38464217  0.25078911  1
  O  O352  1  0.74531185  0.37261990  0.74092503  1
  O  O353  1  0.74443734  0.88225217  0.24328522  1
  O  O354  1  0.75177265  0.87396147  0.73320872  1
  O  O355  1  0.26437342  0.12577992  0.24894953  1
  O  O356  1  0.24401831  0.12359661  0.75456416  1
  O  O357  1  0.25688290  0.61881128  0.25564051  1
  O  O358  1  0.24223386  0.60904496  0.75720931  1
  O  O359  1  0.76025130  0.11687488  0.24339525  1
  O  O360  1  0.75469376  0.13503941  0.77047404  1
  O  O361  1  0.75699919  0.62015731  0.25710888  1
  O  O362  1  0.74653688  0.60752264  0.74532263  1
  O  O363  1  0.37538889  0.13070958  0.36031536  1
  O  O364  1  0.36234013  0.15432615  0.86656996  1
  O  O365  1  0.37078293  0.61964482  0.36941439  1
  O  O366  1  0.36730794  0.60454705  0.86996974  1
  O  O367  1  0.88550971  0.12253493  0.35937513  1
  O  O368  1  0.86951493  0.11403791  0.87975515  1
  O  O369  1  0.86984798  0.62170074  0.37043900  1
  O  O370  1  0.87075683  0.61465323  0.88132054  1
  O  O371  1  0.13349191  0.38395146  0.12496334  1
  O  O372  1  0.12499024  0.38609783  0.63078769  1
  O  O373  1  0.12964459  0.87921054  0.13175317  1
  O  O374  1  0.13877749  0.89089704  0.61429157  1
  O  O375  1  0.62892566  0.38202461  0.13362057  1
  O  O376  1  0.63303570  0.37747559  0.63012015  1
  O  O377  1  0.62860432  0.88509893  0.12873049  1
  O  O378  1  0.64162591  0.87000734  0.61123504  1
  O  O379  1  0.12438171  0.24619886  0.26169115  1
  O  O380  1  0.11491954  0.25800034  0.75699496  1
  O  O381  1  0.12638554  0.76112613  0.25760912  1
  O  O382  1  0.11830930  0.76355553  0.70889645  1
  O  O383  1  0.62706823  0.26531664  0.24823442  1
  O  O384  1  0.61514357  0.24765409  0.76266973  1
  O  O385  1  0.62366524  0.76281906  0.25679172  1
  O  O386  1  0.62110541  0.75409082  0.75298876  1
  O  O387  1  0.37965394  0.24001832  0.24685985  1
  O  O388  1  0.38041165  0.26320991  0.73673735  1
  O  O389  1  0.37563579  0.73358644  0.25450500  1
  O  O390  1  0.36845371  0.75241862  0.73080263  1
  O  O391  1  0.87973470  0.24197773  0.24325306  1
  O  O392  1  0.88964418  0.24726559  0.75721306  1
  O  O393  1  0.87230045  0.74012102  0.25533170  1
  O  O394  1  0.86873732  0.74644131  0.74233612  1
  O  O395  1  0.38091439  0.49631626  0.49653406  1
  O  O396  1  0.36986859  0.49410787  0.98990571  1
  O  O397  1  0.37470220  0.98927109  0.50171203  1
  O  O398  1  0.36718183  1.02760483  0.98177037  1
  O  O399  1  0.87979253  0.49195546  0.49354790  1
  O  O400  1  0.88914488  0.49921104  1.00955199  1
  O  O401  1  0.88474489  0.99572246  0.49928784  1
  O  O402  1  0.88530546  0.99475908  0.99690705  1
  O  O403  1  0.11553034  0.00890305  0.01184310  1
  O  O404  1  0.11140643  0.00655565  0.50776167  1
  O  O405  1  0.11708441  0.50639879  0.01405450  1
  O  O406  1  0.12019549  0.50255007  0.50776282  1
  O  O407  1  0.62926299  0.00446371  0.00846063  1
  O  O408  1  0.63511134  0.01280838  0.48362923  1
  O  O409  1  0.63515782  0.50373564  0.01763208  1
  O  O410  1  0.61731221  0.50207110  0.50715351  1
  O  O411  1  0.36836965  0.37924638  0.11957474  1
  O  O412  1  0.37288503  0.36756611  0.61414897  1
  O  O413  1  0.36079100  0.87293681  0.13099043  1
  O  O414  1  0.37123479  0.86742831  0.61178534  1
  O  O415  1  0.87756459  0.36128463  0.13267619  1
  O  O416  1  0.86689795  0.37980531  0.61304425  1
  O  O417  1  0.86754247  0.87812185  0.11545530  1
  O  O418  1  0.87110165  0.86485388  0.61893222  1
  O  O419  1  0.11957010  0.13546089  0.38217545  1
  O  O420  1  0.13081294  0.13288639  0.88222006  1
  O  O421  1  0.12796171  0.63168577  0.38064046  1
  O  O422  1  0.13217439  0.61432109  0.88922393  1
  O  O423  1  0.62856661  0.12713516  0.36789454  1
  O  O424  1  0.63678946  0.13460257  0.89081765  1
  O  O425  1  0.63316688  0.63198600  0.37181514  1
  O  O426  1  0.62078161  0.60736602  0.89411144  1
