# generated using pymatgen
data_V85Zn86O256
_symmetry_space_group_name_H-M   'P 1'
_cell_length_a   16.93153450
_cell_length_b   16.94838727
_cell_length_c   16.92995898
_cell_angle_alpha   89.97969333
_cell_angle_beta   89.97208448
_cell_angle_gamma   89.96193720
_symmetry_Int_Tables_number   1
_chemical_formula_structural   V85Zn86O256
_chemical_formula_sum   'V85 Zn86 O256'
_cell_volume   4858.25638623
_cell_formula_units_Z   1
loop_
 _symmetry_equiv_pos_site_id
 _symmetry_equiv_pos_as_xyz
  1  'x, y, z'
loop_
 _atom_site_type_symbol
 _atom_site_label
 _atom_site_symmetry_multiplicity
 _atom_site_fract_x
 _atom_site_fract_y
 _atom_site_fract_z
 _atom_site_occupancy
  V  V0  1  0.62586900  0.62434310  0.00678063  1
  V  V1  1  0.00027164  0.37410110  0.37325394  1
  V  V2  1  0.87574691  0.12577828  0.74958167  1
  V  V3  1  0.49973546  0.75614343  0.25798776  1
  V  V4  1  0.75062410  0.12655844  0.87504955  1
  V  V5  1  0.75071681  0.75380471  0.50136706  1
  V  V6  1  0.12959951  0.50359796  0.12316909  1
  V  V7  1  0.00087422  0.12614009  0.62271012  1
  V  V8  1  -0.00757008  0.62708432  0.62871307  1
  V  V9  1  0.24566441  0.37201926  0.63686877  1
  V  V10  1  0.62565714  0.12521620  0.00190080  1
  V  V11  1  0.87261088  0.25029680  0.62535436  1
  V  V12  1  -0.00905731  0.75284909  0.75056065  1
  V  V13  1  0.37718699  0.00341614  0.86583118  1
  V  V14  1  0.50511422  -0.01364578  0.49843062  1
  V  V15  1  0.12375040  -0.00763655  0.62957421  1
  V  V16  1  0.87268744  0.37461762  0.49919664  1
  V  V17  1  0.49821232  0.74794269  0.75149453  1
  V  V18  1  0.25268420  0.87512001  0.62338515  1
  V  V19  1  0.25009587  0.87474800  0.12383884  1
  V  V20  1  0.12042486  -0.00021314  0.12138207  1
  V  V21  1  0.87732445  0.12989293  0.25428459  1
  V  V22  1  0.00496097  0.88282817  0.87284870  1
  V  V23  1  0.12111421  0.49664234  0.63763229  1
  V  V24  1  0.00033215  0.50547286  0.50025211  1
  V  V25  1  0.62008292  0.13096925  0.49809027  1
  V  V26  1  0.62578043  0.37528778  0.25010303  1
  V  V27  1  0.12341953  0.25561803  0.86720323  1
  V  V28  1  0.37531286  -0.01769178  0.38137911  1
  V  V29  1  0.25234145  0.75145040  -0.00686979  1
  V  V30  1  -0.00943740  0.88017753  0.37192570  1
  V  V31  1  0.12328577  0.87178298  0.25081110  1
  V  V32  1  0.12541981  0.62879319  -0.00642698  1
  V  V33  1  0.12191900  0.12179064  -0.00222828  1
  V  V34  1  0.49090767  0.24524621  0.75189998  1
  V  V35  1  0.74736030  0.37396384  0.62713917  1
  V  V36  1  0.37688056  0.87845722  -0.00070167  1
  V  V37  1  0.75614508  0.86347237  0.12357946  1
  V  V38  1  0.37459897  0.75299204  0.61946314  1
  V  V39  1  0.25163228  0.37708221  0.12416967  1
  V  V40  1  0.37375338  0.24699114  0.12391297  1
  V  V41  1  0.12872276  0.74500331  0.37298310  1
  V  V42  1  0.62429378  0.37359017  0.75535874  1
  V  V43  1  0.62272733  0.49933278  0.62767853  1
  V  V44  1  0.62895140  -0.00258984  0.12583867  1
  V  V45  1  0.49869763  0.12261052  0.12776511  1
  V  V46  1  0.75333175  0.51320549  0.75386476  1
  V  V47  1  0.74801047  0.13222710  0.37537347  1
  V  V48  1  0.87793497  0.85877979  0.00190967  1
  V  V49  1  0.24894872  0.00393065  0.25577148  1
  V  V50  1  0.37169502  0.12486402  0.26296970  1
  V  V51  1  0.62718146  0.88163635  0.73799209  1
  V  V52  1  0.25022811  0.24761738  0.49737705  1
  V  V53  1  -0.00588184  0.13031566  0.12163173  1
  V  V54  1  0.26200702  0.51444743  0.75072481  1
  V  V55  1  0.49603047  0.11968963  0.62680821  1
  V  V56  1  0.75386082  0.25107716  0.00840680  1
  V  V57  1  0.49251140  0.62148136  0.63322378  1
  V  V58  1  0.62208998  0.62441096  0.49761945  1
  V  V59  1  -0.00118650  0.49986934  -0.00287258  1
  V  V60  1  0.87850063  0.00330384  0.88570136  1
  V  V61  1  0.48664520  0.38537253  0.88656473  1
  V  V62  1  0.36939488  0.50478041  0.37816159  1
  V  V63  1  0.87679202  0.37211724  0.00343199  1
  V  V64  1  0.12832805  0.24943945  0.37178172  1
  V  V65  1  0.75348573  0.50589237  0.24486499  1
  V  V66  1  0.12999005  0.75443622  0.86310756  1
  V  V67  1  -0.01189255  0.63062102  0.12897678  1
  V  V68  1  0.13466702  0.62329599  0.49775875  1
  V  V69  1  0.50621583  0.87818493  0.87604847  1
  V  V70  1  0.30779067  0.57008827  0.92895897  1
  V  V71  1  0.75650946  0.00019026  0.25654996  1
  V  V72  1  0.24700427  0.50576443  0.25475239  1
  V  V73  1  0.38184545  0.74460352  0.12237147  1
  V  V74  1  0.50647320  0.24560221  0.25640244  1
  V  V75  1  -0.00773071  0.00201479  0.49537744  1
  V  V76  1  0.38232903  0.61959416  0.24356956  1
  V  V77  1  0.25473362  0.12527901  0.86569438  1
  V  V78  1  0.50259436  0.37004067  0.37855991  1
  V  V79  1  0.49821753  0.49783087  0.50183726  1
  V  V80  1  0.37288646  0.37303983  0.50358842  1
  V  V81  1  0.62389981  0.25037788  0.87641167  1
  V  V82  1  0.25169729  0.25206022  -0.00007524  1
  V  V83  1  0.12802978  0.12268043  0.49401013  1
  V  V84  1  0.75205325  0.62380863  0.37463573  1
  Zn  Zn85  1  0.00409628  0.25886032  0.74374471  1
  Zn  Zn86  1  0.76083122  0.64492309  0.88866256  1
  Zn  Zn87  1  0.60992589  0.49920564  0.12132966  1
  Zn  Zn88  1  0.25548560  0.75409626  0.49342325  1
  Zn  Zn89  1  0.00115218  0.38065905  0.86565534  1
  Zn  Zn90  1  -0.01685366  0.75438461  0.24043445  1
  Zn  Zn91  1  0.63199101  0.75091877  0.88297354  1
  Zn  Zn92  1  0.12372653  0.37562683  0.24849395  1
  Zn  Zn93  1  0.87538529  0.49764985  0.36842525  1
  Zn  Zn94  1  0.75340559  0.37284222  0.12750684  1
  Zn  Zn95  1  0.74173544  0.25451470  0.49501646  1
  Zn  Zn96  1  0.37024386  0.24327643  0.62974880  1
  Zn  Zn97  1  0.87261435  0.87949241  0.49984154  1
  Zn  Zn98  1  0.24919186  -0.00334639  0.74857230  1
  Zn  Zn99  1  0.87389450  0.50328113  0.87213409  1
  Zn  Zn100  1  0.62247776  0.87748831  0.25126796  1
  Zn  Zn101  1  0.75248467  0.88807349  0.61866764  1
  Zn  Zn102  1  0.61710601  0.76287969  0.38121258  1
  Zn  Zn103  1  -0.00607485  0.25706966  0.24108319  1
  Zn  Zn104  1  0.74525684  0.00507104  0.74557793  1
  Zn  Zn105  1  0.49947108  0.00107680  0.00293647  1
  Zn  Zn106  1  0.87298874  0.75240053  0.62282297  1
  Zn  Zn107  1  0.18496297  0.18492369  0.18812986  1
  Zn  Zn108  1  0.18785544  0.18165394  0.68460557  1
  Zn  Zn109  1  0.19054919  0.68622657  0.18463877  1
  Zn  Zn110  1  0.18378301  0.68820628  0.68281848  1
  Zn  Zn111  1  0.68722345  0.18639561  0.18914907  1
  Zn  Zn112  1  0.68359035  0.18431727  0.68353477  1
  Zn  Zn113  1  0.68317662  0.68426056  0.18348526  1
  Zn  Zn114  1  0.68045593  0.69271977  0.68579005  1
  Zn  Zn115  1  0.31264974  0.31619093  0.31240625  1
  Zn  Zn116  1  0.31153895  0.31524746  0.81323673  1
  Zn  Zn117  1  0.31001746  0.80924880  0.30907669  1
  Zn  Zn118  1  0.31500358  0.81512572  0.80516832  1
  Zn  Zn119  1  0.81244822  0.31050593  0.31097413  1
  Zn  Zn120  1  0.81465722  0.31548403  0.81748937  1
  Zn  Zn121  1  0.80630671  0.81141053  0.31072507  1
  Zn  Zn122  1  0.81245834  0.81526271  0.81230291  1
  Zn  Zn123  1  0.18634952  0.43485581  0.44168047  1
  Zn  Zn124  1  0.18878131  0.43412657  0.93846739  1
  Zn  Zn125  1  0.18783108  0.93585715  0.43879516  1
  Zn  Zn126  1  0.18904316  0.93799461  0.93540806  1
  Zn  Zn127  1  0.68511510  0.43804908  0.43434575  1
  Zn  Zn128  1  0.68387963  0.44170280  0.94004784  1
  Zn  Zn129  1  0.68373621  0.93928532  0.43328738  1
  Zn  Zn130  1  0.69418145  0.93507927  0.93757102  1
  Zn  Zn131  1  0.30989676  0.06296715  0.06180638  1
  Zn  Zn132  1  0.31402195  0.06060234  0.56007157  1
  Zn  Zn133  1  0.44720090  0.55789639  0.06054295  1
  Zn  Zn134  1  0.31225245  0.56164534  0.56874919  1
  Zn  Zn135  1  0.81203855  0.06115684  0.06538512  1
  Zn  Zn136  1  0.80792252  0.06321208  0.56299365  1
  Zn  Zn137  1  0.80934724  0.56156507  0.06024743  1
  Zn  Zn138  1  0.81109896  0.56199299  0.56200245  1
  Zn  Zn139  1  0.43184312  0.42798675  0.19219645  1
  Zn  Zn140  1  0.43594286  0.43166741  0.69315407  1
  Zn  Zn141  1  0.43590352  0.93714474  0.18795850  1
  Zn  Zn142  1  0.43809153  0.93500430  0.68356279  1
  Zn  Zn143  1  0.93741885  0.43979492  0.18282122  1
  Zn  Zn144  1  0.93569571  0.43564604  0.68904328  1
  Zn  Zn145  1  0.93653123  0.94256553  0.18420641  1
  Zn  Zn146  1  0.93402316  0.93751057  0.68749103  1
  Zn  Zn147  1  0.06152279  0.06414855  0.31075738  1
  Zn  Zn148  1  0.06095185  0.06681479  0.81064966  1
  Zn  Zn149  1  0.06129986  0.56372721  0.31243033  1
  Zn  Zn150  1  0.06249535  0.56759347  0.81161862  1
  Zn  Zn151  1  0.56387555  0.05633091  0.31763147  1
  Zn  Zn152  1  0.56131423  0.06290319  0.81299390  1
  Zn  Zn153  1  0.56076923  0.55975643  0.30983746  1
  Zn  Zn154  1  0.56633014  0.56454263  0.82377644  1
  Zn  Zn155  1  0.43526561  0.18462332  0.43978431  1
  Zn  Zn156  1  0.43862602  0.18866763  0.93878159  1
  Zn  Zn157  1  0.43458460  0.68340605  0.43732395  1
  Zn  Zn158  1  0.44768431  0.69309887  0.93770131  1
  Zn  Zn159  1  0.93563161  0.18876050  0.43437013  1
  Zn  Zn160  1  0.93986998  0.18874750  0.93887670  1
  Zn  Zn161  1  0.91721388  0.70897744  0.40027945  1
  Zn  Zn162  1  0.93991470  0.68370879  0.93052272  1
  Zn  Zn163  1  0.06527665  0.31274074  0.05809467  1
  Zn  Zn164  1  0.06235427  0.31438850  0.56179436  1
  Zn  Zn165  1  0.05904689  0.81218464  0.05798993  1
  Zn  Zn166  1  0.06251974  0.81223094  0.55836948  1
  Zn  Zn167  1  0.56112833  0.31408275  0.06442396  1
  Zn  Zn168  1  0.56066719  0.30755388  0.56704868  1
  Zn  Zn169  1  0.56425120  0.80958477  0.06509784  1
  Zn  Zn170  1  0.56141244  0.80863065  0.56341996  1
  O  O171  1  0.12153034  0.11726299  0.11749778  1
  O  O172  1  0.11926713  0.12171065  0.61166145  1
  O  O173  1  0.12629024  0.61870438  0.11172914  1
  O  O174  1  0.11501910  0.61661482  0.61640367  1
  O  O175  1  0.61960055  0.11812437  0.12158110  1
  O  O176  1  0.61316850  0.12683149  0.60935814  1
  O  O177  1  0.62181546  0.62007745  0.11440965  1
  O  O178  1  0.61379863  0.62007606  0.61537021  1
  O  O179  1  0.38344059  0.38341729  0.38080983  1
  O  O180  1  0.38715310  0.37013612  0.87656748  1
  O  O181  1  0.37325907  0.88399472  0.37249300  1
  O  O182  1  0.38600747  0.88232606  0.87905875  1
  O  O183  1  0.88183681  0.37547939  0.38180245  1
  O  O184  1  0.87895556  0.38273082  0.88646085  1
  O  O185  1  0.88813473  0.88029641  0.37617743  1
  O  O186  1  0.88175842  0.88482151  0.88454409  1
  O  O187  1  0.26187746  -0.00418001  0.36858106  1
  O  O188  1  0.25741014  0.00774024  0.87257545  1
  O  O189  1  0.25669206  0.49104427  0.36732250  1
  O  O190  1  0.24942723  0.50328347  0.86629931  1
  O  O191  1  0.74620216  0.01203098  0.36170729  1
  O  O192  1  0.75977647  0.00894276  0.87073371  1
  O  O193  1  0.74790784  0.50375608  0.36324794  1
  O  O194  1  0.74741390  0.49685185  0.85775578  1
  O  O195  1  0.23922675  0.49101659  0.13173585  1
  O  O196  1  0.24296952  0.49402613  0.63565994  1
  O  O197  1  0.24139136  0.99493700  0.13285803  1
  O  O198  1  0.24310518  0.99513932  0.62384197  1
  O  O199  1  0.74612289  0.49646226  0.13831856  1
  O  O200  1  0.74215022  0.49369643  0.63250596  1
  O  O201  1  0.74459407  0.99583202  0.13434523  1
  O  O202  1  0.74935101  1.00141129  0.63211486  1
  O  O203  1  0.00167332  0.37569611  0.25758117  1
  O  O204  1  -0.00045303  0.37179561  0.75221414  1
  O  O205  1  0.00630536  0.87540010  0.25282742  1
  O  O206  1  -0.00208174  0.86939586  0.76214385  1
  O  O207  1  0.50392386  0.36408782  0.26035553  1
  O  O208  1  0.50731985  0.36429911  0.75625047  1
  O  O209  1  0.49601329  0.85905783  0.24810490  1
  O  O210  1  0.50831604  0.87216805  0.75599088  1
  O  O211  1  0.49314607  0.12943872  0.24895353  1
  O  O212  1  0.50744806  0.13224643  0.73970383  1
  O  O213  1  0.48707733  0.63166521  0.25429876  1
  O  O214  1  0.51071182  0.63424560  0.74322432  1
  O  O215  1  0.99355216  0.12792204  0.24278125  1
  O  O216  1  0.99238585  0.13252247  0.74133124  1
  O  O217  1  1.00628693  0.62259293  0.23088432  1
  O  O218  1  1.00455256  0.63617996  0.73965557  1
  O  O219  1  0.36708364  0.24045794  0.01575598  1
  O  O220  1  0.36529537  0.25484498  0.50091320  1
  O  O221  1  0.37341363  0.75800220  0.00563478  1
  O  O222  1  0.37328498  0.74166579  0.51328155  1
  O  O223  1  0.86568358  0.25737150  -0.00695243  1
  O  O224  1  0.87338075  0.26239759  0.50355600  1
  O  O225  1  0.87992504  0.76105293  -0.00232588  1
  O  O226  1  0.86370119  0.75346792  0.49537504  1
  O  O227  1  0.12964850  0.24494483  0.49072798  1
  O  O228  1  0.13387683  0.24183782  0.99059663  1
  O  O229  1  0.12701130  0.73889200  0.49269931  1
  O  O230  1  0.13176774  0.74445552  0.99371600  1
  O  O231  1  0.62187941  0.23658385  0.49867108  1
  O  O232  1  0.63145124  0.24498689  0.99584551  1
  O  O233  1  0.62665622  0.73936986  0.49893233  1
  O  O234  1  0.61771465  0.73486822  1.00119606  1
  O  O235  1  0.49073800  0.24517056  0.13454977  1
  O  O236  1  0.49643472  0.24114007  0.63531197  1
  O  O237  1  0.48630769  0.75472402  0.13530780  1
  O  O238  1  0.49436752  0.74133927  0.63019848  1
  O  O239  1  1.01361423  0.23657066  0.12678435  1
  O  O240  1  0.99291681  0.24368687  0.62175465  1
  O  O241  1  1.00295682  0.73562274  0.12494789  1
  O  O242  1  1.00286643  0.74352562  0.63219635  1
  O  O243  1  0.00694550  0.26208311  0.37480196  1
  O  O244  1  0.01699063  0.24801364  0.87487062  1
  O  O245  1  0.01745762  0.76635254  0.37690286  1
  O  O246  1  0.00764240  0.75868541  0.86745627  1
  O  O247  1  0.49040049  0.25765919  0.36744982  1
  O  O248  1  0.50679243  0.25283352  0.86917402  1
  O  O249  1  0.49649915  0.74525604  0.36198873  1
  O  O250  1  0.50360892  0.76269166  0.86593334  1
  O  O251  1  0.24256658  0.13852271  0.50522083  1
  O  O252  1  0.24144624  0.13458619  0.99502680  1
  O  O253  1  0.23735450  0.62320707  0.50562747  1
  O  O254  1  0.24323441  0.63203609  0.98898611  1
  O  O255  1  0.73732268  0.12619683  0.49280415  1
  O  O256  1  0.74658386  0.13198566  0.99539675  1
  O  O257  1  0.73865473  0.62805979  0.49686406  1
  O  O258  1  0.73562696  0.62261736  1.00247348  1
  O  O259  1  0.24727644  0.36073582  0.00783261  1
  O  O260  1  0.25248964  0.36514123  0.51053988  1
  O  O261  1  0.25665103  0.87078227  0.00536495  1
  O  O262  1  0.24313234  0.87102679  0.51478425  1
  O  O263  1  0.75631543  0.36785217  0.00045692  1
  O  O264  1  0.75553891  0.37584947  0.50452681  1
  O  O265  1  0.76755810  0.88162999  0.00924619  1
  O  O266  1  0.74910742  0.86789182  0.49822503  1
  O  O267  1  0.13135637  0.50070769  0.24254154  1
  O  O268  1  0.13198712  0.50439135  0.74058220  1
  O  O269  1  0.13303990  0.99460186  0.24516559  1
  O  O270  1  0.12677947  1.01245227  0.73280447  1
  O  O271  1  0.63282156  0.49029013  0.24979780  1
  O  O272  1  0.63102005  0.49081665  0.74564821  1
  O  O273  1  0.63257034  1.00317139  0.23878463  1
  O  O274  1  0.62226553  0.98477852  0.75492659  1
  O  O275  1  0.36969468  0.00409405  0.26008463  1
  O  O276  1  0.37613516  -0.00328789  0.76281724  1
  O  O277  1  0.36736194  0.50363480  0.25843762  1
  O  O278  1  0.36082570  0.50106993  0.74578025  1
  O  O279  1  0.86683934  0.01482831  0.24353890  1
  O  O280  1  0.87710033  0.01540690  0.75814481  1
  O  O281  1  0.85799820  0.49386699  0.25016621  1
  O  O282  1  0.85577780  0.49759306  0.74553004  1
  O  O283  1  0.11649965  0.36813774  0.37501235  1
  O  O284  1  0.12676264  0.35811511  0.87893179  1
  O  O285  1  0.12191808  0.87312824  0.36172591  1
  O  O286  1  0.11435902  0.86845297  0.88257302  1
  O  O287  1  0.61080992  0.37714995  0.36704832  1
  O  O288  1  0.62111724  0.36936065  0.86615400  1
  O  O289  1  0.62670132  0.87410515  0.36366186  1
  O  O290  1  0.61442415  0.87879364  0.87294250  1
  O  O291  1  0.37882747  0.12750898  0.13630381  1
  O  O292  1  0.38969910  0.12666914  0.61813512  1
  O  O293  1  0.37603845  0.63307503  0.13171486  1
  O  O294  1  0.38775447  0.62857558  0.62515711  1
  O  O295  1  0.88933381  0.12099836  0.12802253  1
  O  O296  1  0.87960423  0.13191880  0.63071279  1
  O  O297  1  0.89018646  0.61901967  0.12168915  1
  O  O298  1  0.88919263  0.62801194  0.61665932  1
  O  O299  1  0.25299936  0.25309399  0.11999266  1
  O  O300  1  0.24865123  0.25654912  0.62040892  1
  O  O301  1  0.26035097  0.75518987  0.11742752  1
  O  O302  1  0.25831962  0.75514120  0.62539854  1
  O  O303  1  0.74583640  0.25026291  0.11230888  1
  O  O304  1  0.75400853  0.25641002  0.62040560  1
  O  O305  1  0.75006407  0.76478183  0.13723514  1
  O  O306  1  0.74894175  0.75016447  0.61097786  1
  O  O307  1  0.24133507  0.25836670  0.38452156  1
  O  O308  1  0.24513428  0.24439333  0.88114865  1
  O  O309  1  0.23569340  0.75443680  0.37552999  1
  O  O310  1  0.24161973  0.76303238  0.87919318  1
  O  O311  1  0.74925293  0.23764776  0.37569753  1
  O  O312  1  0.74250644  0.24512601  0.88349200  1
  O  O313  1  0.74001314  0.73931696  0.38511905  1
  O  O314  1  0.74513578  0.75694458  0.87570193  1
  O  O315  1  0.01360087  0.12814174  0.00571758  1
  O  O316  1  0.00704049  0.12079345  0.50207972  1
  O  O317  1  0.00865709  0.61945080  0.00883038  1
  O  O318  1  0.00704419  0.61047821  0.50396951  1
  O  O319  1  0.50730008  0.12411236  0.00969336  1
  O  O320  1  0.50691485  0.11990419  0.50314663  1
  O  O321  1  0.51208003  0.62120100  -0.00679592  1
  O  O322  1  0.50402904  0.61578478  0.50671054  1
  O  O323  1  0.49538451  0.37729697  0.49627634  1
  O  O324  1  0.50368673  0.37138940  0.98564112  1
  O  O325  1  0.50500208  0.88755645  0.50138400  1
  O  O326  1  0.49538876  0.87723594  0.99303417  1
  O  O327  1  0.99387547  0.38403319  0.49390927  1
  O  O328  1  0.99594769  0.38299790  0.99723557  1
  O  O329  1  1.00188254  0.88609112  0.49019428  1
  O  O330  1  0.98762234  0.87483436  0.99085536  1
  O  O331  1  0.49152287  0.49113684  0.38137615  1
  O  O332  1  0.49936742  0.48333627  0.86697325  1
  O  O333  1  0.48631705  1.00149673  0.38491915  1
  O  O334  1  0.49328171  0.99628427  0.88026848  1
  O  O335  1  0.99891116  0.49073636  0.38150598  1
  O  O336  1  1.00624677  0.50108965  0.88802360  1
  O  O337  1  1.01044892  0.99190143  0.38339828  1
  O  O338  1  0.99431211  0.99302640  0.86988818  1
  O  O339  1  0.01520760  0.00991620  0.12960116  1
  O  O340  1  0.00707587  0.00614774  0.61694391  1
  O  O341  1  0.01194838  0.50615547  0.11585475  1
  O  O342  1  0.00528697  0.50531106  0.62067311  1
  O  O343  1  0.50866621  0.00418428  0.12634678  1
  O  O344  1  0.49260870  0.00518911  0.60810831  1
  O  O345  1  0.49649013  0.49540422  0.13647504  1
  O  O346  1  0.50254751  0.50357999  0.62422356  1
  O  O347  1  0.24712052  0.38554440  0.24317693  1
  O  O348  1  0.25109388  0.38238347  0.74051110  1
  O  O349  1  0.24335833  0.88335891  0.24330461  1
  O  O350  1  0.25030790  0.87891421  0.73301310  1
  O  O351  1  0.74103624  0.38121511  0.25171379  1
  O  O352  1  0.74019706  0.37646453  0.74511545  1
  O  O353  1  0.75519473  0.88627390  0.24190945  1
  O  O354  1  0.73483791  0.87696977  0.74800147  1
  O  O355  1  0.25636414  0.11183115  0.24592266  1
  O  O356  1  0.25129516  0.12365259  0.76246487  1
  O  O357  1  0.26011667  0.61165776  0.24439920  1
  O  O358  1  0.24868306  0.61305063  0.74408528  1
  O  O359  1  0.75598819  0.12166645  0.25553840  1
  O  O360  1  0.75598401  0.12861498  0.75802695  1
  O  O361  1  0.73983302  0.61233415  0.25817534  1
  O  O362  1  0.74073743  0.61316933  0.74484205  1
  O  O363  1  0.37465535  0.11793393  0.36507129  1
  O  O364  1  0.36603876  0.11602813  0.88444164  1
  O  O365  1  0.37515073  0.60993859  0.36873774  1
  O  O366  1  0.36853370  0.63004371  0.87819916  1
  O  O367  1  0.86573251  0.12654433  0.36709837  1
  O  O368  1  0.87309276  0.12218279  0.86862824  1
  O  O369  1  0.85394080  0.61105230  0.39049756  1
  O  O370  1  0.87048465  0.61626676  0.87874401  1
  O  O371  1  0.13412035  0.38170178  0.12519440  1
  O  O372  1  0.13335690  0.38548997  0.61875343  1
  O  O373  1  0.12621948  0.88033516  0.13248606  1
  O  O374  1  0.12820718  0.88707960  0.62033041  1
  O  O375  1  0.62573643  0.37341468  0.14015394  1
  O  O376  1  0.62638296  0.37764029  0.63552783  1
  O  O377  1  0.63434088  0.88214147  0.12853565  1
  O  O378  1  0.62346360  0.87446471  0.63616974  1
  O  O379  1  0.12579932  0.25023641  0.26310363  1
  O  O380  1  0.12784070  0.24226696  0.76462122  1
  O  O381  1  0.12486986  0.75748154  0.25288534  1
  O  O382  1  0.11877596  0.74720636  0.76013212  1
  O  O383  1  0.61218913  0.25351150  0.24886003  1
  O  O384  1  0.61791507  0.25625311  0.75548148  1
  O  O385  1  0.60542555  0.74544081  0.24867719  1
  O  O386  1  0.61364965  0.76400371  0.74987312  1
  O  O387  1  0.37829321  0.24147052  0.24464080  1
  O  O388  1  0.38697469  0.25072456  0.75128220  1
  O  O389  1  0.37986683  0.74065067  0.24432783  1
  O  O390  1  0.39050428  0.75500762  0.73924574  1
  O  O391  1  0.87600800  0.23711489  0.24859377  1
  O  O392  1  0.87420319  0.24022207  0.74666810  1
  O  O393  1  0.88451382  0.73578146  0.29056698  1
  O  O394  1  0.88755854  0.75477978  0.74670498  1
  O  O395  1  0.37684350  0.49415023  0.49585593  1
  O  O396  1  0.36005890  0.51542387  0.99269543  1
  O  O397  1  0.38245659  1.00182061  0.48627287  1
  O  O398  1  0.37434191  0.99214547  0.99376069  1
  O  O399  1  0.88230724  0.48773799  0.50211183  1
  O  O400  1  0.88535618  0.49284991  1.00123212  1
  O  O401  1  0.88954443  1.00527432  0.50078607  1
  O  O402  1  0.87615166  1.00404942  0.98762491  1
  O  O403  1  0.13366870  0.00946380  0.00931059  1
  O  O404  1  0.11994788  0.00919666  0.50542854  1
  O  O405  1  0.12327658  0.50727744  0.00469973  1
  O  O406  1  0.11851168  0.50417056  0.50786010  1
  O  O407  1  0.62832805  0.00507823  0.01211482  1
  O  O408  1  0.60935941  0.00969666  0.49381412  1
  O  O409  1  0.62379988  0.51095373  0.00405252  1
  O  O410  1  0.61804903  0.50327982  0.50777325  1
  O  O411  1  0.35957442  0.36127740  0.13216609  1
  O  O412  1  0.36529158  0.37091052  0.61987741  1
  O  O413  1  0.36904063  0.87018385  0.11888252  1
  O  O414  1  0.36839280  0.86503954  0.62366447  1
  O  O415  1  0.87414503  0.37653578  0.11024559  1
  O  O416  1  0.86743682  0.36962965  0.61758335  1
  O  O417  1  0.87348133  0.87948816  0.11040597  1
  O  O418  1  0.87253427  0.87142294  0.61877798  1
  O  O419  1  0.12161603  0.13308300  0.38572466  1
  O  O420  1  0.13304878  0.13040313  0.88168330  1
  O  O421  1  0.11864633  0.63279733  0.38404914  1
  O  O422  1  0.11915739  0.63792999  0.88607395  1
  O  O423  1  0.62995423  0.12254867  0.38708286  1
  O  O424  1  0.62953668  0.12968893  0.88229816  1
  O  O425  1  0.62819549  0.61989208  0.38798804  1
  O  O426  1  0.63357349  0.62905372  0.88615609  1
