# generated using pymatgen
data_V85Zn86O256
_symmetry_space_group_name_H-M   'P 1'
_cell_length_a   16.96166473
_cell_length_b   16.94555089
_cell_length_c   16.95450249
_cell_angle_alpha   89.98111694
_cell_angle_beta   90.03271443
_cell_angle_gamma   89.88615151
_symmetry_Int_Tables_number   1
_chemical_formula_structural   V85Zn86O256
_chemical_formula_sum   'V85 Zn86 O256'
_cell_volume   4873.13300433
_cell_formula_units_Z   1
loop_
 _symmetry_equiv_pos_site_id
 _symmetry_equiv_pos_as_xyz
  1  'x, y, z'
loop_
 _atom_site_type_symbol
 _atom_site_label
 _atom_site_symmetry_multiplicity
 _atom_site_fract_x
 _atom_site_fract_y
 _atom_site_fract_z
 _atom_site_occupancy
  V  V0  1  0.62624643  0.36800662  0.75042292  1
  V  V1  1  0.00399621  0.24686752  0.75739041  1
  V  V2  1  0.60997507  0.86914693  0.74149227  1
  V  V3  1  0.24540000  0.00006616  0.24613052  1
  V  V4  1  0.24412727  0.87484068  0.62607614  1
  V  V5  1  0.37170874  0.37886318  0.00246999  1
  V  V6  1  0.74637052  0.87050198  0.12246097  1
  V  V7  1  0.62389140  0.50144457  0.12695260  1
  V  V8  1  0.61964637  0.74308201  0.37930745  1
  V  V9  1  0.61649387  0.12853231  -0.00577931  1
  V  V10  1  0.75026840  0.50311972  0.75149707  1
  V  V11  1  0.87818158  0.37341000  0.49607934  1
  V  V12  1  0.61832578  0.87339988  0.25335307  1
  V  V13  1  0.50044106  0.63036971  0.62799905  1
  V  V14  1  0.12452941  0.10792349  0.49719307  1
  V  V15  1  -0.00217334  0.10974402  0.62603270  1
  V  V16  1  0.62801947  0.37877834  0.25221736  1
  V  V17  1  0.37257071  0.88260242  -0.00495957  1
  V  V18  1  0.74883444  0.75386395  0.50263373  1
  V  V19  1  0.49633822  0.37690036  0.38091012  1
  V  V20  1  0.37455988  0.50591579  0.87389740  1
  V  V21  1  0.76020276  0.50318069  0.25122409  1
  V  V22  1  0.75730614  0.00755715  0.25012036  1
  V  V23  1  0.49846157  0.12625547  0.12650226  1
  V  V24  1  0.87641412  0.37114585  -0.00062460  1
  V  V25  1  0.87755633  0.25081072  0.62745321  1
  V  V26  1  0.87027580  0.74198728  0.12663058  1
  V  V27  1  -0.00935063  0.74426195  0.25268444  1
  V  V28  1  0.36744731  0.74931974  0.12315239  1
  V  V29  1  0.62774706  0.50776476  0.61878075  1
  V  V30  1  -0.00100647  0.50039818  0.00069236  1
  V  V31  1  0.50129335  0.50702999  0.49816342  1
  V  V32  1  0.01563035  0.01510603  0.00992894  1
  V  V33  1  0.25156031  0.50190901  0.74820225  1
  V  V34  1  0.12576186  0.37490791  0.24778431  1
  V  V35  1  0.12296312  0.74845332  0.37429116  1
  V  V36  1  0.38723624  0.25051686  0.61028624  1
  V  V37  1  0.50080438  0.50522878  0.00145573  1
  V  V38  1  0.87427557  0.12101137  0.75953966  1
  V  V39  1  0.36637714  0.50113627  0.38043624  1
  V  V40  1  0.12048765  0.87593011  0.24401777  1
  V  V41  1  0.75714389  0.62882436  0.37472974  1
  V  V42  1  0.88003349  0.23600516  0.12519215  1
  V  V43  1  0.87340154  0.76216620  0.62273628  1
  V  V44  1  0.00581727  0.23679947  0.23964580  1
  V  V45  1  0.87100681  0.50410370  0.87658873  1
  V  V46  1  0.86924652  0.62768703  0.75165943  1
  V  V47  1  0.17574480  0.16976548  -0.01534361  1
  V  V48  1  0.46298148  0.20220617  0.79789848  1
  V  V49  1  0.62334934  0.12286439  0.49835744  1
  V  V50  1  0.36394539  0.62636180  0.25632253  1
  V  V51  1  0.12113968  0.63113769  -0.00546725  1
  V  V52  1  0.61890075  -0.00190455  0.12276087  1
  V  V53  1  0.87454404  0.88181439  -0.00619160  1
  V  V54  1  0.75217186  -0.01440127  0.74945802  1
  V  V55  1  0.75168860  0.37742321  0.62606594  1
  V  V56  1  0.74619928  0.11828521  0.87569863  1
  V  V57  1  0.49446444  0.75232198  0.25440502  1
  V  V58  1  0.75092194  0.24708272  0.50265637  1
  V  V59  1  0.50837705  0.37885197  0.87019082  1
  V  V60  1  -0.00067237  0.49909436  0.50032085  1
  V  V61  1  0.37394124  0.12502825  0.25242676  1
  V  V62  1  0.63288295  0.62513086  -0.00538796  1
  V  V63  1  0.12366467  0.37507614  0.75444031  1
  V  V64  1  0.00220106  0.74913001  0.76208425  1
  V  V65  1  0.12264472  0.24872055  0.37852117  1
  V  V66  1  0.12591716  0.50053726  0.62433410  1
  V  V67  1  0.37076074  0.25582998  0.12859910  1
  V  V68  1  0.24556595  0.75213191  -0.01513889  1
  V  V69  1  -0.00134112  0.62867820  0.62510810  1
  V  V70  1  0.12545352  0.50250229  0.12498841  1
  V  V71  1  0.37673745  0.75420162  0.63567700  1
  V  V72  1  0.62218754  0.74620548  0.86841833  1
  V  V73  1  0.12651520  0.87013045  0.75724064  1
  V  V74  1  0.50181112  0.25187677  0.25359530  1
  V  V75  1  0.38006522  -0.00893829  0.37215541  1
  V  V76  1  0.74868297  0.37236216  0.12583960  1
  V  V77  1  0.25194100  0.74959178  0.49596449  1
  V  V78  1  0.25936800  0.37495422  0.61788332  1
  V  V79  1  0.12847924  0.62668506  0.49798933  1
  V  V80  1  0.17229146  0.03975237  0.67439374  1
  V  V81  1  0.63677989  0.24796857  0.37423350  1
  V  V82  1  0.74427399  0.24874156  -0.00539054  1
  V  V83  1  0.50058098  -0.00659377  0.49751717  1
  V  V84  1  -0.00941205  0.88577208  0.38205134  1
  Zn  Zn85  1  0.24135593  0.87741289  0.12068523  1
  Zn  Zn86  1  0.49385845  0.87229463  0.86996317  1
  Zn  Zn87  1  0.37802660  0.63044584  0.75215191  1
  Zn  Zn88  1  0.49733365  0.62584401  0.12679443  1
  Zn  Zn89  1  -0.00587869  0.62274596  0.13045774  1
  Zn  Zn90  1  0.00055990  0.37522160  0.37103515  1
  Zn  Zn91  1  0.24600679  0.50401563  0.25478255  1
  Zn  Zn92  1  -0.00090681  0.88235583  0.87808573  1
  Zn  Zn93  1  0.24765468  0.24890319  0.50140091  1
  Zn  Zn94  1  0.25085774  0.12565246  0.37696639  1
  Zn  Zn95  1  0.74856400  0.74691893  -0.00517675  1
  Zn  Zn96  1  0.37876437  0.87240451  0.49826688  1
  Zn  Zn97  1  0.30456881  0.09299664  0.82119011  1
  Zn  Zn98  1  0.24852031  0.37700948  0.12213455  1
  Zn  Zn99  1  0.49127663  0.00264718  -0.00585347  1
  Zn  Zn100  1  0.87941782  0.50818818  0.37173935  1
  Zn  Zn101  1  0.62661839  -0.00490983  0.62189405  1
  Zn  Zn102  1  0.00464611  0.36955247  0.87835173  1
  Zn  Zn103  1  0.50105598  0.12475434  0.62807186  1
  Zn  Zn104  1  0.24182621  0.62778242  0.86994866  1
  Zn  Zn105  1  0.86876417  0.89593633  0.50086059  1
  Zn  Zn106  1  0.79194344  0.07714127  0.40705071  1
  Zn  Zn107  1  0.18735130  0.18373543  0.17908201  1
  Zn  Zn108  1  0.21915352  0.21950403  0.73010400  1
  Zn  Zn109  1  0.18380765  0.68854776  0.18487646  1
  Zn  Zn110  1  0.18819787  0.69040978  0.68709548  1
  Zn  Zn111  1  0.68846222  0.18701308  0.18364632  1
  Zn  Zn112  1  0.68564748  0.18350279  0.68681891  1
  Zn  Zn113  1  0.68421771  0.68426009  0.18825512  1
  Zn  Zn114  1  0.68817005  0.68994199  0.68435369  1
  Zn  Zn115  1  0.30898482  0.31511902  0.31398440  1
  Zn  Zn116  1  0.31915184  0.31532705  0.81659352  1
  Zn  Zn117  1  0.30775649  0.81374765  0.31324387  1
  Zn  Zn118  1  0.31340882  0.92634067  0.81209599  1
  Zn  Zn119  1  0.85574343  0.24569611  0.34670784  1
  Zn  Zn120  1  0.81065034  0.31057940  0.81547326  1
  Zn  Zn121  1  0.80895689  0.81657332  0.31123476  1
  Zn  Zn122  1  0.80777160  0.80376979  0.81775412  1
  Zn  Zn123  1  0.18513661  0.43493759  0.43739845  1
  Zn  Zn124  1  0.18762242  0.43900318  0.93765620  1
  Zn  Zn125  1  0.19109524  0.93244994  0.42921946  1
  Zn  Zn126  1  0.18580757  0.94783349  0.93624574  1
  Zn  Zn127  1  0.69036766  0.43904169  0.43697690  1
  Zn  Zn128  1  0.68934817  0.43948716  0.93735842  1
  Zn  Zn129  1  0.68180198  0.92873627  0.43516405  1
  Zn  Zn130  1  0.67939737  0.93497251  0.93381803  1
  Zn  Zn131  1  0.30147300  0.06430095  0.06539479  1
  Zn  Zn132  1  0.31927447  0.06972225  0.56024626  1
  Zn  Zn133  1  0.30826275  0.56751911  0.06356611  1
  Zn  Zn134  1  0.31552754  0.56545367  0.56066213  1
  Zn  Zn135  1  0.80741070  0.05865130  0.06423363  1
  Zn  Zn136  1  0.81077370  0.06342280  0.57571929  1
  Zn  Zn137  1  0.81116126  0.56016168  0.06458505  1
  Zn  Zn138  1  0.81194718  0.56890356  0.55851282  1
  Zn  Zn139  1  0.43769966  0.44153536  0.19303229  1
  Zn  Zn140  1  0.43914500  0.43741641  0.68527004  1
  Zn  Zn141  1  0.43296472  0.93460016  0.18259329  1
  Zn  Zn142  1  0.43051326  0.95096801  0.68406150  1
  Zn  Zn143  1  0.93981793  0.42948211  0.18440771  1
  Zn  Zn144  1  0.93934156  0.43838887  0.68819556  1
  Zn  Zn145  1  0.93487152  0.93151290  0.18463972  1
  Zn  Zn146  1  0.93492229  0.93493732  0.69693625  1
  Zn  Zn147  1  0.06560055  0.06207960  0.30837556  1
  Zn  Zn148  1  0.06364643  0.06444026  0.83412290  1
  Zn  Zn149  1  0.06058637  0.56298137  0.31458120  1
  Zn  Zn150  1  0.05734633  0.56035933  0.81364343  1
  Zn  Zn151  1  0.56434458  0.06230851  0.31376861  1
  Zn  Zn152  1  0.56218797  0.04961213  0.81555234  1
  Zn  Zn153  1  0.56018250  0.56761279  0.31273369  1
  Zn  Zn154  1  0.56433884  0.56230034  0.80862879  1
  Zn  Zn155  1  0.43990424  0.18476138  0.43624823  1
  Zn  Zn156  1  0.39304642  0.17204275  0.96200695  1
  Zn  Zn157  1  0.43668888  0.68532909  0.43971031  1
  Zn  Zn158  1  0.43857832  0.69237501  0.93561493  1
  Zn  Zn159  1  0.94567761  0.07405132  0.43852703  1
  Zn  Zn160  1  0.93832753  0.18201367  0.93915387  1
  Zn  Zn161  1  0.93680318  0.69141209  0.43873602  1
  Zn  Zn162  1  0.93218385  0.68761959  0.94126219  1
  Zn  Zn163  1  0.06816642  0.30873150  0.05887791  1
  Zn  Zn164  1  0.06377508  0.30734292  0.56770399  1
  Zn  Zn165  1  0.05653110  0.81094162  0.06265913  1
  Zn  Zn166  1  0.06080707  0.81785624  0.56550414  1
  Zn  Zn167  1  0.55717635  0.31314104  0.06139392  1
  Zn  Zn168  1  0.56745006  0.31974109  0.55867577  1
  Zn  Zn169  1  0.55618788  0.80739967  0.06236941  1
  Zn  Zn170  1  0.56296649  0.81190645  0.56166686  1
  O  O171  1  0.15289043  0.13842030  0.08037016  1
  O  O172  1  0.11630960  0.10961637  0.61909241  1
  O  O173  1  0.11955955  0.61832731  0.11647294  1
  O  O174  1  0.11842003  0.62081896  0.61826772  1
  O  O175  1  0.61802106  0.11766350  0.11758144  1
  O  O176  1  0.62349697  0.12549808  0.60905657  1
  O  O177  1  0.61945925  0.61802877  0.11675794  1
  O  O178  1  0.61859373  0.61533048  0.62779911  1
  O  O179  1  0.38685043  0.38514988  0.36673808  1
  O  O180  1  0.38462272  0.38674930  0.88146474  1
  O  O181  1  0.37119849  0.88694920  0.37711847  1
  O  O182  1  0.37404036  0.86554998  0.89197812  1
  O  O183  1  0.87996626  0.35941155  0.39202055  1
  O  O184  1  0.87395790  0.37910633  0.88755301  1
  O  O185  1  0.88846682  0.87195210  0.37635229  1
  O  O186  1  0.87074456  0.86753602  0.89142826  1
  O  O187  1  0.25961147  0.00189453  0.36366480  1
  O  O188  1  0.25620238  0.00392268  0.87440444  1
  O  O189  1  0.26258646  0.49495713  0.37715816  1
  O  O190  1  0.25871432  0.50256644  0.86679340  1
  O  O191  1  0.73588623  -0.00602180  0.35490355  1
  O  O192  1  0.74190470  0.01042666  0.86519848  1
  O  O193  1  0.75305246  0.50834589  0.36841291  1
  O  O194  1  0.76352401  0.49679127  0.87011381  1
  O  O195  1  0.23608192  0.50091491  0.12692621  1
  O  O196  1  0.24895174  0.49527033  0.63046451  1
  O  O197  1  0.25419913  0.99554828  0.14084407  1
  O  O198  1  0.24472323  0.99196284  0.61444342  1
  O  O199  1  0.74426088  0.49306570  0.13284345  1
  O  O200  1  0.74459906  0.49867495  0.62723242  1
  O  O201  1  0.73825080  0.99104072  0.13272989  1
  O  O202  1  0.74368997  1.00416746  0.64552842  1
  O  O203  1  0.01426858  0.36920170  0.24818344  1
  O  O204  1  0.00725173  0.36732591  0.75010938  1
  O  O205  1  0.00302749  0.86764162  0.25936759  1
  O  O206  1  0.00450497  0.86561828  0.75553564  1
  O  O207  1  0.51139877  0.37417194  0.25943756  1
  O  O208  1  0.51271086  0.38838003  0.75975940  1
  O  O209  1  0.50359358  0.86156748  0.24323945  1
  O  O210  1  0.50898023  0.87633834  0.74396666  1
  O  O211  1  0.49570087  0.13166313  0.24555510  1
  O  O212  1  0.52721437  0.13879427  0.74639231  1
  O  O213  1  0.48890789  0.63661181  0.24871487  1
  O  O214  1  0.49648233  0.61626441  0.73261672  1
  O  O215  1  1.01346248  0.13788992  0.23949030  1
  O  O216  1  0.99369244  0.12806716  0.75141198  1
  O  O217  1  1.00117929  0.63976220  0.25133892  1
  O  O218  1  0.99111734  0.63036005  0.74530962  1
  O  O219  1  0.39287981  0.26988912  0.01671605  1
  O  O220  1  0.37083187  0.25071125  0.50679026  1
  O  O221  1  0.36486743  0.75249360  0.00737056  1
  O  O222  1  0.36461504  0.75076419  0.50240342  1
  O  O223  1  0.86856855  0.25528808  0.00482770  1
  O  O224  1  0.87062754  0.25697172  0.51863332  1
  O  O225  1  0.86755458  0.75616979  0.00901373  1
  O  O226  1  0.86853873  0.75043387  0.51017107  1
  O  O227  1  0.12395514  0.24348276  0.49150038  1
  O  O228  1  0.14726275  0.26803302  0.98743689  1
  O  O229  1  0.12793914  0.74477881  0.49496652  1
  O  O230  1  0.13123499  0.74192842  1.00658215  1
  O  O231  1  0.63063360  0.24568217  0.49259238  1
  O  O232  1  0.63241198  0.24052483  1.00914883  1
  O  O233  1  0.63242743  0.75561303  0.48867439  1
  O  O234  1  0.62370564  0.73969210  0.99561643  1
  O  O235  1  0.49468310  0.24815935  0.13665842  1
  O  O236  1  0.49076020  0.25382310  0.61161311  1
  O  O237  1  0.48412096  0.74678583  0.13271050  1
  O  O238  1  0.49023377  0.74072602  0.61460067  1
  O  O239  1  0.99575951  0.25442657  0.13068301  1
  O  O240  1  0.99266147  0.24065209  0.63699945  1
  O  O241  1  0.98707644  0.74926329  0.13503531  1
  O  O242  1  0.99151297  0.74547826  0.63191010  1
  O  O243  1  0.01527861  0.25353159  0.35396881  1
  O  O244  1  -0.00787178  0.25106504  0.86184565  1
  O  O245  1  0.00391441  0.75835452  0.36984298  1
  O  O246  1  -0.00599043  0.74962906  0.86389956  1
  O  O247  1  0.50952519  0.25945945  0.37253055  1
  O  O248  1  0.50322003  0.26461158  0.86880390  1
  O  O249  1  0.50655988  0.74494503  0.36773712  1
  O  O250  1  0.51392336  0.75519054  0.87790352  1
  O  O251  1  0.23876490  0.12883797  0.49990844  1
  O  O252  1  0.28106346  0.14371778  0.98660963  1
  O  O253  1  0.23572062  0.63261016  0.50605287  1
  O  O254  1  0.23927632  0.63325708  0.99799882  1
  O  O255  1  0.74134138  0.13173325  0.50145335  1
  O  O256  1  0.74070958  0.12882174  0.99441210  1
  O  O257  1  0.75108375  0.63806349  0.48796303  1
  O  O258  1  0.73579249  0.62163715  1.00242103  1
  O  O259  1  0.26814117  0.38490891  0.00016986  1
  O  O260  1  0.24248330  0.37200434  0.51565329  1
  O  O261  1  0.25566042  0.86763893  0.00194887  1
  O  O262  1  0.24726913  0.86556528  0.50794717  1
  O  O263  1  0.75380077  0.36641481  0.00361321  1
  O  O264  1  0.75817323  0.36960646  0.50659633  1
  O  O265  1  0.75073939  0.87364950  0.00982590  1
  O  O266  1  0.75486318  0.86045225  0.49113445  1
  O  O267  1  0.12415631  0.49545361  0.24381387  1
  O  O268  1  0.13067877  0.49806461  0.74263933  1
  O  O269  1  0.13323626  0.98892627  0.25464802  1
  O  O270  1  0.11401797  0.99388258  0.74743025  1
  O  O271  1  0.62784191  0.49498242  0.24686373  1
  O  O272  1  0.63480439  0.49600138  0.74118830  1
  O  O273  1  0.62309757  0.99094434  0.23886153  1
  O  O274  1  0.63419257  0.98302403  0.74854487  1
  O  O275  1  0.37165722  0.00441998  0.25535474  1
  O  O276  1  0.36444030  0.00665975  0.75114275  1
  O  O277  1  0.37307722  0.51034308  0.25909941  1
  O  O278  1  0.36761399  0.50042584  0.75736021  1
  O  O279  1  0.85556281  -0.00830494  0.24457581  1
  O  O280  1  0.86206932  0.00716088  0.75207921  1
  O  O281  1  0.86331271  0.48846980  0.25166520  1
  O  O282  1  0.87164704  0.50680722  0.75666683  1
  O  O283  1  0.12316658  0.36805591  0.36696729  1
  O  O284  1  0.12392592  0.38546249  0.85882389  1
  O  O285  1  0.11323668  0.86509123  0.36844991  1
  O  O286  1  0.12366407  0.87823355  0.86027784  1
  O  O287  1  0.62090482  0.36970315  0.36872821  1
  O  O288  1  0.61739687  0.38399890  0.86665646  1
  O  O289  1  0.62532516  0.86120177  0.35841079  1
  O  O290  1  0.62425561  0.86536004  0.85966032  1
  O  O291  1  0.37998678  0.13550351  0.13198552  1
  O  O292  1  0.38106979  0.14509705  0.62456887  1
  O  O293  1  0.37481325  0.63170163  0.13402364  1
  O  O294  1  0.38312664  0.63395282  0.62456319  1
  O  O295  1  0.86617204  0.13779346  0.12126825  1
  O  O296  1  0.87944034  0.13373163  0.63952299  1
  O  O297  1  0.87262935  0.63691041  0.12265536  1
  O  O298  1  0.88208847  0.63087115  0.63214366  1
  O  O299  1  0.26782064  0.25787033  0.13267433  1
  O  O300  1  0.26613879  0.26072952  0.63014059  1
  O  O301  1  0.25812233  0.75076814  0.12082712  1
  O  O302  1  0.25531674  0.75601744  0.61499723  1
  O  O303  1  0.75644863  0.25551748  0.11718181  1
  O  O304  1  0.75790129  0.25540596  0.62301491  1
  O  O305  1  0.75162190  0.75555841  0.12501063  1
  O  O306  1  0.76006047  0.74448296  0.61406016  1
  O  O307  1  0.23589199  0.24890060  0.37476599  1
  O  O308  1  0.27234597  0.21606906  0.83026887  1
  O  O309  1  0.23891312  0.75558667  0.38731047  1
  O  O310  1  0.24962222  0.74478988  0.88626048  1
  O  O311  1  0.74109983  0.25500773  0.38212460  1
  O  O312  1  0.75142936  0.24003571  0.88830580  1
  O  O313  1  0.74257968  0.74429734  0.37611683  1
  O  O314  1  0.73120543  0.74738547  0.87899602  1
  O  O315  1  -0.00223788  0.11582777  0.00702180  1
  O  O316  1  0.01236666  0.12595708  0.51522310  1
  O  O317  1  0.00349423  0.61867483  0.00391996  1
  O  O318  1  0.00867200  0.62160741  0.50466883  1
  O  O319  1  0.50104042  0.12579316  0.00898768  1
  O  O320  1  0.50827577  0.11538584  0.49928799  1
  O  O321  1  0.50426622  0.61466163  0.00081514  1
  O  O322  1  0.50055481  0.61380710  0.50844743  1
  O  O323  1  0.50607292  0.38734278  0.48657254  1
  O  O324  1  0.49767441  0.38905439  0.99178476  1
  O  O325  1  0.50059247  0.88886212  0.50064613  1
  O  O326  1  0.47999476  0.87241636  1.00544978  1
  O  O327  1  0.99386217  0.38025765  0.50493551  1
  O  O328  1  0.99169839  0.37986634  0.99898901  1
  O  O329  1  0.99633645  0.87341513  0.48501911  1
  O  O330  1  0.98236127  0.87082893  0.99861333  1
  O  O331  1  0.49554920  0.49632993  0.38067729  1
  O  O332  1  0.49443050  0.49608513  0.88099001  1
  O  O333  1  0.49083909  1.00396101  0.38070206  1
  O  O334  1  0.50748174  0.98476394  0.88456127  1
  O  O335  1  0.99589684  0.49540705  0.38258601  1
  O  O336  1  0.98648846  0.49448925  0.88064752  1
  O  O337  1  0.99931862  0.98973644  0.37059041  1
  O  O338  1  0.99880252  0.99728124  0.89978836  1
  O  O339  1  -0.01299980  -0.00887976  0.10578123  1
  O  O340  1  -0.01346466  0.01081365  0.62853165  1
  O  O341  1  0.00780155  0.50153394  0.12028781  1
  O  O342  1  0.00523714  0.50796453  0.61996797  1
  O  O343  1  0.50465791  0.00603380  0.12216642  1
  O  O344  1  0.50494661  0.00555268  0.61356376  1
  O  O345  1  0.50532659  0.50105726  0.11740582  1
  O  O346  1  0.50757593  0.50398865  0.61552601  1
  O  O347  1  0.23741645  0.38024242  0.24774507  1
  O  O348  1  0.24560047  0.38613135  0.74327991  1
  O  O349  1  0.23762355  0.88054690  0.25048878  1
  O  O350  1  0.24044921  0.87185757  0.73529713  1
  O  O351  1  0.73564988  0.38460479  0.24558335  1
  O  O352  1  0.74799185  0.38326516  0.74542829  1
  O  O353  1  0.73755685  0.87862112  0.23819246  1
  O  O354  1  0.75191987  0.88458379  0.75457105  1
  O  O355  1  0.25499196  0.11783696  0.25015025  1
  O  O356  1  0.22842402  0.10416098  0.72589273  1
  O  O357  1  0.25971878  0.62601332  0.24973620  1
  O  O358  1  0.25105262  0.61358929  0.74908731  1
  O  O359  1  0.74388786  0.10782274  0.24445325  1
  O  O360  1  0.75346945  0.12027742  0.75947556  1
  O  O361  1  0.74471893  0.61254154  0.25706372  1
  O  O362  1  0.76289381  0.62051431  0.74406411  1
  O  O363  1  0.37304723  0.11853452  0.36671667  1
  O  O364  1  0.41188291  0.13464245  0.85690804  1
  O  O365  1  0.37842206  0.61492062  0.36797113  1
  O  O366  1  0.37573204  0.61479252  0.87321077  1
  O  O367  1  0.87782589  0.14032220  0.37631598  1
  O  O368  1  0.86413300  0.12917329  0.86553092  1
  O  O369  1  0.86250951  0.62726406  0.37519254  1
  O  O370  1  0.87815797  0.61642961  0.86545920  1
  O  O371  1  0.12730418  0.38409296  0.12991701  1
  O  O372  1  0.13229364  0.38233054  0.63465912  1
  O  O373  1  0.12250266  0.86506486  0.14078075  1
  O  O374  1  0.13160856  0.87653462  0.63419084  1
  O  O375  1  0.62776605  0.38029376  0.13204352  1
  O  O376  1  0.63223342  0.38682686  0.63020071  1
  O  O377  1  0.62612915  0.87893867  0.12933478  1
  O  O378  1  0.62660157  0.87268969  0.63799786  1
  O  O379  1  0.12225284  0.25570785  0.24721219  1
  O  O380  1  0.11404413  0.26241310  0.74307342  1
  O  O381  1  0.11718213  0.75423104  0.25853793  1
  O  O382  1  0.11345625  0.75617149  0.74518783  1
  O  O383  1  0.62391112  0.25707663  0.25668483  1
  O  O384  1  0.63337993  0.26859907  0.74377804  1
  O  O385  1  0.61322918  0.75420316  0.25234509  1
  O  O386  1  0.62830478  0.76082037  0.75266372  1
  O  O387  1  0.38247674  0.24739779  0.24855146  1
  O  O388  1  0.40078972  0.25794497  0.73837993  1
  O  O389  1  0.37642750  0.74610825  0.24727187  1
  O  O390  1  0.37117259  0.74842593  0.73467776  1
  O  O391  1  0.89744151  0.25638534  0.23880706  1
  O  O392  1  0.87860564  0.24456605  0.74391294  1
  O  O393  1  0.88003827  0.75758921  0.24093170  1
  O  O394  1  0.87848684  0.74375147  0.74413050  1
  O  O395  1  0.38533681  0.50375804  0.49148321  1
  O  O396  1  0.38264210  0.49957002  0.99505456  1
  O  O397  1  0.38320929  1.00115496  0.49046499  1
  O  O398  1  0.37077164  0.98497355  1.00947955  1
  O  O399  1  0.87896276  0.49055417  0.49755627  1
  O  O400  1  0.87742722  0.49326483  0.99512630  1
  O  O401  1  0.86084551  1.01069713  0.48992755  1
  O  O402  1  0.86578278  0.98236897  1.00205161  1
  O  O403  1  0.11385699  -0.00997163  0.01264832  1
  O  O404  1  0.12689180  0.00867509  0.48777518  1
  O  O405  1  0.11829260  0.50403618  0.00721809  1
  O  O406  1  0.12087956  0.50808856  0.50376593  1
  O  O407  1  0.62528117  0.00661011  0.01210145  1
  O  O408  1  0.62039345  0.00585559  0.49684888  1
  O  O409  1  0.61853428  0.50527945  0.00436101  1
  O  O410  1  0.61908119  0.49647117  0.50900679  1
  O  O411  1  0.37697648  0.37452411  0.12054094  1
  O  O412  1  0.37041708  0.36639353  0.62639351  1
  O  O413  1  0.36723556  0.86459079  0.11700274  1
  O  O414  1  0.36533316  0.86914120  0.61943783  1
  O  O415  1  0.86810997  0.36899425  0.11285607  1
  O  O416  1  0.87114346  0.36982577  0.62135458  1
  O  O417  1  0.86220964  0.86381679  0.11678765  1
  O  O418  1  0.87946030  0.86533940  0.62131153  1
  O  O419  1  0.12446822  0.13141513  0.38234402  1
  O  O420  1  0.13008498  0.12682187  0.90454732  1
  O  O421  1  0.11875019  0.63889087  0.38340118  1
  O  O422  1  0.12283698  0.61601497  0.89012210  1
  O  O423  1  0.62199986  0.13595783  0.38448768  1
  O  O424  1  0.62887426  0.12263320  0.88904949  1
  O  O425  1  0.63430743  0.63783297  0.36854584  1
  O  O426  1  0.61816460  0.63013139  0.88271349  1
