# generated using pymatgen
data_V85Zn86O256
_symmetry_space_group_name_H-M   'P 1'
_cell_length_a   16.92663827
_cell_length_b   16.92459392
_cell_length_c   16.92862740
_cell_angle_alpha   90.02806532
_cell_angle_beta   90.00283497
_cell_angle_gamma   90.04392249
_symmetry_Int_Tables_number   1
_chemical_formula_structural   V85Zn86O256
_chemical_formula_sum   'V85 Zn86 O256'
_cell_volume   4849.65156425
_cell_formula_units_Z   1
loop_
 _symmetry_equiv_pos_site_id
 _symmetry_equiv_pos_as_xyz
  1  'x, y, z'
loop_
 _atom_site_type_symbol
 _atom_site_label
 _atom_site_symmetry_multiplicity
 _atom_site_fract_x
 _atom_site_fract_y
 _atom_site_fract_z
 _atom_site_occupancy
  V  V0  1  0.76315658  0.88078911  0.12569046  1
  V  V1  1  0.49945219  0.24180088  0.24837068  1
  V  V2  1  0.12542579  0.25008779  0.87382062  1
  V  V3  1  0.62479937  0.75055615  0.87697310  1
  V  V4  1  -0.00698584  0.38070235  0.37583451  1
  V  V5  1  0.74757500  0.87669224  0.62480088  1
  V  V6  1  0.37459144  0.87116705  0.51395039  1
  V  V7  1  0.38071696  0.74713194  0.13003530  1
  V  V8  1  0.87427864  0.12051669  0.24945406  1
  V  V9  1  0.49282352  0.49789213  0.50228483  1
  V  V10  1  -0.00033927  0.12465185  0.12392054  1
  V  V11  1  0.12122140  0.62741729  0.00425743  1
  V  V12  1  0.35587503  0.37151135  0.50515286  1
  V  V13  1  0.62004485  0.24880544  0.87362668  1
  V  V14  1  0.12313406  0.86885716  0.25882459  1
  V  V15  1  0.38246777  0.00140801  0.88054659  1
  V  V16  1  -0.00087712  0.50309724  0.00397776  1
  V  V17  1  0.36890562  0.62709223  0.74486717  1
  V  V18  1  0.25548187  0.00013042  0.25539521  1
  V  V19  1  0.35170548  0.25205277  0.62899522  1
  V  V20  1  0.49794406  0.13700646  0.62756524  1
  V  V21  1  0.62410049  0.87760727  0.75224321  1
  V  V22  1  -0.00685552  -0.00445966  0.00130231  1
  V  V23  1  0.87389007  -0.00076148  0.87174911  1
  V  V24  1  0.62311741  0.12732148  0.49885714  1
  V  V25  1  0.88047772  0.73456458  0.12523632  1
  V  V26  1  0.87050599  0.37400525  0.00578376  1
  V  V27  1  -0.00387315  0.24045098  0.74982269  1
  V  V28  1  0.62612625  0.62446843  0.00174113  1
  V  V29  1  0.25145453  0.74818019  0.00243545  1
  V  V30  1  0.49149862  0.00187653  0.49296089  1
  V  V31  1  0.12929485  0.37141452  0.74316950  1
  V  V32  1  0.13209558  0.49498443  0.12062452  1
  V  V33  1  0.25098366  0.12343895  0.88076175  1
  V  V34  1  0.62326374  0.49982020  0.62491542  1
  V  V35  1  0.75137268  0.37428028  0.62407832  1
  V  V36  1  0.12508688  0.75414731  0.86859548  1
  V  V37  1  0.61734572  0.37301280  0.75069732  1
  V  V38  1  0.74983402  0.50068939  0.75034629  1
  V  V39  1  0.49579162  0.49556984  0.00401421  1
  V  V40  1  0.12808075  0.25044813  0.38396553  1
  V  V41  1  0.37270008  0.62522243  0.25698906  1
  V  V42  1  0.37892929  0.25692857  0.12167191  1
  V  V43  1  0.75035156  0.12290123  0.37601111  1
  V  V44  1  0.49624212  0.37407484  0.37610905  1
  V  V45  1  0.49491219  0.86750432  0.36910516  1
  V  V46  1  0.12736419  -0.00125291  0.12293889  1
  V  V47  1  0.74630500  0.75166815  0.49898385  1
  V  V48  1  0.63267456  0.49485400  0.12734419  1
  V  V49  1  0.77224071  0.62242356  0.37451886  1
  V  V50  1  0.12179533  0.10911764  0.49787474  1
  V  V51  1  0.76351568  0.49992067  0.25417615  1
  V  V52  1  0.75105679  0.62666297  0.87427906  1
  V  V53  1  0.37958662  0.12796743  0.75270782  1
  V  V54  1  0.25095509  0.26715723  0.00636115  1
  V  V55  1  0.74690709  0.25180141  0.00751908  1
  V  V56  1  -0.00234701  0.37368046  0.87121003  1
  V  V57  1  0.50483604  0.62588997  0.13467313  1
  V  V58  1  0.25041730  0.75087457  0.49082692  1
  V  V59  1  0.12726977  0.49953593  0.62387723  1
  V  V60  1  0.88326546  0.62665834  0.74941699  1
  V  V61  1  0.00134074  0.24942080  0.24841693  1
  V  V62  1  0.25082820  0.87461800  0.12643122  1
  V  V63  1  0.25752293  0.12639229  0.37824062  1
  V  V64  1  0.62964550  0.37488697  0.25004953  1
  V  V65  1  0.87442354  0.24549278  0.62656209  1
  V  V66  1  0.61241219  0.12009054  0.00390939  1
  V  V67  1  0.61202971  -0.00090338  0.12575864  1
  V  V68  1  0.13304031  0.37074821  0.24472018  1
  V  V69  1  0.13115800  0.62559377  0.47493021  1
  V  V70  1  0.62274107  0.62257058  0.49471443  1
  V  V71  1  0.49926892  0.74820997  0.74526046  1
  V  V72  1  0.38496933  0.88002767  0.00421998  1
  V  V73  1  0.25026663  0.50108243  0.25257497  1
  V  V74  1  -0.00054473  0.87269582  0.87220895  1
  V  V75  1  0.01192252  0.62884548  0.62531668  1
  V  V76  1  -0.00400933  0.11421504  0.61656487  1
  V  V77  1  0.75390689  0.12670894  0.87257803  1
  V  V78  1  0.87577159  0.49974532  0.87463011  1
  V  V79  1  0.75639892  0.75697053  0.00078859  1
  V  V80  1  0.37388347  0.50055632  0.87800971  1
  V  V81  1  0.00220485  0.73493382  0.24577620  1
  V  V82  1  0.87518520  0.75103727  0.63085555  1
  V  V83  1  0.62023538  0.00243789  0.62598625  1
  V  V84  1  0.49298544  0.37213460  0.87618315  1
  Zn  Zn85  1  0.25244225  0.49449144  0.74587249  1
  Zn  Zn86  1  0.50378703  0.87819868  0.88153451  1
  Zn  Zn87  1  0.25000643  0.62294809  0.87686551  1
  Zn  Zn88  1  -0.00923421  0.51301363  0.49243368  1
  Zn  Zn89  1  0.87315215  0.37938458  0.49749642  1
  Zn  Zn90  1  0.12744623  0.12684782  0.00211955  1
  Zn  Zn91  1  0.87942422  0.88302938  0.49887000  1
  Zn  Zn92  1  0.05761884  0.80399288  0.70762002  1
  Zn  Zn93  1  0.88832693  0.00326041  0.38959323  1
  Zn  Zn94  1  0.37718478  0.12363852  0.24758476  1
  Zn  Zn95  1  0.12728927  -0.02283434  0.63070418  1
  Zn  Zn96  1  0.75120295  0.25071907  0.49924078  1
  Zn  Zn97  1  0.86936799  0.25241196  0.12723394  1
  Zn  Zn98  1  0.49661243  0.62905206  0.62213638  1
  Zn  Zn99  1  0.75063449  0.00744654  0.74904714  1
  Zn  Zn100  1  0.62288204  0.74631780  0.36149345  1
  Zn  Zn101  1  0.62376283  0.86696630  0.24747462  1
  Zn  Zn102  1  0.62546243  0.25080922  0.37492797  1
  Zn  Zn103  1  0.36414409  0.50150196  0.38116530  1
  Zn  Zn104  1  0.24855254  -0.01965362  0.74941477  1
  Zn  Zn105  1  -0.00675050  0.87339312  0.37104445  1
  Zn  Zn106  1  0.74888082  -0.00318738  0.25171822  1
  Zn  Zn107  1  0.19107856  0.18634812  0.18668144  1
  Zn  Zn108  1  0.19174856  0.12453302  0.68441383  1
  Zn  Zn109  1  0.18719025  0.68360250  0.18675906  1
  Zn  Zn110  1  0.23109433  0.81620203  0.65737772  1
  Zn  Zn111  1  0.68442065  0.18422789  0.18749449  1
  Zn  Zn112  1  0.68507299  0.19003929  0.68955954  1
  Zn  Zn113  1  0.69416957  0.68791845  0.19226273  1
  Zn  Zn114  1  0.68546451  0.68657741  0.68679762  1
  Zn  Zn115  1  0.31271912  0.31182529  0.31229779  1
  Zn  Zn116  1  0.31163497  0.30822271  0.81076802  1
  Zn  Zn117  1  0.31712215  0.81389519  0.31617383  1
  Zn  Zn118  1  0.31769027  0.80924188  0.82074204  1
  Zn  Zn119  1  0.81089179  0.30746040  0.31080310  1
  Zn  Zn120  1  0.81052324  0.31067165  0.81273544  1
  Zn  Zn121  1  0.81494999  0.81154228  0.30960145  1
  Zn  Zn122  1  0.81433930  0.81758291  0.81367942  1
  Zn  Zn123  1  0.17878531  0.44107623  0.43401617  1
  Zn  Zn124  1  0.18549489  0.43787146  0.93152945  1
  Zn  Zn125  1  0.19119263  0.93630889  0.43653249  1
  Zn  Zn126  1  0.19072065  0.93629239  0.93751829  1
  Zn  Zn127  1  0.68813441  0.44013174  0.43525341  1
  Zn  Zn128  1  0.68637481  0.43650879  0.93809886  1
  Zn  Zn129  1  0.68486259  0.93829677  0.43536331  1
  Zn  Zn130  1  0.68796630  0.93981776  0.94160127  1
  Zn  Zn131  1  0.31769429  0.06798612  0.06602897  1
  Zn  Zn132  1  0.31130696  0.06085868  0.55898644  1
  Zn  Zn133  1  0.31230226  0.56088594  0.06540832  1
  Zn  Zn134  1  0.30504673  0.56969293  0.56472976  1
  Zn  Zn135  1  0.81001584  0.06440458  0.05977890  1
  Zn  Zn136  1  0.81014260  0.06086197  0.56133470  1
  Zn  Zn137  1  0.80963657  0.56121996  0.06230445  1
  Zn  Zn138  1  0.81516881  0.56200703  0.56025466  1
  Zn  Zn139  1  0.43707209  0.43448449  0.18832531  1
  Zn  Zn140  1  0.43297683  0.43420708  0.68707903  1
  Zn  Zn141  1  0.43575953  0.93793879  0.18954114  1
  Zn  Zn142  1  0.43709668  0.94256948  0.69059192  1
  Zn  Zn143  1  0.94352751  0.43591241  0.18405364  1
  Zn  Zn144  1  0.94077629  0.43870309  0.68257903  1
  Zn  Zn145  1  0.93965598  0.93592363  0.19355453  1
  Zn  Zn146  1  0.93150642  0.94205434  0.68876330  1
  Zn  Zn147  1  0.06572268  0.05974268  0.31223334  1
  Zn  Zn148  1  0.06232600  0.06178480  0.81330757  1
  Zn  Zn149  1  0.05559366  0.55892796  0.30148813  1
  Zn  Zn150  1  0.06618434  0.56386921  0.81347909  1
  Zn  Zn151  1  0.56435136  0.05803738  0.31321358  1
  Zn  Zn152  1  0.56066801  0.06473606  0.81452089  1
  Zn  Zn153  1  0.56246327  0.55868257  0.31453783  1
  Zn  Zn154  1  0.55967202  0.56285482  0.81331822  1
  Zn  Zn155  1  0.43354135  0.19408633  0.44204801  1
  Zn  Zn156  1  0.43489511  0.19187695  0.94299715  1
  Zn  Zn157  1  0.43377238  0.69023199  0.43786426  1
  Zn  Zn158  1  0.44040492  0.68593337  0.93879091  1
  Zn  Zn159  1  0.93655657  0.19103420  0.43823611  1
  Zn  Zn160  1  0.93614188  0.18466993  0.93955994  1
  Zn  Zn161  1  0.94711418  0.71221914  0.44742598  1
  Zn  Zn162  1  0.93892178  0.69004324  0.93936780  1
  Zn  Zn163  1  0.06157610  0.31363980  0.06066164  1
  Zn  Zn164  1  0.06258631  0.30906423  0.56279404  1
  Zn  Zn165  1  0.06081079  0.81546896  0.06192027  1
  Zn  Zn166  1  0.06820665  0.81081624  0.54275893  1
  Zn  Zn167  1  0.56119608  0.31284417  0.06377115  1
  Zn  Zn168  1  0.55952017  0.31387049  0.56097439  1
  Zn  Zn169  1  0.56707433  0.81087176  0.06948281  1
  Zn  Zn170  1  0.56166390  0.81324839  0.56075037  1
  O  O171  1  0.11892953  0.11581201  0.12534610  1
  O  O172  1  0.11125616  0.13701459  0.60384688  1
  O  O173  1  0.12872655  0.61426969  0.11073635  1
  O  O174  1  0.11379655  0.61985540  0.62695831  1
  O  O175  1  0.62915285  0.11115936  0.11587632  1
  O  O176  1  0.61708712  0.12291532  0.62066516  1
  O  O177  1  0.62049347  0.61728058  0.12211274  1
  O  O178  1  0.62376321  0.61687992  0.61372252  1
  O  O179  1  0.38031470  0.37606593  0.38406447  1
  O  O180  1  0.38683105  0.38108789  0.86695681  1
  O  O181  1  0.39008025  0.87589351  0.38530318  1
  O  O182  1  0.37873808  0.88314119  0.88765442  1
  O  O183  1  0.89054361  0.36631697  0.37242408  1
  O  O184  1  0.87818314  0.38100631  0.88139678  1
  O  O185  1  0.87046937  0.88160716  0.37682118  1
  O  O186  1  0.88357236  0.88385718  0.87708799  1
  O  O187  1  0.24290753  0.01046292  0.36560432  1
  O  O188  1  0.26093105  0.00834440  0.87642556  1
  O  O189  1  0.24694049  0.49657516  0.35797304  1
  O  O190  1  0.26369228  0.49972489  0.87475384  1
  O  O191  1  0.74858900  0.01372826  0.37338118  1
  O  O192  1  0.75657719  0.00840443  0.87806799  1
  O  O193  1  0.75077619  0.51328415  0.37013004  1
  O  O194  1  0.75603932  0.50517676  0.87052188  1
  O  O195  1  0.23905761  0.49866281  0.13084401  1
  O  O196  1  0.23211619  0.50472277  0.62706353  1
  O  O197  1  0.24336534  0.99661908  0.12959174  1
  O  O198  1  0.24036178  1.02189929  0.63538514  1
  O  O199  1  0.73869599  0.50542511  0.13390923  1
  O  O200  1  0.74342193  0.49313592  0.63137750  1
  O  O201  1  0.74519631  0.99217748  0.12339009  1
  O  O202  1  0.73892963  0.99583551  0.62939264  1
  O  O203  1  0.00815413  0.36786525  0.25607332  1
  O  O204  1  0.00499196  0.36917155  0.75557740  1
  O  O205  1  0.01079314  0.86220864  0.24330894  1
  O  O206  1  -0.00235189  0.88175075  0.76494100  1
  O  O207  1  0.50838205  0.37084081  0.25938830  1
  O  O208  1  0.51121086  0.38208873  0.75841001  1
  O  O209  1  0.49917485  0.88147360  0.26623519  1
  O  O210  1  0.50888241  0.86893017  0.75297641  1
  O  O211  1  0.50018601  0.13860299  0.25908845  1
  O  O212  1  0.48873336  0.12309425  0.74341126  1
  O  O213  1  0.49364807  0.61441108  0.23868988  1
  O  O214  1  0.49379848  0.63133027  0.74850814  1
  O  O215  1  0.99540130  0.13224160  0.24453078  1
  O  O216  1  1.00134505  0.13695278  0.74104652  1
  O  O217  1  1.00579868  0.63513975  0.23461178  1
  O  O218  1  0.98877556  0.62113313  0.74575374  1
  O  O219  1  0.36445062  0.25326024  0.01026507  1
  O  O220  1  0.37273673  0.25767007  0.51759744  1
  O  O221  1  0.36945099  0.75221565  0.00921007  1
  O  O222  1  0.37575644  0.76499757  0.50225240  1
  O  O223  1  0.86551865  0.25722665  -0.00070284  1
  O  O224  1  0.87250401  0.25862680  0.51048166  1
  O  O225  1  0.86662759  0.74705436  0.00960288  1
  O  O226  1  0.85544901  0.74130787  0.51795505  1
  O  O227  1  0.12173097  0.24569586  0.48596408  1
  O  O228  1  0.13541970  0.25070930  0.99512885  1
  O  O229  1  0.14024003  0.73715184  0.48793544  1
  O  O230  1  0.13220813  0.74317268  1.00002190  1
  O  O231  1  0.62298385  0.23758885  0.50005902  1
  O  O232  1  0.62957350  0.24557608  0.99362714  1
  O  O233  1  0.63371803  0.74051842  0.50102625  1
  O  O234  1  0.63337752  0.74351970  0.99724953  1
  O  O235  1  0.48984122  0.25389746  0.13251238  1
  O  O236  1  0.49748736  0.23878156  0.62323657  1
  O  O237  1  0.49257894  0.73748803  0.11969118  1
  O  O238  1  0.50756093  0.74847176  0.64079392  1
  O  O239  1  1.00034496  0.24594306  0.13506897  1
  O  O240  1  0.99105327  0.24496096  0.63103887  1
  O  O241  1  0.98564356  0.75299956  0.12249762  1
  O  O242  1  0.99092864  0.74403143  0.63028287  1
  O  O243  1  0.00720830  0.25463696  0.36284344  1
  O  O244  1  0.00209688  0.25246019  0.86876221  1
  O  O245  1  -0.00361068  0.74366669  0.34680699  1
  O  O246  1  0.00893986  0.76164821  0.88273992  1
  O  O247  1  0.49957125  0.26080990  0.36985817  1
  O  O248  1  0.50690056  0.26059521  0.88229659  1
  O  O249  1  0.50316002  0.76429552  0.38167623  1
  O  O250  1  0.50915817  0.75085979  0.86771868  1
  O  O251  1  0.23453572  0.12171882  0.48946900  1
  O  O252  1  0.25099543  0.13311401  0.99131720  1
  O  O253  1  0.23649623  0.62393823  0.48975189  1
  O  O254  1  0.24464396  0.63208063  0.99969892  1
  O  O255  1  0.73909129  0.12747689  0.49493796  1
  O  O256  1  0.74019618  0.13397422  0.99092697  1
  O  O257  1  0.74161385  0.62706389  0.49087529  1
  O  O258  1  0.74541786  0.63285872  0.99336571  1
  O  O259  1  0.24750778  0.36542191  -0.00269880  1
  O  O260  1  0.25739294  0.38090481  0.49353592  1
  O  O261  1  0.26031708  0.86687123  0.00743134  1
  O  O262  1  0.26059987  0.86452712  0.49586689  1
  O  O263  1  0.75815598  0.36590786  -0.00672130  1
  O  O264  1  0.74416569  0.37345639  0.51393296  1
  O  O265  1  0.74497954  0.86265951  0.00771339  1
  O  O266  1  0.74568268  0.86568015  0.50703815  1
  O  O267  1  0.12912510  0.49227657  0.23861211  1
  O  O268  1  0.12422795  0.49114694  0.74327815  1
  O  O269  1  0.13375726  0.99014003  0.23795703  1
  O  O270  1  0.13775103  1.02407342  0.74137193  1
  O  O271  1  0.63199527  0.49329879  0.24503942  1
  O  O272  1  0.63005233  0.49388499  0.74692521  1
  O  O273  1  0.62761157  0.99915869  0.23610884  1
  O  O274  1  0.62290239  0.99267968  0.74651697  1
  O  O275  1  0.36042974  0.00380883  0.24435930  1
  O  O276  1  0.37212461  0.01039440  0.76033281  1
  O  O277  1  0.36593748  0.50541445  0.24841025  1
  O  O278  1  0.37674355  0.50818130  0.75861245  1
  O  O279  1  0.87220388  0.01447949  0.24610172  1
  O  O280  1  0.86915797  0.00115100  0.76556313  1
  O  O281  1  0.86224314  0.49059168  0.24169061  1
  O  O282  1  0.86982457  0.50693387  0.75344376  1
  O  O283  1  0.11686448  0.36679249  0.36547134  1
  O  O284  1  0.11543058  0.36994636  0.86828825  1
  O  O285  1  0.12817362  0.87185566  0.36081925  1
  O  O286  1  0.11719428  0.86604409  0.88168812  1
  O  O287  1  0.61574974  0.37353067  0.36998534  1
  O  O288  1  0.61685341  0.36961758  0.86967352  1
  O  O289  1  0.61101519  0.87304239  0.37612848  1
  O  O290  1  0.62436157  0.87148288  0.86933735  1
  O  O291  1  0.36807431  0.14568687  0.13177502  1
  O  O292  1  0.37932742  0.13467050  0.63216294  1
  O  O293  1  0.38430817  0.62955407  0.13165059  1
  O  O294  1  0.37920158  0.61644258  0.64132173  1
  O  O295  1  0.88101364  0.12916176  0.13028254  1
  O  O296  1  0.88050850  0.13731857  0.62085721  1
  O  O297  1  0.87279555  0.63576281  0.12214654  1
  O  O298  1  0.88207233  0.63053610  0.63293888  1
  O  O299  1  0.25323656  0.25082501  0.11187279  1
  O  O300  1  0.25599933  0.23731892  0.63256385  1
  O  O301  1  0.25781314  0.75211758  0.11679035  1
  O  O302  1  0.25991907  0.73146953  0.59331814  1
  O  O303  1  0.74789559  0.24664020  0.11157988  1
  O  O304  1  0.75592351  0.25682379  0.62663711  1
  O  O305  1  0.76211550  0.75468695  0.11905701  1
  O  O306  1  0.75144012  0.75618270  0.62051752  1
  O  O307  1  0.23774486  0.24052851  0.36561009  1
  O  O308  1  0.24836414  0.24645493  0.88856848  1
  O  O309  1  0.27232717  0.73971586  0.39023001  1
  O  O310  1  0.24482084  0.74845006  0.89082621  1
  O  O311  1  0.74642993  0.23818857  0.37827389  1
  O  O312  1  0.74106295  0.24544244  0.88332936  1
  O  O313  1  0.74859807  0.73720229  0.38214645  1
  O  O314  1  0.74669176  0.74751017  0.88283354  1
  O  O315  1  0.00412573  0.11640830  0.00682045  1
  O  O316  1  0.00959195  0.12796245  0.50310730  1
  O  O317  1  0.00735479  0.61418449  -0.00517556  1
  O  O318  1  0.01530546  0.63299165  0.50576768  1
  O  O319  1  0.51351697  0.13065323  -0.00017043  1
  O  O320  1  0.50175175  0.12003100  0.50510403  1
  O  O321  1  0.50688055  0.61456645  0.00920990  1
  O  O322  1  0.50327387  0.61695755  0.50171963  1
  O  O323  1  0.49099738  0.38042339  0.49466632  1
  O  O324  1  0.50629438  0.38765574  0.99163859  1
  O  O325  1  0.49155679  0.88231409  0.49774682  1
  O  O326  1  0.48822751  0.86689182  1.00260848  1
  O  O327  1  1.00369935  0.37243970  0.48106878  1
  O  O328  1  0.99212808  0.37983822  0.99030263  1
  O  O329  1  0.98158236  0.82685277  0.47926144  1
  O  O330  1  1.00353344  0.88951119  0.99145610  1
  O  O331  1  0.49699753  0.48911056  0.38626097  1
  O  O332  1  0.49317961  0.49457560  0.88370391  1
  O  O333  1  0.50398036  0.99338201  0.38907045  1
  O  O334  1  0.48721533  0.99923503  0.87547913  1
  O  O335  1  1.00282171  0.48417618  0.37095014  1
  O  O336  1  0.99457918  0.49483506  0.88343667  1
  O  O337  1  0.99903219  0.98777347  0.36048916  1
  O  O338  1  0.99371125  0.99822453  0.88239913  1
  O  O339  1  0.00635657  0.00244962  0.11909424  1
  O  O340  1  0.00412411  0.01275680  0.63236538  1
  O  O341  1  0.01106337  0.49440942  0.11049086  1
  O  O342  1  0.00827059  0.51033370  0.62171343  1
  O  O343  1  0.51265603  -0.00429717  0.12570041  1
  O  O344  1  0.50263895  0.01136841  0.61681036  1
  O  O345  1  0.50792031  0.50355368  0.12001561  1
  O  O346  1  0.50453001  0.49667497  0.61457477  1
  O  O347  1  0.23798903  0.37903446  0.25124168  1
  O  O348  1  0.23349092  0.37464754  0.75623527  1
  O  O349  1  0.24641582  0.87907210  0.24587022  1
  O  O350  1  0.25743024  0.86783144  0.74917882  1
  O  O351  1  0.73725577  0.38153595  0.25987792  1
  O  O352  1  0.73936619  0.37864896  0.74264901  1
  O  O353  1  0.74718191  0.87682134  0.23861673  1
  O  O354  1  0.73654970  0.87607191  0.74539105  1
  O  O355  1  0.24698041  0.11597945  0.25949486  1
  O  O356  1  0.26689209  0.13693468  0.77072803  1
  O  O357  1  0.26066975  0.61490812  0.24193015  1
  O  O358  1  0.26712321  0.62091278  0.75678979  1
  O  O359  1  0.75745328  0.12603466  0.25736570  1
  O  O360  1  0.73965761  0.12588936  0.76771363  1
  O  O361  1  0.75323075  0.61697407  0.26670605  1
  O  O362  1  0.75797727  0.62021802  0.75498965  1
  O  O363  1  0.36104025  0.13335581  0.37459576  1
  O  O364  1  0.37398135  0.12136055  0.87291214  1
  O  O365  1  0.38731564  0.61916750  0.35979748  1
  O  O366  1  0.37816538  0.61503608  0.86870860  1
  O  O367  1  0.86809928  0.12512486  0.36829438  1
  O  O368  1  0.86341502  0.11829005  0.87997770  1
  O  O369  1  0.86895069  0.63088361  0.38563247  1
  O  O370  1  0.87177144  0.62151682  0.86777469  1
  O  O371  1  0.12021274  0.38183256  0.13264729  1
  O  O372  1  0.11490878  0.38350697  0.63260649  1
  O  O373  1  0.13315039  0.88143643  0.12819782  1
  O  O374  1  0.12298133  0.86029021  0.62751064  1
  O  O375  1  0.62012843  0.38443641  0.13533887  1
  O  O376  1  0.62851396  0.37757697  0.63346303  1
  O  O377  1  0.63341294  0.88787086  0.12291237  1
  O  O378  1  0.62678355  0.88160134  0.63225431  1
  O  O379  1  0.11892727  0.25461087  0.25346323  1
  O  O380  1  0.11308545  0.25733841  0.75791092  1
  O  O381  1  0.11292469  0.75630151  0.23343781  1
  O  O382  1  0.12962609  0.74034143  0.76921493  1
  O  O383  1  0.61789606  0.25766471  0.24909361  1
  O  O384  1  0.62640148  0.25844845  0.76450934  1
  O  O385  1  0.62303539  0.75189852  0.24725529  1
  O  O386  1  0.62052694  0.75613649  0.75725274  1
  O  O387  1  0.38357674  0.25014078  0.24302278  1
  O  O388  1  0.37632147  0.24587889  0.73741911  1
  O  O389  1  0.37062424  0.74201833  0.23742229  1
  O  O390  1  0.38481350  0.73449774  0.75938116  1
  O  O391  1  0.88273079  0.24054962  0.24710745  1
  O  O392  1  0.88396515  0.25587337  0.74218576  1
  O  O393  1  0.88553129  0.75139363  0.23287243  1
  O  O394  1  0.86587414  0.74125879  0.73994237  1
  O  O395  1  0.37805922  0.49464856  0.50251865  1
  O  O396  1  0.38506829  0.50429715  0.99405082  1
  O  O397  1  0.38094617  0.98860462  0.50211827  1
  O  O398  1  0.37089442  0.99090231  0.99693772  1
  O  O399  1  0.88048548  0.49201891  0.50540592  1
  O  O400  1  0.88042898  0.49452875  0.99657469  1
  O  O401  1  0.87997852  0.99709635  0.50520483  1
  O  O402  1  0.88432933  1.00616867  0.99048362  1
  O  O403  1  0.12147485  0.00072638  0.01115880  1
  O  O404  1  0.12430281  0.00624831  0.50452428  1
  O  O405  1  0.11933504  0.50424328  0.00219791  1
  O  O406  1  0.11828465  0.51319108  0.50352856  1
  O  O407  1  0.62578691  0.01005742  0.00968205  1
  O  O408  1  0.61665135  0.01178205  0.50617305  1
  O  O409  1  0.62133638  0.50409340  0.00863761  1
  O  O410  1  0.61571327  0.50462506  0.50401397  1
  O  O411  1  0.37243375  0.35827940  0.13216966  1
  O  O412  1  0.37018894  0.36179101  0.62198207  1
  O  O413  1  0.37150629  0.86619219  0.12286117  1
  O  O414  1  0.37778461  0.87773224  0.61412865  1
  O  O415  1  0.88000996  0.37191771  0.10972450  1
  O  O416  1  0.86481809  0.36696985  0.62814636  1
  O  O417  1  0.86561230  0.87217964  0.12496192  1
  O  O418  1  0.86680172  0.86688687  0.62705283  1
  O  O419  1  0.12784806  0.13062161  0.38320937  1
  O  O420  1  0.13457472  0.13284733  0.87939554  1
  O  O421  1  0.12072669  0.61846978  0.37768658  1
  O  O422  1  0.12765490  0.63040825  0.88767873  1
  O  O423  1  0.62997016  0.12638338  0.38311735  1
  O  O424  1  0.62713483  0.13206638  0.88406260  1
  O  O425  1  0.62404904  0.62491187  0.38693622  1
  O  O426  1  0.63123989  0.62928912  0.88041907  1
