# generated using pymatgen
data_V85Zn86O256
_symmetry_space_group_name_H-M   'P 1'
_cell_length_a   16.92825368
_cell_length_b   16.92445788
_cell_length_c   16.94072969
_cell_angle_alpha   89.93623495
_cell_angle_beta   90.06880433
_cell_angle_gamma   90.00415218
_symmetry_Int_Tables_number   1
_chemical_formula_structural   V85Zn86O256
_chemical_formula_sum   'V85 Zn86 O256'
_cell_volume   4853.53822832
_cell_formula_units_Z   1
loop_
 _symmetry_equiv_pos_site_id
 _symmetry_equiv_pos_as_xyz
  1  'x, y, z'
loop_
 _atom_site_type_symbol
 _atom_site_label
 _atom_site_symmetry_multiplicity
 _atom_site_fract_x
 _atom_site_fract_y
 _atom_site_fract_z
 _atom_site_occupancy
  V  V0  1  -0.00666199  -0.00031029  0.49885550  1
  V  V1  1  0.12356571  0.50366139  0.12599014  1
  V  V2  1  0.37150154  0.12392627  0.75044326  1
  V  V3  1  0.24188542  0.87323717  0.63676202  1
  V  V4  1  0.38208220  0.74990520  0.12683222  1
  V  V5  1  0.73705022  0.25036613  -0.00115300  1
  V  V6  1  0.87733379  0.50300026  0.87557258  1
  V  V7  1  -0.00658053  0.87659611  0.36786876  1
  V  V8  1  0.37531055  0.74737678  0.62605579  1
  V  V9  1  -0.06142746  0.68309299  0.18561913  1
  V  V10  1  0.76130415  0.49841534  0.25696392  1
  V  V11  1  0.62325453  0.87892142  0.24978139  1
  V  V12  1  0.12754485  0.63109664  0.00070269  1
  V  V13  1  0.62411157  0.12668560  0.49970056  1
  V  V14  1  0.87298399  0.13267564  0.74817101  1
  V  V15  1  0.49713208  0.00107837  0.49931624  1
  V  V16  1  0.74759761  -0.00170619  0.75146877  1
  V  V17  1  0.75373667  0.11983204  0.37698589  1
  V  V18  1  0.75569866  0.37028160  0.62737623  1
  V  V19  1  0.50156315  0.62352485  0.62224903  1
  V  V20  1  0.50429136  0.11159829  0.12512386  1
  V  V21  1  0.87335633  -0.00242342  0.87693958  1
  V  V22  1  0.25235473  0.37824855  0.62898054  1
  V  V23  1  0.36908264  0.87379683  0.49983311  1
  V  V24  1  0.62958280  0.63035831  0.49794758  1
  V  V25  1  -0.00040997  0.62652365  0.62236601  1
  V  V26  1  0.62284093  0.37010085  0.76324625  1
  V  V27  1  0.87171316  0.25063094  0.12567061  1
  V  V28  1  0.74245890  0.12517898  0.87752386  1
  V  V29  1  0.62736163  0.49767163  0.62316462  1
  V  V30  1  0.12341044  0.13011969  0.49843859  1
  V  V31  1  0.24948044  -0.00001446  0.25246484  1
  V  V32  1  0.74836914  0.49946973  0.75140413  1
  V  V33  1  0.24677642  0.13381520  0.37368046  1
  V  V34  1  0.25028887  0.37021993  0.11256225  1
  V  V35  1  0.37692527  0.24984014  0.62266953  1
  V  V36  1  0.24969226  0.87233454  0.12147435  1
  V  V37  1  0.75470744  0.24807057  0.50412451  1
  V  V38  1  0.87242211  0.37538264  0.00129024  1
  V  V39  1  0.61546558  0.87002421  0.74847381  1
  V  V40  1  0.01603717  0.87187344  0.87138719  1
  V  V41  1  0.00156138  0.37539209  0.37462480  1
  V  V42  1  0.37438468  0.37597828  0.48943573  1
  V  V43  1  0.12344893  0.75098466  0.36833293  1
  V  V44  1  0.24740791  0.62059131  0.86741109  1
  V  V45  1  0.12817132  0.37164823  0.25455176  1
  V  V46  1  0.75869521  0.87025368  0.12945522  1
  V  V47  1  0.37345526  0.60919542  0.74748062  1
  V  V48  1  0.62453322  0.00061406  0.62258908  1
  V  V49  1  0.38458875  -0.00201117  0.87911901  1
  V  V50  1  0.49805663  0.49872878  0.49085123  1
  V  V51  1  0.62659474  0.74808079  0.37089797  1
  V  V52  1  0.87462711  0.37501588  0.49576917  1
  V  V53  1  0.12775525  0.50068057  0.62489035  1
  V  V54  1  0.75051829  0.87163407  0.61839084  1
  V  V55  1  0.25912487  0.49736410  0.25198848  1
  V  V56  1  0.87796013  0.86462628  0.00375372  1
  V  V57  1  -0.00260635  0.13180685  0.62678563  1
  V  V58  1  0.50751576  0.50472335  -0.00686342  1
  V  V59  1  0.12819110  0.13814462  0.00141930  1
  V  V60  1  0.37800391  0.24778331  0.12085567  1
  V  V61  1  0.12389587  0.37727108  0.75043646  1
  V  V62  1  0.62330681  0.50997610  0.13310442  1
  V  V63  1  -0.00446716  0.50114830  0.49543294  1
  V  V64  1  0.62238633  0.10518214  0.00303617  1
  V  V65  1  0.38717747  0.87653897  -0.00297260  1
  V  V66  1  0.25052725  0.13214702  0.88088670  1
  V  V67  1  -0.00077384  0.12732503  0.12540769  1
  V  V68  1  0.38283327  0.37340346  -0.00710630  1
  V  V69  1  0.76349787  0.62813331  0.37370675  1
  V  V70  1  0.74038290  0.37529932  0.13072593  1
  V  V71  1  0.38323485  0.62677978  0.25027634  1
  V  V72  1  0.87360660  0.63035870  0.74948491  1
  V  V73  1  0.87411901  0.75206278  0.61526018  1
  V  V74  1  -0.00254491  0.50724062  0.00372945  1
  V  V75  1  0.62418249  0.25748877  0.36863041  1
  V  V76  1  0.73758790  0.63549573  0.87955794  1
  V  V77  1  0.87818628  0.12007290  0.25514828  1
  V  V78  1  0.49777442  0.86874009  0.37268610  1
  V  V79  1  0.74975870  -0.00016515  0.24944454  1
  V  V80  1  0.50065329  0.25273132  0.76581764  1
  V  V81  1  0.00179560  0.25131579  0.25394582  1
  V  V82  1  0.25412968  0.62221770  0.37399279  1
  V  V83  1  0.12640109  0.00149033  0.12381963  1
  V  V84  1  0.00083634  0.00286772  -0.00017082  1
  Zn  Zn85  1  0.37131841  0.00097948  0.37549343  1
  Zn  Zn86  1  0.50509272  0.63123630  0.12375130  1
  Zn  Zn87  1  0.49911566  0.12772524  0.62558147  1
  Zn  Zn88  1  0.50444716  0.25494146  0.24384253  1
  Zn  Zn89  1  0.86995147  0.87800664  0.49348823  1
  Zn  Zn90  1  0.12076918  0.86910375  0.24493931  1
  Zn  Zn91  1  0.12591350  0.62378560  0.49518794  1
  Zn  Zn92  1  0.73711422  0.74873833  0.00235414  1
  Zn  Zn93  1  0.24346128  -0.00668945  0.75824561  1
  Zn  Zn94  1  0.37749014  0.49204154  0.87152395  1
  Zn  Zn95  1  0.49980515  0.38074350  0.36444359  1
  Zn  Zn96  1  0.24703678  0.74790254  0.49818356  1
  Zn  Zn97  1  0.12392826  0.25510181  0.87621884  1
  Zn  Zn98  1  0.24888709  0.75027105  -0.00532199  1
  Zn  Zn99  1  0.24558783  0.25297136  0.49630943  1
  Zn  Zn100  1  -0.00050123  0.37482103  0.87413245  1
  Zn  Zn101  1  0.37819329  0.12543854  0.25123087  1
  Zn  Zn102  1  0.01296285  0.76482862  0.74368966  1
  Zn  Zn103  1  0.12056403  -0.00203386  0.63187985  1
  Zn  Zn104  1  -0.00362428  0.25385331  0.75107250  1
  Zn  Zn105  1  0.50104312  0.74382892  0.75485869  1
  Zn  Zn106  1  0.55437202  0.81249960  0.91204534  1
  Zn  Zn107  1  0.18992700  0.19033304  0.18675993  1
  Zn  Zn108  1  0.18700753  0.18920416  0.68663255  1
  Zn  Zn109  1  0.18959914  0.68632142  0.18757783  1
  Zn  Zn110  1  0.18844623  0.68845867  0.68603755  1
  Zn  Zn111  1  0.68544357  0.18319060  0.18651664  1
  Zn  Zn112  1  0.68524229  0.18847739  0.68885011  1
  Zn  Zn113  1  0.69463276  0.68887031  0.19362127  1
  Zn  Zn114  1  0.68937749  0.68977680  0.68718555  1
  Zn  Zn115  1  0.31562362  0.30942116  0.30605158  1
  Zn  Zn116  1  0.30937498  0.31134443  0.81058796  1
  Zn  Zn117  1  0.30966246  0.81002747  0.30977913  1
  Zn  Zn118  1  0.32366025  0.80212140  0.81746250  1
  Zn  Zn119  1  0.81216888  0.31173481  0.31412297  1
  Zn  Zn120  1  0.80861177  0.31188628  0.81779486  1
  Zn  Zn121  1  0.81709619  0.80581544  0.31054293  1
  Zn  Zn122  1  0.81518412  0.81335964  0.80733118  1
  Zn  Zn123  1  0.18685327  0.43786456  0.43701504  1
  Zn  Zn124  1  0.18776666  0.44551875  0.93406652  1
  Zn  Zn125  1  0.18056159  0.94090422  0.43906828  1
  Zn  Zn126  1  0.19343716  0.94594744  0.93964667  1
  Zn  Zn127  1  0.68877611  0.44008620  0.43777403  1
  Zn  Zn128  1  0.68845543  0.44387596  0.94126597  1
  Zn  Zn129  1  0.68751860  0.93924852  0.43492229  1
  Zn  Zn130  1  0.68465874  0.92064960  0.94347827  1
  Zn  Zn131  1  0.31462520  0.06173751  0.06109845  1
  Zn  Zn132  1  0.30834895  0.06062954  0.56303345  1
  Zn  Zn133  1  0.31418972  0.55970180  0.06187819  1
  Zn  Zn134  1  0.31281829  0.55939546  0.55827862  1
  Zn  Zn135  1  0.81096697  0.05860789  0.06481028  1
  Zn  Zn136  1  0.81447954  0.06080955  0.56504951  1
  Zn  Zn137  1  0.80808410  0.56796494  0.06289138  1
  Zn  Zn138  1  0.81272872  0.56169757  0.55941809  1
  Zn  Zn139  1  0.44000482  0.43443406  0.18525467  1
  Zn  Zn140  1  0.44388965  0.43247645  0.68112809  1
  Zn  Zn141  1  0.43382541  0.93572652  0.19037187  1
  Zn  Zn142  1  0.43222241  0.94041880  0.68572871  1
  Zn  Zn143  1  0.93720160  0.44169058  0.18586777  1
  Zn  Zn144  1  0.93739557  0.44037401  0.68623926  1
  Zn  Zn145  1  0.93643826  0.93937164  0.18829348  1
  Zn  Zn146  1  0.93773214  0.94235564  0.68877815  1
  Zn  Zn147  1  0.06535024  0.05883818  0.31473106  1
  Zn  Zn148  1  0.06478063  0.06096111  0.81139832  1
  Zn  Zn149  1  0.06331418  0.56165811  0.31026621  1
  Zn  Zn150  1  0.07883015  0.59323615  0.79241779  1
  Zn  Zn151  1  0.56237506  0.06387896  0.31328901  1
  Zn  Zn152  1  0.56174088  0.06309951  0.81056075  1
  Zn  Zn153  1  0.56735186  0.56084894  0.30963962  1
  Zn  Zn154  1  0.56112402  0.56038012  0.81024296  1
  Zn  Zn155  1  0.43539848  0.18761527  0.43536996  1
  Zn  Zn156  1  0.43922239  0.18350085  0.94291474  1
  Zn  Zn157  1  0.43677935  0.68738552  0.43620063  1
  Zn  Zn158  1  0.42933440  0.68118220  0.93916373  1
  Zn  Zn159  1  0.93864597  0.19100192  0.43805589  1
  Zn  Zn160  1  0.93567523  0.19060475  0.93535133  1
  Zn  Zn161  1  0.94104708  0.69277626  0.43453103  1
  Zn  Zn162  1  0.93825056  0.68854244  0.93746189  1
  Zn  Zn163  1  0.05879475  0.31867875  0.06452349  1
  Zn  Zn164  1  0.06230869  0.31030805  0.56435597  1
  Zn  Zn165  1  0.05899888  0.81096108  0.06393712  1
  Zn  Zn166  1  0.06204746  0.80984665  0.55378976  1
  Zn  Zn167  1  0.55981243  0.31302291  0.06295084  1
  Zn  Zn168  1  0.56362366  0.31332240  0.56253181  1
  Zn  Zn169  1  0.56595157  0.81921676  0.07711374  1
  Zn  Zn170  1  0.56127858  0.81082312  0.56096465  1
  O  O171  1  0.12000154  0.12227922  0.11979072  1
  O  O172  1  0.11719610  0.12440999  0.61795548  1
  O  O173  1  0.13527856  0.61039150  0.11780218  1
  O  O174  1  0.12128145  0.61468242  0.61579427  1
  O  O175  1  0.61370410  0.12334213  0.11932969  1
  O  O176  1  0.62272701  0.11875738  0.61762014  1
  O  O177  1  0.62722312  0.61445167  0.12940189  1
  O  O178  1  0.62433238  0.62065425  0.61642173  1
  O  O179  1  0.37488827  0.36839537  0.38646473  1
  O  O180  1  0.36718251  0.37328551  0.88892950  1
  O  O181  1  0.38098095  0.87388314  0.38167362  1
  O  O182  1  0.36526159  0.88473527  0.88559449  1
  O  O183  1  0.88062041  0.37255388  0.38783495  1
  O  O184  1  0.86989910  0.38534641  0.88399046  1
  O  O185  1  0.88852217  0.87026994  0.37572486  1
  O  O186  1  0.87514408  0.88647145  0.88191584  1
  O  O187  1  0.24805084  0.00530782  0.36684605  1
  O  O188  1  0.25912543  0.01419231  0.87421703  1
  O  O189  1  0.24525637  0.50719354  0.36338020  1
  O  O190  1  0.26050510  0.51377224  0.87858229  1
  O  O191  1  0.75143426  0.01295572  0.37067300  1
  O  O192  1  0.75596546  0.00337999  0.87178331  1
  O  O193  1  0.74589246  0.50693801  0.36319161  1
  O  O194  1  0.75800660  0.51204862  0.87256458  1
  O  O195  1  0.24439329  0.48996362  0.13196536  1
  O  O196  1  0.23994217  0.49081947  0.61713670  1
  O  O197  1  0.24517786  0.99503609  0.13097879  1
  O  O198  1  0.25176126  0.98115877  0.62705343  1
  O  O199  1  0.74142987  0.49652337  0.13183276  1
  O  O200  1  0.74612692  0.49321005  0.63094144  1
  O  O201  1  0.75547163  0.99173293  0.14235920  1
  O  O202  1  0.74416583  0.99516118  0.63203655  1
  O  O203  1  0.00627667  0.37452160  0.25658077  1
  O  O204  1  0.00782963  0.37484191  0.74914721  1
  O  O205  1  0.00291767  0.88426645  0.26389712  1
  O  O206  1  -0.00103600  0.87957523  0.76586557  1
  O  O207  1  0.49775118  0.36894565  0.25292979  1
  O  O208  1  0.51054828  0.36602365  0.74720062  1
  O  O209  1  0.50836969  0.88315216  0.26224355  1
  O  O210  1  0.51272434  0.87414222  0.73625452  1
  O  O211  1  0.50074550  0.12802229  0.23887361  1
  O  O212  1  0.48844138  0.13240531  0.74724580  1
  O  O213  1  0.48649698  0.61759192  0.24920388  1
  O  O214  1  0.49337264  0.62241456  0.73917266  1
  O  O215  1  0.99496165  0.12903735  0.24848622  1
  O  O216  1  0.98979517  0.12579669  0.74410446  1
  O  O217  1  0.99563755  0.62070142  0.24422437  1
  O  O218  1  0.97819211  0.60818149  0.73686844  1
  O  O219  1  0.38129631  0.25792718  0.01080973  1
  O  O220  1  0.37331580  0.25712821  0.50687081  1
  O  O221  1  0.37000463  0.75743632  0.01018929  1
  O  O222  1  0.37368122  0.75600201  0.50960130  1
  O  O223  1  0.86472092  0.25410170  0.00788130  1
  O  O224  1  0.86188197  0.25638198  0.49815975  1
  O  O225  1  0.86913822  0.76330184  -0.00594582  1
  O  O226  1  0.87818487  0.75485303  0.51166740  1
  O  O227  1  0.12614090  0.23591852  0.50321714  1
  O  O228  1  0.11959315  0.24121071  1.00266846  1
  O  O229  1  0.12788243  0.74523324  0.48494004  1
  O  O230  1  0.12576478  0.73443281  1.00591784  1
  O  O231  1  0.63505931  0.24474380  0.49447511  1
  O  O232  1  0.63519349  0.24273864  1.00538842  1
  O  O233  1  0.62231133  0.73760382  0.49153465  1
  O  O234  1  0.63616108  0.80447769  0.98845841  1
  O  O235  1  0.49427597  0.24036527  0.12498262  1
  O  O236  1  0.48750673  0.25031188  0.62732248  1
  O  O237  1  0.48895194  0.74946437  0.12532609  1
  O  O238  1  0.49201265  0.74069167  0.62372220  1
  O  O239  1  0.99235912  0.24690029  0.13231387  1
  O  O240  1  0.99820611  0.23640522  0.62696708  1
  O  O241  1  0.99905332  0.74811640  0.13404586  1
  O  O242  1  0.99395840  0.74462171  0.62464998  1
  O  O243  1  -0.00305338  0.26399427  0.36835843  1
  O  O244  1  0.00320360  0.25574419  0.87154135  1
  O  O245  1  0.00826687  0.76542309  0.37778117  1
  O  O246  1  -0.00411775  0.77040644  0.87642141  1
  O  O247  1  0.51669498  0.24715280  0.37616475  1
  O  O248  1  0.49628987  0.24654763  0.86485435  1
  O  O249  1  0.50807182  0.76170400  0.38049870  1
  O  O250  1  0.47829614  0.75090038  0.86592599  1
  O  O251  1  0.24157361  0.12437743  0.49255924  1
  O  O252  1  0.23977879  0.12290182  0.99487930  1
  O  O253  1  0.24983366  0.62355586  0.48731802  1
  O  O254  1  0.24388834  0.62373310  0.99349043  1
  O  O255  1  0.74837147  0.13047492  0.49480404  1
  O  O256  1  0.74332655  0.12931296  0.99711555  1
  O  O257  1  0.74065794  0.61462669  0.48485149  1
  O  O258  1  0.74724364  0.63087690  0.98536260  1
  O  O259  1  0.25563989  0.38293571  0.00950710  1
  O  O260  1  0.25670558  0.37381425  0.50728262  1
  O  O261  1  0.25357362  0.87498864  0.01158543  1
  O  O262  1  0.26047851  0.87533544  0.50386772  1
  O  O263  1  0.75262178  0.36810902  0.00736826  1
  O  O264  1  0.75651138  0.36958585  0.50494111  1
  O  O265  1  0.76712642  0.88663433  0.01533564  1
  O  O266  1  0.75164238  0.88417654  0.51302479  1
  O  O267  1  0.13306732  0.49068544  0.24239543  1
  O  O268  1  0.11891101  0.49288722  0.73326459  1
  O  O269  1  0.13491372  0.99892261  0.24118450  1
  O  O270  1  0.13182498  1.00364077  0.74468519  1
  O  O271  1  0.63407806  0.49906725  0.23716409  1
  O  O272  1  0.62938327  0.49149588  0.74279843  1
  O  O273  1  0.63833303  0.99185894  0.26386681  1
  O  O274  1  0.62707543  0.99530422  0.73875031  1
  O  O275  1  0.36093575  0.00254765  0.25164150  1
  O  O276  1  0.36974432  0.00848180  0.75556183  1
  O  O277  1  0.36379306  0.50614580  0.24115511  1
  O  O278  1  0.38167523  0.50596139  0.74557882  1
  O  O279  1  0.87049947  0.01390170  0.25122814  1
  O  O280  1  0.86775921  0.00819401  0.75959365  1
  O  O281  1  0.85989900  0.49971235  0.24694741  1
  O  O282  1  0.86469159  0.50310013  0.75742608  1
  O  O283  1  0.11852520  0.37636368  0.36445953  1
  O  O284  1  0.12542647  0.37878469  0.86387697  1
  O  O285  1  0.11749533  0.86822038  0.37237412  1
  O  O286  1  0.11439486  0.88074044  0.88281280  1
  O  O287  1  0.62637648  0.35962395  0.38262344  1
  O  O288  1  0.63712880  0.37813852  0.86177809  1
  O  O289  1  0.61989447  0.86725565  0.37255699  1
  O  O290  1  0.62310782  0.88776721  0.85052562  1
  O  O291  1  0.38580458  0.13051848  0.12242856  1
  O  O292  1  0.37312000  0.13192186  0.63207915  1
  O  O293  1  0.37471016  0.63367939  0.13193123  1
  O  O294  1  0.37801185  0.62869170  0.62770131  1
  O  O295  1  0.87943182  0.13012759  0.13316091  1
  O  O296  1  0.88112241  0.12043691  0.63759585  1
  O  O297  1  0.88352990  0.62693903  0.11941559  1
  O  O298  1  0.87435935  0.63365592  0.62858199  1
  O  O299  1  0.25875575  0.26102240  0.12685763  1
  O  O300  1  0.26160596  0.25749940  0.62244220  1
  O  O301  1  0.25717731  0.75912733  0.12348860  1
  O  O302  1  0.25579624  0.75683995  0.62031606  1
  O  O303  1  0.75159160  0.25711549  0.12242531  1
  O  O304  1  0.74537644  0.25749220  0.61621607  1
  O  O305  1  0.74268007  0.76568921  0.12311821  1
  O  O306  1  0.75927842  0.76046946  0.62846872  1
  O  O307  1  0.25143727  0.23761529  0.37379952  1
  O  O308  1  0.24602687  0.23709346  0.87257570  1
  O  O309  1  0.24390122  0.74181128  0.37630091  1
  O  O310  1  0.25836484  0.72799193  0.87853606  1
  O  O311  1  0.74172453  0.24218262  0.38191279  1
  O  O312  1  0.75384625  0.23747166  0.88756796  1
  O  O313  1  0.74421280  0.73567796  0.37352210  1
  O  O314  1  0.75360276  0.73802161  0.87141104  1
  O  O315  1  0.00475019  0.12172813  0.00589816  1
  O  O316  1  0.00377454  0.12123967  0.50473962  1
  O  O317  1  0.00881685  0.61383269  -0.00899759  1
  O  O318  1  -0.00056033  0.61616388  0.50275933  1
  O  O319  1  0.51016966  0.12472345  0.01277233  1
  O  O320  1  0.50347252  0.11660672  0.50043041  1
  O  O321  1  0.49494742  0.60898536  0.00526444  1
  O  O322  1  0.50647028  0.61819281  0.50280627  1
  O  O323  1  0.49306804  0.38179968  0.49713123  1
  O  O324  1  0.49340414  0.38746449  1.00529620  1
  O  O325  1  0.48941163  0.88028903  0.49546759  1
  O  O326  1  0.48894629  0.87354044  1.00231543  1
  O  O327  1  0.99347702  0.37677451  0.49492398  1
  O  O328  1  0.99110317  0.38743572  0.99840220  1
  O  O329  1  0.99798334  0.88421191  0.49137561  1
  O  O330  1  0.99532005  0.88282445  0.99289817  1
  O  O331  1  0.50825353  0.49897812  0.38696698  1
  O  O332  1  0.50100975  0.50070816  0.88899677  1
  O  O333  1  0.49881062  0.99111291  0.38594442  1
  O  O334  1  0.48426051  1.00500403  0.87081901  1
  O  O335  1  1.00532126  0.48711901  0.38193822  1
  O  O336  1  0.98367719  0.49950276  0.88070962  1
  O  O337  1  1.00587234  0.98673578  0.38343095  1
  O  O338  1  0.99197542  0.99425324  0.88099428  1
  O  O339  1  0.00608774  0.00792482  0.12080854  1
  O  O340  1  -0.00029727  0.01044488  0.61754735  1
  O  O341  1  0.01087185  0.49417040  0.11575875  1
  O  O342  1  0.00488185  0.50507158  0.61461165  1
  O  O343  1  0.49503340  0.01281183  0.12940190  1
  O  O344  1  0.50314972  0.00105867  0.61250805  1
  O  O345  1  0.51357153  0.50268272  0.12057374  1
  O  O346  1  0.50921096  0.50408757  0.61352539  1
  O  O347  1  0.24472656  0.38006882  0.24440710  1
  O  O348  1  0.24403189  0.37426190  0.73622448  1
  O  O349  1  0.24913705  0.88267212  0.23839154  1
  O  O350  1  0.25643498  0.86796580  0.73799260  1
  O  O351  1  0.75284656  0.38648777  0.24515817  1
  O  O352  1  0.74607844  0.37698386  0.74267825  1
  O  O353  1  0.74885235  0.88215586  0.25091508  1
  O  O354  1  0.74149605  0.88037934  0.73962293  1
  O  O355  1  0.24820552  0.11803679  0.25711811  1
  O  O356  1  0.26190829  0.12873048  0.75591669  1
  O  O357  1  0.25797210  0.61523617  0.25459105  1
  O  O358  1  0.25828763  0.62239234  0.75825097  1
  O  O359  1  0.75639185  0.11904227  0.25647171  1
  O  O360  1  0.75225473  0.11984561  0.75866200  1
  O  O361  1  0.74667809  0.61328936  0.26445041  1
  O  O362  1  0.75801139  0.62101230  0.75484074  1
  O  O363  1  0.36451636  0.12124354  0.37291711  1
  O  O364  1  0.36920368  0.12112303  0.87092059  1
  O  O365  1  0.36384086  0.63094164  0.36607057  1
  O  O366  1  0.36861781  0.61574285  0.86281846  1
  O  O367  1  0.86606639  0.13414677  0.36682570  1
  O  O368  1  0.86479379  0.11440439  0.87316516  1
  O  O369  1  0.86174288  0.62697421  0.38286943  1
  O  O370  1  0.86891352  0.62150752  0.86667242  1
  O  O371  1  0.13285707  0.38298892  0.12964370  1
  O  O372  1  0.13258896  0.37960983  0.62799026  1
  O  O373  1  0.13187875  0.88200271  0.12398949  1
  O  O374  1  0.13978149  0.86957628  0.61992885  1
  O  O375  1  0.63680355  0.38362577  0.12131681  1
  O  O376  1  0.63740548  0.37999400  0.62743128  1
  O  O377  1  0.63387430  0.88045211  0.14618073  1
  O  O378  1  0.63123173  0.87997458  0.62808489  1
  O  O379  1  0.11823666  0.26424128  0.24174134  1
  O  O380  1  0.12321474  0.26567307  0.74827906  1
  O  O381  1  0.13215231  0.75148390  0.26231697  1
  O  O382  1  0.10499807  0.70274885  0.75662445  1
  O  O383  1  0.62967997  0.24587686  0.26614435  1
  O  O384  1  0.61331033  0.25761511  0.74555640  1
  O  O385  1  0.62900479  0.75898117  0.26367565  1
  O  O386  1  0.62158925  0.76526301  0.74326496  1
  O  O387  1  0.37664422  0.24464906  0.23462994  1
  O  O388  1  0.38149440  0.24571166  0.74287245  1
  O  O389  1  0.36941762  0.73963932  0.24004063  1
  O  O390  1  0.37522551  0.73742804  0.73477870  1
  O  O391  1  0.87900163  0.24160330  0.24494550  1
  O  O392  1  0.87163195  0.23608842  0.75691465  1
  O  O393  1  0.87343317  0.73633627  0.24429780  1
  O  O394  1  0.88203623  0.74317562  0.74035822  1
  O  O395  1  0.38636873  0.48891102  0.50444123  1
  O  O396  1  0.38948891  0.49083485  1.00283295  1
  O  O397  1  0.38087324  0.99154038  0.49957533  1
  O  O398  1  0.37159303  0.98993875  0.99172294  1
  O  O399  1  0.88688223  0.49080121  0.50321938  1
  O  O400  1  0.87822092  0.49812927  0.99548830  1
  O  O401  1  0.88849054  1.00064318  0.50071339  1
  O  O402  1  0.88323837  0.99771918  0.99387610  1
  O  O403  1  0.11900145  0.01094586  0.00701538  1
  O  O404  1  0.11369350  0.01013055  0.50694326  1
  O  O405  1  0.11591209  0.50420397  0.00789669  1
  O  O406  1  0.11228073  0.49635726  0.50733874  1
  O  O407  1  0.63088635  0.00659724  0.00020482  1
  O  O408  1  0.61744096  0.00556546  0.50322430  1
  O  O409  1  0.61456093  0.49757404  0.01181812  1
  O  O410  1  0.62048309  0.50872988  0.50426287  1
  O  O411  1  0.36811998  0.36837942  0.11510697  1
  O  O412  1  0.36892511  0.36876429  0.61724113  1
  O  O413  1  0.36909949  0.86948633  0.11939805  1
  O  O414  1  0.36799872  0.86587023  0.61836280  1
  O  O415  1  0.86342060  0.37184387  0.12019683  1
  O  O416  1  0.86290104  0.37889936  0.61566368  1
  O  O417  1  0.87096619  0.87832124  0.11807661  1
  O  O418  1  0.86764592  0.86967810  0.62640281  1
  O  O419  1  0.13298723  0.12060699  0.38495198  1
  O  O420  1  0.13127815  0.12731008  0.88556109  1
  O  O421  1  0.13514953  0.63025669  0.37275903  1
  O  O422  1  0.14021835  0.60953498  0.88733076  1
  O  O423  1  0.63388787  0.13235679  0.38205487  1
  O  O424  1  0.63600412  0.11802023  0.88231051  1
  O  O425  1  0.62951783  0.63212837  0.37925671  1
  O  O426  1  0.63938985  0.62510995  0.86510987  1
