# generated using pymatgen
data_V85Zn86O256
_symmetry_space_group_name_H-M   'P 1'
_cell_length_a   16.99592802
_cell_length_b   16.96314851
_cell_length_c   16.98533824
_cell_angle_alpha   89.96893232
_cell_angle_beta   89.92740299
_cell_angle_gamma   89.99585134
_symmetry_Int_Tables_number   1
_chemical_formula_structural   V85Zn86O256
_chemical_formula_sum   'V85 Zn86 O256'
_cell_volume   4896.94395295
_cell_formula_units_Z   1
loop_
 _symmetry_equiv_pos_site_id
 _symmetry_equiv_pos_as_xyz
  1  'x, y, z'
loop_
 _atom_site_type_symbol
 _atom_site_label
 _atom_site_symmetry_multiplicity
 _atom_site_fract_x
 _atom_site_fract_y
 _atom_site_fract_z
 _atom_site_occupancy
  V  V0  1  0.85709279  0.89484422  -0.01338921  1
  V  V1  1  0.68613013  0.93688251  0.06880415  1
  V  V2  1  0.49889133  0.37505117  0.39082663  1
  V  V3  1  0.24850774  0.75477018  0.49810944  1
  V  V4  1  0.87279251  0.76565707  0.11942590  1
  V  V5  1  0.12743725  0.87877771  0.25108483  1
  V  V6  1  -0.00223991  0.62689385  0.12110628  1
  V  V7  1  0.87627814  0.50038245  0.37156538  1
  V  V8  1  0.75086227  0.88371631  0.63051734  1
  V  V9  1  0.75098391  0.49966073  0.25051958  1
  V  V10  1  0.62638194  0.88359006  0.75342659  1
  V  V11  1  0.12562552  0.12781898  0.00065593  1
  V  V12  1  0.87231071  0.37207073  0.49853604  1
  V  V13  1  0.62544952  0.49779450  0.12344687  1
  V  V14  1  0.87395180  0.87282638  0.50086237  1
  V  V15  1  0.37536468  0.00230404  0.87647956  1
  V  V16  1  0.62434480  0.62427735  0.00158055  1
  V  V17  1  0.37833428  0.12727903  0.73898703  1
  V  V18  1  0.86959264  0.00362851  0.37668332  1
  V  V19  1  0.25835069  0.37342740  0.12886845  1
  V  V20  1  -0.00039954  0.25148632  0.75423004  1
  V  V21  1  0.11749997  0.74912993  0.37512826  1
  V  V22  1  0.00063745  0.00364548  -0.00155256  1
  V  V23  1  0.12317934  0.13440583  0.49260118  1
  V  V24  1  -0.00118289  0.88115176  0.37870857  1
  V  V25  1  0.12427794  0.87651644  0.74807860  1
  V  V26  1  0.74792527  0.23885248  -0.00144570  1
  V  V27  1  -0.00317682  0.75314023  0.24811980  1
  V  V28  1  0.12594336  0.74954554  0.87361823  1
  V  V29  1  0.75085558  0.37153585  0.12354743  1
  V  V30  1  0.12368264  0.00089403  0.61322376  1
  V  V31  1  0.63052553  0.23230025  0.87599476  1
  V  V32  1  0.61385049  0.11878633  0.50817490  1
  V  V33  1  0.50163767  0.49620046  0.00168483  1
  V  V34  1  0.13189317  0.00092479  0.12932566  1
  V  V35  1  0.72053786  0.73137274  0.53265443  1
  V  V36  1  0.74135923  0.37243182  0.62956700  1
  V  V37  1  0.74477928  0.49368030  0.75168647  1
  V  V38  1  0.50311842  0.75613993  0.24659886  1
  V  V39  1  0.51886434  0.12217077  0.11849982  1
  V  V40  1  0.00617488  0.12945853  0.14144929  1
  V  V41  1  0.75220924  0.23748023  0.49546366  1
  V  V42  1  0.26861547  0.12588482  0.37264219  1
  V  V43  1  0.75171944  0.64097042  0.36845591  1
  V  V44  1  0.56689146  0.69345208  0.42512065  1
  V  V45  1  0.25704862  0.87535215  0.62216838  1
  V  V46  1  0.62508450  0.87792632  0.26808964  1
  V  V47  1  0.47540425  -0.01946071  0.49953605  1
  V  V48  1  0.88193036  0.25078001  0.13264054  1
  V  V49  1  0.74361139  0.00353191  0.25428603  1
  V  V50  1  0.62065222  0.37008598  0.25031934  1
  V  V51  1  0.25098135  0.12862457  0.87430182  1
  V  V52  1  0.11689330  0.62740660  0.50720440  1
  V  V53  1  0.86477434  0.11240106  0.76492104  1
  V  V54  1  0.37903107  0.37050683  0.00158232  1
  V  V55  1  0.37561923  0.11809841  0.23357784  1
  V  V56  1  0.24854825  0.62123374  0.37527370  1
  V  V57  1  -0.00066404  0.36430351  0.36890225  1
  V  V58  1  0.37304362  0.74779723  0.12536385  1
  V  V59  1  0.12677679  0.50040096  0.12767966  1
  V  V60  1  0.12587244  0.62485092  -0.00113124  1
  V  V61  1  -0.00041278  0.74369519  0.74896504  1
  V  V62  1  0.13272557  0.49154477  0.62466855  1
  V  V63  1  0.12188125  0.36036123  0.25020802  1
  V  V64  1  -0.00031984  0.11871511  0.62590007  1
  V  V65  1  0.49801401  0.87510900  0.87501435  1
  V  V66  1  0.49503615  0.74018176  0.75243756  1
  V  V67  1  0.25528183  0.62242207  0.86527090  1
  V  V68  1  0.87354658  0.24463758  0.62840900  1
  V  V69  1  0.62773653  0.23587732  0.37157685  1
  V  V70  1  0.36905403  0.27071779  0.62128647  1
  V  V71  1  0.50727782  0.24801226  0.74287366  1
  V  V72  1  0.63172346  0.75490902  0.87704490  1
  V  V73  1  0.87504110  0.62307902  0.74540789  1
  V  V74  1  0.88286815  0.74688304  0.62624127  1
  V  V75  1  0.24807042  0.00184021  0.74964176  1
  V  V76  1  0.51242739  0.36975754  0.87334318  1
  V  V77  1  0.25339804  0.25125675  0.00296790  1
  V  V78  1  -0.00351601  0.87990834  0.87466129  1
  V  V79  1  0.87783720  0.37401374  -0.00364262  1
  V  V80  1  -0.00868187  0.50464978  0.50907430  1
  V  V81  1  0.37416542  0.74026532  0.63200235  1
  V  V82  1  0.74807185  0.74806454  0.00809268  1
  V  V83  1  0.37822814  0.50088642  0.86841778  1
  V  V84  1  0.25031848  0.75162654  -0.00026644  1
  Zn  Zn85  1  0.87328765  0.62720193  0.24319401  1
  Zn  Zn86  1  0.49186973  0.24807944  0.24504724  1
  Zn  Zn87  1  0.49788930  0.62290354  0.12802239  1
  Zn  Zn88  1  0.37823032  0.62389527  0.25572730  1
  Zn  Zn89  1  0.25277492  0.49948213  0.25165305  1
  Zn  Zn90  1  0.59105274  0.56998965  0.56408488  1
  Zn  Zn91  1  0.51179971  0.00269586  0.00134812  1
  Zn  Zn92  1  0.56547701  0.43108829  0.69027285  1
  Zn  Zn93  1  0.87789202  0.50335412  0.87578060  1
  Zn  Zn94  1  0.13584698  0.37192960  0.75036192  1
  Zn  Zn95  1  0.38109033  0.48798427  0.37828753  1
  Zn  Zn96  1  0.00345273  0.37859024  0.87417801  1
  Zn  Zn97  1  0.00071963  0.49835698  -0.00204333  1
  Zn  Zn98  1  0.26361312  0.49494096  0.73828536  1
  Zn  Zn99  1  0.61807031  0.00304980  0.62712855  1
  Zn  Zn100  1  0.25289531  0.87853219  0.12719270  1
  Zn  Zn101  1  0.75337598  0.62210078  0.87612135  1
  Zn  Zn102  1  0.42297391  0.81083293  0.43702091  1
  Zn  Zn103  1  0.24749031  0.26238198  0.49790309  1
  Zn  Zn104  1  0.12632613  0.25507840  0.87442385  1
  Zn  Zn105  1  0.87235181  0.12983088  0.25928624  1
  Zn  Zn106  1  0.37551921  0.87747886  0.00281485  1
  Zn  Zn107  1  0.19826138  0.18627078  0.18963756  1
  Zn  Zn108  1  0.18859400  0.19093192  0.68598573  1
  Zn  Zn109  1  0.18535567  0.68901883  0.18777257  1
  Zn  Zn110  1  0.18615754  0.68355633  0.68500460  1
  Zn  Zn111  1  0.68992255  0.18490949  0.18627127  1
  Zn  Zn112  1  0.69002579  0.18297583  0.68940554  1
  Zn  Zn113  1  0.68473002  0.69065837  0.18872369  1
  Zn  Zn114  1  0.69270379  0.69220407  0.70078563  1
  Zn  Zn115  1  0.31351210  0.30286030  0.31524105  1
  Zn  Zn116  1  0.31657323  0.31637183  0.81032145  1
  Zn  Zn117  1  0.30576897  0.80352632  0.30530214  1
  Zn  Zn118  1  0.31256907  0.81393429  0.81099890  1
  Zn  Zn119  1  0.80936046  0.31256037  0.31373616  1
  Zn  Zn120  1  0.81264468  0.30764931  0.81340823  1
  Zn  Zn121  1  0.81186929  0.82327131  0.30388761  1
  Zn  Zn122  1  0.80739217  0.93417465  0.81635046  1
  Zn  Zn123  1  0.17808101  0.43677721  0.43521385  1
  Zn  Zn124  1  0.18809664  0.43644564  0.93439951  1
  Zn  Zn125  1  0.29407273  0.94545221  0.42456425  1
  Zn  Zn126  1  0.18601188  0.93812844  0.93747916  1
  Zn  Zn127  1  0.68371402  0.43257613  0.43686518  1
  Zn  Zn128  1  0.69294883  0.43258422  0.93586352  1
  Zn  Zn129  1  0.69200836  0.93345136  0.44368096  1
  Zn  Zn130  1  0.71088612  1.05490302  0.92713591  1
  Zn  Zn131  1  0.31370040  0.06118844  0.06043055  1
  Zn  Zn132  1  0.30515895  0.06990607  0.56171824  1
  Zn  Zn133  1  0.31288295  0.56191761  0.05932563  1
  Zn  Zn134  1  0.31748136  0.44027106  0.55040249  1
  Zn  Zn135  1  0.82000605  0.06871553  0.07170580  1
  Zn  Zn136  1  0.81331822  0.06038125  0.56276454  1
  Zn  Zn137  1  0.81354211  0.56257992  0.06296010  1
  Zn  Zn138  1  0.77575487  0.54527722  0.54378194  1
  Zn  Zn139  1  0.43635282  0.44071400  0.19293962  1
  Zn  Zn140  1  0.43829365  0.56567928  0.68366447  1
  Zn  Zn141  1  0.43949358  0.94124527  0.18924562  1
  Zn  Zn142  1  0.43894983  0.93745510  0.68585223  1
  Zn  Zn143  1  0.94015490  0.43698495  0.18479552  1
  Zn  Zn144  1  0.93082580  0.43481291  0.68675092  1
  Zn  Zn145  1  0.93830570  0.94315537  0.18711255  1
  Zn  Zn146  1  0.93969285  0.93707442  0.68682872  1
  Zn  Zn147  1  0.06626371  0.05719408  0.31780651  1
  Zn  Zn148  1  0.06307285  0.06583318  0.81095161  1
  Zn  Zn149  1  0.06041521  0.56047811  0.31157605  1
  Zn  Zn150  1  0.06107460  0.56064252  0.81200667  1
  Zn  Zn151  1  0.55070300  0.05716146  0.31599461  1
  Zn  Zn152  1  0.55785528  0.06394378  0.81255500  1
  Zn  Zn153  1  0.55954639  0.55690581  0.30610600  1
  Zn  Zn154  1  0.56787206  0.56239923  0.81943489  1
  Zn  Zn155  1  0.44022298  0.19364633  0.43889717  1
  Zn  Zn156  1  0.44011358  0.18639739  0.93945407  1
  Zn  Zn157  1  0.38954406  0.62073059  0.50196979  1
  Zn  Zn158  1  0.43772441  0.68671876  0.93922217  1
  Zn  Zn159  1  0.94172231  0.18299458  0.44126327  1
  Zn  Zn160  1  0.93812856  0.18847187  0.94049989  1
  Zn  Zn161  1  0.93113441  0.68757447  0.43712887  1
  Zn  Zn162  1  0.93404040  0.69289442  0.93438192  1
  Zn  Zn163  1  0.06497982  0.31242724  0.06348255  1
  Zn  Zn164  1  0.05578078  0.31388095  0.56221760  1
  Zn  Zn165  1  0.06064743  0.81705766  0.05995913  1
  Zn  Zn166  1  0.06146853  0.81778853  0.56129186  1
  Zn  Zn167  1  0.56393535  0.30294820  0.06325102  1
  Zn  Zn168  1  0.56342068  0.30049867  0.56141362  1
  Zn  Zn169  1  0.55415756  0.81146928  0.06045540  1
  Zn  Zn170  1  0.55811088  0.81338821  0.57398782  1
  O  O171  1  0.12337981  0.12085188  0.12296978  1
  O  O172  1  0.11746979  0.11838741  0.62594894  1
  O  O173  1  0.11879641  0.61993099  0.11969353  1
  O  O174  1  0.12436367  0.61782518  0.61149595  1
  O  O175  1  0.61766338  0.11935706  0.12550907  1
  O  O176  1  0.62732127  0.12355422  0.61240917  1
  O  O177  1  0.62451649  0.61791376  0.11641358  1
  O  O178  1  0.65080624  0.67161190  0.59720063  1
  O  O179  1  0.39561442  0.36747773  0.37039028  1
  O  O180  1  0.38880857  0.38161292  0.88383375  1
  O  O181  1  0.35909694  0.87300884  0.37267991  1
  O  O182  1  0.38119898  0.88389565  0.87317205  1
  O  O183  1  0.87812285  0.38171346  0.37804500  1
  O  O184  1  0.87699707  0.36948093  0.88943001  1
  O  O185  1  0.87885250  0.87863443  0.38200156  1
  O  O186  1  0.89303515  0.86938629  0.87456118  1
  O  O187  1  0.23417976  0.02919726  0.38047696  1
  O  O188  1  0.25533471  0.00562719  0.86876732  1
  O  O189  1  0.23843432  0.51585530  0.37244435  1
  O  O190  1  0.26272474  0.50872201  0.88109068  1
  O  O191  1  0.75815081  -0.00833385  0.36672801  1
  O  O192  1  0.78280569  -0.03139442  0.91911371  1
  O  O193  1  0.75555666  0.50480758  0.36074981  1
  O  O194  1  0.75735608  0.49811343  0.86681332  1
  O  O195  1  0.24386743  0.49260744  0.12669183  1
  O  O196  1  0.23483661  0.50062349  0.62215582  1
  O  O197  1  0.23601744  0.99697718  0.11693370  1
  O  O198  1  0.24399402  0.99281898  0.62967266  1
  O  O199  1  0.74647776  0.49443127  0.13419053  1
  O  O200  1  0.75928885  0.48232365  0.63865663  1
  O  O201  1  0.74730999  0.99640497  0.12798753  1
  O  O202  1  0.74658916  0.98603048  0.62169572  1
  O  O203  1  0.01243136  0.37737637  0.25285931  1
  O  O204  1  -0.00680784  0.35916132  0.74951255  1
  O  O205  1  0.00376435  0.86899534  0.25380573  1
  O  O206  1  0.00639775  0.86813169  0.75628443  1
  O  O207  1  0.51396446  0.36935613  0.24531854  1
  O  O208  1  0.50626727  0.36225518  0.76237245  1
  O  O209  1  0.51044533  0.86598486  0.24712774  1
  O  O210  1  0.50342177  0.86730525  0.75888387  1
  O  O211  1  0.49306486  0.12280024  0.23813575  1
  O  O212  1  0.48922948  0.13533608  0.75607196  1
  O  O213  1  0.50168079  0.63887473  0.24877197  1
  O  O214  1  0.50304847  0.63660477  0.75865157  1
  O  O215  1  1.00048666  0.12095515  0.24292126  1
  O  O216  1  0.99158816  0.13144598  0.74270294  1
  O  O217  1  0.99860131  0.63393834  0.23740536  1
  O  O218  1  0.99483583  0.63762553  0.75319845  1
  O  O219  1  0.37039692  0.26342047  -0.00457185  1
  O  O220  1  0.37854216  0.24684379  0.52016322  1
  O  O221  1  0.36690140  0.75183744  0.00608659  1
  O  O222  1  0.36266798  0.74025286  0.50959290  1
  O  O223  1  0.87030245  0.25511029  0.01089539  1
  O  O224  1  0.86891660  0.24841838  0.50781204  1
  O  O225  1  0.86591250  0.76304225  0.00153392  1
  O  O226  1  0.87683214  0.75925437  0.51072731  1
  O  O227  1  0.12451504  0.23658090  0.51335423  1
  O  O228  1  0.13541666  0.24487501  0.99903877  1
  O  O229  1  0.12497003  0.74467044  0.49694307  1
  O  O230  1  0.13142548  0.74641747  0.99460396  1
  O  O231  1  0.63216193  0.23574859  0.49380515  1
  O  O232  1  0.63789856  0.24892606  0.99159471  1
  O  O233  1  0.62053267  0.76293926  0.48164383  1
  O  O234  1  0.62512903  0.74217190  0.99783721  1
  O  O235  1  0.50537385  0.23081073  0.12799732  1
  O  O236  1  0.49131174  0.25500031  0.63820417  1
  O  O237  1  0.49063386  0.74720544  0.13097181  1
  O  O238  1  0.48656592  0.75382699  0.63943160  1
  O  O239  1  0.99334793  0.24130540  0.12153737  1
  O  O240  1  0.98712893  0.24295751  0.63120152  1
  O  O241  1  0.99362786  0.74674760  0.12820222  1
  O  O242  1  0.99127440  0.75905943  0.63426909  1
  O  O243  1  -0.00985733  0.26539597  0.37808951  1
  O  O244  1  0.00237851  0.24919113  0.86622923  1
  O  O245  1  -0.00295162  0.75632063  0.36453338  1
  O  O246  1  0.00867052  0.75697616  0.86796049  1
  O  O247  1  0.51193699  0.25832711  0.37140024  1
  O  O248  1  0.51051446  0.25195886  0.87052719  1
  O  O249  1  0.49895381  0.74669631  0.36877954  1
  O  O250  1  0.50365217  0.75685393  0.87177428  1
  O  O251  1  0.23648054  0.13320106  0.49460531  1
  O  O252  1  0.24707606  0.13405730  0.99550011  1
  O  O253  1  0.23312002  0.63837691  0.48776948  1
  O  O254  1  0.24464544  0.63563093  0.99353146  1
  O  O255  1  0.74485458  0.13429221  0.50427395  1
  O  O256  1  0.75927512  0.13428194  0.99985235  1
  O  O257  1  0.76477245  0.64924629  0.48618381  1
  O  O258  1  0.74078894  0.62882426  0.99878866  1
  O  O259  1  0.25849043  0.36996163  0.00662107  1
  O  O260  1  0.24365980  0.37487812  0.49701768  1
  O  O261  1  0.24941678  0.86159524  -0.00102004  1
  O  O262  1  0.24530301  0.86229836  0.50772165  1
  O  O263  1  0.75867610  0.36504236  0.00704164  1
  O  O264  1  0.75510165  0.35981889  0.50817933  1
  O  O265  1  0.74506816  0.86392624  0.02130246  1
  O  O266  1  0.75078122  0.85465226  0.51307590  1
  O  O267  1  0.12641299  0.49648901  0.23665938  1
  O  O268  1  0.11831074  0.50461033  0.72868385  1
  O  O269  1  0.12054170  0.99069958  0.24238222  1
  O  O270  1  0.13171033  0.99587579  0.74358480  1
  O  O271  1  0.63256499  0.49087360  0.24303469  1
  O  O272  1  0.63972354  0.49739673  0.75732687  1
  O  O273  1  0.62658835  0.98784660  0.25780607  1
  O  O274  1  0.61494082  0.98778577  0.74739023  1
  O  O275  1  0.37930250  0.01735852  0.25167640  1
  O  O276  1  0.37105604  0.00647887  0.75824466  1
  O  O277  1  0.37137511  0.50595490  0.26106730  1
  O  O278  1  0.38025359  0.50535171  0.76488672  1
  O  O279  1  0.86377623  -0.00394194  0.25881687  1
  O  O280  1  0.87540200  0.00635786  0.75319261  1
  O  O281  1  0.86716005  0.50081878  0.25108919  1
  O  O282  1  0.86955530  0.50873028  0.75118517  1
  O  O283  1  0.11442294  0.38039072  0.35685509  1
  O  O284  1  0.12038067  0.37334358  0.87064501  1
  O  O285  1  0.11093971  0.86562225  0.36522882  1
  O  O286  1  0.11819386  0.86906713  0.86921458  1
  O  O287  1  0.62002124  0.36460272  0.36746863  1
  O  O288  1  0.61513397  0.36378707  0.88414519  1
  O  O289  1  0.62706810  0.87388935  0.36600074  1
  O  O290  1  0.61292434  0.86770345  0.86787630  1
  O  O291  1  0.37202263  0.12636041  0.13228419  1
  O  O292  1  0.37178564  0.12315264  0.63832856  1
  O  O293  1  0.37493402  0.63587788  0.12498024  1
  O  O294  1  0.37023358  0.63634002  0.62400227  1
  O  O295  1  0.88895850  0.13418008  0.13354458  1
  O  O296  1  0.88172228  0.12566371  0.63226255  1
  O  O297  1  0.88505585  0.63432810  0.12236206  1
  O  O298  1  0.86921710  0.63706700  0.63785372  1
  O  O299  1  0.24846567  0.25950353  0.11228250  1
  O  O300  1  0.26652844  0.24957471  0.62600072  1
  O  O301  1  0.25473140  0.75028552  0.11587776  1
  O  O302  1  0.25274342  0.75527878  0.61967285  1
  O  O303  1  0.75691883  0.25257661  0.11709522  1
  O  O304  1  0.76028017  0.25064630  0.62196248  1
  O  O305  1  0.76411193  0.74138669  0.12139213  1
  O  O306  1  0.76658384  0.76160670  0.63262481  1
  O  O307  1  0.24913744  0.23260730  0.38020518  1
  O  O308  1  0.25298826  0.24564619  0.88653796  1
  O  O309  1  0.23556281  0.74436229  0.38140088  1
  O  O310  1  0.24643124  0.74292239  0.87952719  1
  O  O311  1  0.74138268  0.25262072  0.38475023  1
  O  O312  1  0.73961756  0.25316662  0.88378455  1
  O  O313  1  0.75349118  0.74035653  0.36008710  1
  O  O314  1  0.73407958  0.75173052  0.88702576  1
  O  O315  1  0.00890792  0.12094903  0.00724864  1
  O  O316  1  0.00880153  0.12774088  0.51712907  1
  O  O317  1  0.00554060  0.62976407  0.00889015  1
  O  O318  1  0.00427593  0.61630620  0.49178230  1
  O  O319  1  0.49912388  0.12219081  0.01261634  1
  O  O320  1  0.51345735  0.12476897  0.50289577  1
  O  O321  1  0.51137930  0.61780928  0.00107303  1
  O  O322  1  0.51346174  0.63655898  0.48926176  1
  O  O323  1  0.50926776  0.37148596  0.48910994  1
  O  O324  1  0.49500598  0.37531956  0.99793536  1
  O  O325  1  0.49170487  0.87617698  0.50186015  1
  O  O326  1  0.49639055  0.87843801  0.98636195  1
  O  O327  1  0.99119042  0.38292066  0.49095150  1
  O  O328  1  0.99081338  0.37555832  1.00231093  1
  O  O329  1  0.98865035  0.87143685  0.48943441  1
  O  O330  1  0.99456904  0.88538974  0.99112560  1
  O  O331  1  0.50685014  0.47858740  0.36987772  1
  O  O332  1  0.49830194  0.49056190  0.88255073  1
  O  O333  1  0.50251072  1.00164773  0.40502652  1
  O  O334  1  0.49160689  0.99360465  0.87842423  1
  O  O335  1  0.99061944  0.49356734  0.37946504  1
  O  O336  1  0.99542219  0.49819129  0.87996014  1
  O  O337  1  0.98995800  0.98559741  0.36968364  1
  O  O338  1  1.00885976  0.99286588  0.88513499  1
  O  O339  1  0.01284541  0.01024109  0.12104063  1
  O  O340  1  0.01039204  0.00765706  0.63200273  1
  O  O341  1  0.00716660  0.51061434  0.12198612  1
  O  O342  1  -0.00389078  0.49682462  0.61105405  1
  O  O343  1  0.49375611  0.01498908  0.11781027  1
  O  O344  1  0.50098265  -0.00769489  0.60513831  1
  O  O345  1  0.50728194  0.50051680  0.11942446  1
  O  O346  1  0.52108604  0.51463788  0.63125786  1
  O  O347  1  0.24160993  0.37361776  0.24444817  1
  O  O348  1  0.24852693  0.38525735  0.75772866  1
  O  O349  1  0.22979169  0.86454422  0.24401614  1
  O  O350  1  0.24245239  0.88011328  0.74304438  1
  O  O351  1  0.74014465  0.38089729  0.24525459  1
  O  O352  1  0.75856073  0.38002103  0.74191115  1
  O  O353  1  0.73278978  0.88392778  0.24595598  1
  O  O354  1  0.73856715  0.87634623  0.74563681  1
  O  O355  1  0.26374176  0.12638881  0.26108122  1
  O  O356  1  0.25640416  0.12165024  0.75673026  1
  O  O357  1  0.24517640  0.62840102  0.26473185  1
  O  O358  1  0.24560942  0.61840755  0.76259514  1
  O  O359  1  0.75217204  0.10803805  0.24503861  1
  O  O360  1  0.76580702  0.12148983  0.75086759  1
  O  O361  1  0.74962362  0.61672943  0.25293374  1
  O  O362  1  0.75711855  0.61475756  0.75368417  1
  O  O363  1  0.36999752  0.12117217  0.38117165  1
  O  O364  1  0.36927025  0.11938676  0.86909558  1
  O  O365  1  0.35098076  0.63305388  0.37806777  1
  O  O366  1  0.36654696  0.61432854  0.88546596  1
  O  O367  1  0.88327219  0.10807134  0.37685913  1
  O  O368  1  0.87830010  0.12511883  0.86296155  1
  O  O369  1  0.86610964  0.61972324  0.36624499  1
  O  O370  1  0.87207134  0.62917654  0.86158717  1
  O  O371  1  0.13303067  0.38178708  0.13281110  1
  O  O372  1  0.11551978  0.38965469  0.62615788  1
  O  O373  1  0.12147454  0.88463963  0.13202604  1
  O  O374  1  0.13285731  0.88260584  0.62803176  1
  O  O375  1  0.63237084  0.37669776  0.13031577  1
  O  O376  1  0.63723392  0.36270253  0.62683143  1
  O  O377  1  0.61963191  0.88462438  0.12395473  1
  O  O378  1  0.63396758  0.87223080  0.63651349  1
  O  O379  1  0.12607896  0.26216766  0.24186622  1
  O  O380  1  0.11339491  0.25071473  0.74914979  1
  O  O381  1  0.10978046  0.75513286  0.25085917  1
  O  O382  1  0.11926677  0.75432260  0.75240384  1
  O  O383  1  0.62936840  0.25475054  0.25726229  1
  O  O384  1  0.61764058  0.23853676  0.76027453  1
  O  O385  1  0.61694476  0.76633610  0.24263224  1
  O  O386  1  0.61691753  0.75779141  0.76153293  1
  O  O387  1  0.37925230  0.22708773  0.25873531  1
  O  O388  1  0.38313532  0.24478337  0.74161073  1
  O  O389  1  0.38239897  0.74537122  0.24072726  1
  O  O390  1  0.38254419  0.75004514  0.74570628  1
  O  O391  1  0.86652541  0.24968542  0.23686143  1
  O  O392  1  0.87889121  0.23752063  0.74419678  1
  O  O393  1  0.88414354  0.75478550  0.23883240  1
  O  O394  1  0.88724865  0.74420520  0.74205715  1
  O  O395  1  0.37538028  0.51162507  0.48840293  1
  O  O396  1  0.38228405  0.48902556  0.99476006  1
  O  O397  1  0.37228547  0.99454283  0.50386323  1
  O  O398  1  0.37042388  0.99694671  0.98452455  1
  O  O399  1  0.87430024  0.49548029  0.49169379  1
  O  O400  1  0.87510068  0.48842136  1.00051414  1
  O  O401  1  0.86242888  0.98258161  0.49213138  1
  O  O402  1  0.89653240  1.00201871  1.01685315  1
  O  O403  1  0.11807384  0.00585642  0.00717585  1
  O  O404  1  0.12691683  0.01611015  0.51429844  1
  O  O405  1  0.12603422  0.50547682  0.01218169  1
  O  O406  1  0.11180352  0.50738010  0.50943304  1
  O  O407  1  0.63475750  -0.00690539  0.00106346  1
  O  O408  1  0.63160004  0.01368953  0.50172847  1
  O  O409  1  0.62336686  0.50450486  0.00348976  1
  O  O410  1  0.66986749  0.51751682  0.50472243  1
  O  O411  1  0.36446943  0.38096513  0.12002029  1
  O  O412  1  0.37434876  0.36947459  0.62604290  1
  O  O413  1  0.37247692  0.86366298  0.12422977  1
  O  O414  1  0.36000320  0.86575688  0.63322475  1
  O  O415  1  0.87123270  0.36846039  0.11832494  1
  O  O416  1  0.86891489  0.36109700  0.61748640  1
  O  O417  1  0.88194862  0.86902081  0.11366946  1
  O  O418  1  0.87057052  0.87202830  0.61907579  1
  O  O419  1  0.11009091  0.12985095  0.39324905  1
  O  O420  1  0.13523657  0.12756334  0.88130622  1
  O  O421  1  0.12429436  0.63078785  0.38171779  1
  O  O422  1  0.13288759  0.62918316  0.88064826  1
  O  O423  1  0.61929050  0.13299110  0.38199609  1
  O  O424  1  0.63270754  0.12540008  0.87661648  1
  O  O425  1  0.62938178  0.63080058  0.37048633  1
  O  O426  1  0.62836160  0.63426264  0.88621566  1
