# generated using pymatgen
data_V85Zn86O256
_symmetry_space_group_name_H-M   'P 1'
_cell_length_a   16.92524364
_cell_length_b   16.93167386
_cell_length_c   16.92821338
_cell_angle_alpha   90.05685781
_cell_angle_beta   90.01879228
_cell_angle_gamma   89.93297289
_symmetry_Int_Tables_number   1
_chemical_formula_structural   V85Zn86O256
_chemical_formula_sum   'V85 Zn86 O256'
_cell_volume   4851.15794049
_cell_formula_units_Z   1
loop_
 _symmetry_equiv_pos_site_id
 _symmetry_equiv_pos_as_xyz
  1  'x, y, z'
loop_
 _atom_site_type_symbol
 _atom_site_label
 _atom_site_symmetry_multiplicity
 _atom_site_fract_x
 _atom_site_fract_y
 _atom_site_fract_z
 _atom_site_occupancy
  V  V0  1  0.37659668  0.12437524  0.74860834  1
  V  V1  1  0.49712943  0.61904248  0.12879795  1
  V  V2  1  0.49615434  0.74675649  0.25298650  1
  V  V3  1  0.73821527  0.25386058  0.49946879  1
  V  V4  1  0.12730286  0.12963131  0.50013382  1
  V  V5  1  0.74578770  0.50831540  0.75230413  1
  V  V6  1  0.50451450  0.25102438  0.26526054  1
  V  V7  1  0.25111863  0.12921239  0.38215495  1
  V  V8  1  0.74427097  0.00345199  0.74332348  1
  V  V9  1  0.12639240  0.25136579  0.87615571  1
  V  V10  1  0.12598341  0.00061264  0.62450435  1
  V  V11  1  0.74383815  0.38258744  0.62632908  1
  V  V12  1  -0.00264058  0.61644206  0.62293081  1
  V  V13  1  0.62576559  0.13461712  0.00481054  1
  V  V14  1  0.36459387  0.25802913  0.62179872  1
  V  V15  1  0.00027415  0.25255542  0.25312994  1
  V  V16  1  0.00131515  0.74587605  0.25338885  1
  V  V17  1  0.13944488  0.49955962  0.63181166  1
  V  V18  1  0.87227315  0.00543253  0.37469951  1
  V  V19  1  0.24384984  0.74619565  0.48462846  1
  V  V20  1  0.25122601  0.51188917  0.25598354  1
  V  V21  1  0.86957562  0.37175681  0.00076235  1
  V  V22  1  0.37400892  0.49226907  0.87224550  1
  V  V23  1  0.12740350  0.25711014  0.37958467  1
  V  V24  1  0.24752934  0.87395553  0.62406836  1
  V  V25  1  0.00057455  0.12808231  0.62224599  1
  V  V26  1  0.85216469  0.62100846  0.25363116  1
  V  V27  1  0.37731319  0.87615329  0.00204484  1
  V  V28  1  0.86475507  0.75587862  0.12512470  1
  V  V29  1  0.24734651  0.74793539  0.00146524  1
  V  V30  1  0.63522692  0.74228584  0.37156615  1
  V  V31  1  0.25208745  -0.00086781  0.74987241  1
  V  V32  1  0.50701280  0.49017144  0.50827465  1
  V  V33  1  0.38224825  0.51244225  0.37120659  1
  V  V34  1  0.36990952  0.74604106  0.62489709  1
  V  V35  1  0.88221361  -0.00770241  0.87077856  1
  V  V36  1  0.87379453  0.12927881  0.25039764  1
  V  V37  1  0.00137391  0.12280129  0.12011079  1
  V  V38  1  0.12502452  0.87039759  0.25613754  1
  V  V39  1  0.12029051  0.87476347  0.75902700  1
  V  V40  1  0.87080722  0.25211208  0.12392245  1
  V  V41  1  0.37760601  0.87292890  0.50074123  1
  V  V42  1  0.49921456  0.25535385  0.75455299  1
  V  V43  1  0.89088790  0.37831576  0.49719149  1
  V  V44  1  0.74123929  0.13205016  0.37464438  1
  V  V45  1  0.50727410  0.12434131  0.62613723  1
  V  V46  1  0.25161449  0.24908652  0.00265320  1
  V  V47  1  0.37246831  0.74154554  0.12737984  1
  V  V48  1  0.49810982  0.49475314  -0.00351714  1
  V  V49  1  0.37617867  0.12515789  0.25164685  1
  V  V50  1  0.24865253  0.37983267  0.12728926  1
  V  V51  1  0.24846821  0.87399413  0.12750576  1
  V  V52  1  0.61392171  0.38414787  0.75064070  1
  V  V53  1  0.87086367  0.50932224  0.87783268  1
  V  V54  1  -0.00266883  0.75110951  0.75289407  1
  V  V55  1  0.62234283  0.37244157  0.26311226  1
  V  V56  1  0.12372028  0.62056088  0.49032416  1
  V  V57  1  0.36339854  0.37213413  0.48977291  1
  V  V58  1  0.00134807  0.25496592  0.75021384  1
  V  V59  1  0.63779730  0.61945152  -0.00688465  1
  V  V60  1  0.24627887  0.62160594  0.87186272  1
  V  V61  1  0.00004242  0.00267631  0.49831204  1
  V  V62  1  0.36920044  0.62012965  0.74951199  1
  V  V63  1  0.74444341  -0.00241390  0.23699886  1
  V  V64  1  -0.00003256  0.37935469  0.87560142  1
  V  V65  1  0.49870258  0.74826436  0.75234753  1
  V  V66  1  0.12413318  0.61603833  0.00578140  1
  V  V67  1  0.87336648  0.12744947  0.75082687  1
  V  V68  1  0.87362516  0.25462032  0.62589786  1
  V  V69  1  0.50364811  0.87615287  0.87587747  1
  V  V70  1  0.51093834  -0.00494150  0.50668619  1
  V  V71  1  0.56160688  -0.04443077  0.05773426  1
  V  V72  1  0.63164271  0.25564139  0.87413983  1
  V  V73  1  0.38090939  0.25019282  0.12534507  1
  V  V74  1  0.38009361  0.00145162  0.88025604  1
  V  V75  1  0.50564240  0.87491264  0.37674479  1
  V  V76  1  0.62329965  0.87863596  0.74522738  1
  V  V77  1  0.00243825  0.87419653  0.37588529  1
  V  V78  1  0.87383620  0.87407136  0.49933673  1
  V  V79  1  0.24823219  0.00141505  0.25271654  1
  V  V80  1  0.62800422  0.49667284  0.13176650  1
  V  V81  1  0.12715778  0.37939576  0.25129553  1
  V  V82  1  0.74510721  0.87471848  0.61896431  1
  V  V83  1  0.00047253  0.61929269  0.12904956  1
  V  V84  1  0.74934397  0.37363342  0.12678037  1
  Zn  Zn85  1  0.14035830  0.38023729  0.74937822  1
  Zn  Zn86  1  0.86813533  0.63068497  0.75345020  1
  Zn  Zn87  1  0.37890080  0.00120526  0.37863130  1
  Zn  Zn88  1  0.63856228  0.74048536  0.86716065  1
  Zn  Zn89  1  0.12353204  -0.00032056  0.12275270  1
  Zn  Zn90  1  0.25179949  0.12403882  0.87756275  1
  Zn  Zn91  1  0.50367646  0.61407106  0.62528064  1
  Zn  Zn92  1  0.75675940  0.73538282  0.49095988  1
  Zn  Zn93  1  0.11791298  0.75221967  0.88104654  1
  Zn  Zn94  1  0.87695101  0.74790555  0.62174689  1
  Zn  Zn95  1  0.12590490  0.12374226  0.00105730  1
  Zn  Zn96  1  0.63107823  0.61418633  0.50214253  1
  Zn  Zn97  1  0.75043273  0.12866986  0.87785596  1
  Zn  Zn98  1  0.37959945  0.37253664  -0.00240182  1
  Zn  Zn99  1  0.62416065  0.12514654  0.50085166  1
  Zn  Zn100  1  0.87681705  0.87990812  0.00585896  1
  Zn  Zn101  1  0.75344730  0.75988136  -0.00883538  1
  Zn  Zn102  1  0.87528579  0.50562433  0.37918293  1
  Zn  Zn103  1  0.62521492  0.87940151  0.23627508  1
  Zn  Zn104  1  0.00203669  0.49647257  0.00833276  1
  Zn  Zn105  1  0.50289380  0.12089577  0.12409839  1
  Zn  Zn106  1  0.00991939  -0.00786779  -0.01184181  1
  Zn  Zn107  1  0.18788186  0.18888490  0.18925010  1
  Zn  Zn108  1  0.18883123  0.18941966  0.69183552  1
  Zn  Zn109  1  0.18225765  0.68700492  0.18962041  1
  Zn  Zn110  1  0.18349494  0.68689961  0.68592254  1
  Zn  Zn111  1  0.68854868  0.18986349  0.18728805  1
  Zn  Zn112  1  0.68571582  0.19295237  0.68769468  1
  Zn  Zn113  1  0.68137618  0.68985345  0.18345656  1
  Zn  Zn114  1  0.68583515  0.68951717  0.67892962  1
  Zn  Zn115  1  0.31263797  0.31247071  0.31331564  1
  Zn  Zn116  1  0.31390016  0.30909990  0.81465638  1
  Zn  Zn117  1  0.31746268  0.81230370  0.31289633  1
  Zn  Zn118  1  0.30997086  0.81070589  0.81535426  1
  Zn  Zn119  1  0.79630555  0.34407913  0.33046908  1
  Zn  Zn120  1  0.80927129  0.32011466  0.81191925  1
  Zn  Zn121  1  0.81541626  0.81756679  0.30622943  1
  Zn  Zn122  1  0.80992019  0.81114231  0.81116656  1
  Zn  Zn123  1  0.18716532  0.44337091  0.43639714  1
  Zn  Zn124  1  0.18994067  0.43684737  0.93747857  1
  Zn  Zn125  1  0.18907379  0.93793709  0.43748408  1
  Zn  Zn126  1  0.19139644  0.93882642  0.93936486  1
  Zn  Zn127  1  0.69530724  0.44342049  0.43639686  1
  Zn  Zn128  1  0.68805147  0.43597443  0.93774373  1
  Zn  Zn129  1  0.68728185  0.93713485  0.43049642  1
  Zn  Zn130  1  0.70008716  0.93458436  0.92872114  1
  Zn  Zn131  1  0.31349135  0.06314705  0.06477500  1
  Zn  Zn132  1  0.31964415  0.06224129  0.56262899  1
  Zn  Zn133  1  0.31060870  0.55937673  0.06320098  1
  Zn  Zn134  1  0.31397367  0.56616103  0.55083334  1
  Zn  Zn135  1  0.81215728  0.06684217  0.05623955  1
  Zn  Zn136  1  0.81011256  0.06388783  0.56242120  1
  Zn  Zn137  1  0.81767228  0.55683373  0.07418356  1
  Zn  Zn138  1  0.81324805  0.55859257  0.55889222  1
  Zn  Zn139  1  0.43647505  0.43411184  0.19141628  1
  Zn  Zn140  1  0.31722564  0.43764956  0.68528026  1
  Zn  Zn141  1  0.43157469  0.93244562  0.19451511  1
  Zn  Zn142  1  0.43798331  0.93676448  0.68589205  1
  Zn  Zn143  1  0.94668092  0.45053667  0.21925906  1
  Zn  Zn144  1  0.93612896  0.44155415  0.68928085  1
  Zn  Zn145  1  0.93714420  0.93937703  0.18879725  1
  Zn  Zn146  1  0.93779464  0.93783096  0.68588945  1
  Zn  Zn147  1  0.06340296  0.06515611  0.31119311  1
  Zn  Zn148  1  0.06405666  0.06799906  0.80966140  1
  Zn  Zn149  1  0.05426137  0.55412295  0.31558281  1
  Zn  Zn150  1  0.06094077  0.56424183  0.81116597  1
  Zn  Zn151  1  0.56406081  0.06275996  0.31225278  1
  Zn  Zn152  1  0.56364303  0.06500038  0.81645727  1
  Zn  Zn153  1  0.56049636  0.56012818  0.31318704  1
  Zn  Zn154  1  0.55698457  0.56100309  0.81176097  1
  Zn  Zn155  1  0.43685608  0.18647229  0.44266697  1
  Zn  Zn156  1  0.44486445  0.18469550  0.93867325  1
  Zn  Zn157  1  0.44216832  0.68362347  0.44026901  1
  Zn  Zn158  1  0.43869338  0.68224771  0.93822571  1
  Zn  Zn159  1  0.93415998  0.19868944  0.43488514  1
  Zn  Zn160  1  0.93857260  0.18775400  0.93821886  1
  Zn  Zn161  1  0.93855545  0.68539046  0.43447795  1
  Zn  Zn162  1  0.93950927  0.68987654  0.94071795  1
  Zn  Zn163  1  0.06211750  0.31305903  0.06519128  1
  Zn  Zn164  1  0.07189301  0.31407287  0.56619577  1
  Zn  Zn165  1  0.05661878  0.81277093  0.06452073  1
  Zn  Zn166  1  0.06241114  0.80761851  0.56440796  1
  Zn  Zn167  1  0.56250088  0.31229319  0.06308587  1
  Zn  Zn168  1  0.55545356  0.31865802  0.56682597  1
  Zn  Zn169  1  0.56377300  0.79273873  0.06035762  1
  Zn  Zn170  1  0.57106338  0.78600469  0.57022537  1
  O  O171  1  0.11577732  0.12581529  0.12537881  1
  O  O172  1  0.12169393  0.12199655  0.62009716  1
  O  O173  1  0.11386713  0.62912914  0.11761729  1
  O  O174  1  0.11782014  0.61571777  0.62036742  1
  O  O175  1  0.62361023  0.13223196  0.11040186  1
  O  O176  1  0.61131652  0.13007598  0.62483412  1
  O  O177  1  0.61730037  0.61574759  0.11796085  1
  O  O178  1  0.60405097  0.66801213  0.60529580  1
  O  O179  1  0.37318087  0.37771035  0.38624635  1
  O  O180  1  0.37196054  0.38884777  0.87726335  1
  O  O181  1  0.38874431  0.87412453  0.38229853  1
  O  O182  1  0.38211579  0.87893073  0.88249559  1
  O  O183  1  0.88901602  0.34475977  0.40096641  1
  O  O184  1  0.88123232  0.38002640  0.88296436  1
  O  O185  1  0.87912098  0.88385588  0.38337365  1
  O  O186  1  0.87747805  0.89231654  0.86282034  1
  O  O187  1  0.25205404  0.00647385  0.36609228  1
  O  O188  1  0.26317037  -0.00013191  0.86844071  1
  O  O189  1  0.26144568  0.49710783  0.36274929  1
  O  O190  1  0.25783059  0.51359246  0.88193515  1
  O  O191  1  0.75638625  0.01127620  0.36953636  1
  O  O192  1  0.76213611  0.00653536  0.85699907  1
  O  O193  1  0.77482285  0.45474485  0.36162407  1
  O  O194  1  0.75895510  0.49395002  0.86610193  1
  O  O195  1  0.25970746  0.49020465  0.14059699  1
  O  O196  1  0.24358202  0.50787021  0.62458868  1
  O  O197  1  0.25136276  0.99427351  0.13829664  1
  O  O198  1  0.24612691  0.99542233  0.62951117  1
  O  O199  1  0.73648439  0.48878069  0.12246899  1
  O  O200  1  0.75602734  0.48810156  0.63414333  1
  O  O201  1  0.75753263  1.00835345  0.13946120  1
  O  O202  1  0.75515853  0.99016148  0.63413561  1
  O  O203  1  0.01642959  0.35810741  0.23078434  1
  O  O204  1  -0.00071083  0.37180469  0.76225124  1
  O  O205  1  0.00770170  0.87057088  0.25480720  1
  O  O206  1  0.01038479  0.86682470  0.74084250  1
  O  O207  1  0.50613655  0.35892867  0.24614917  1
  O  O208  1  0.51183773  0.36784889  0.74525392  1
  O  O209  1  0.50179548  0.86678951  0.25853096  1
  O  O210  1  0.50549975  0.86950855  0.75366423  1
  O  O211  1  0.49614809  0.13425604  0.24811517  1
  O  O212  1  0.49466265  0.13070544  0.74394049  1
  O  O213  1  0.50405635  0.63116680  0.23709607  1
  O  O214  1  0.49092855  0.63320957  0.74626404  1
  O  O215  1  0.99583151  0.13469719  0.24349139  1
  O  O216  1  0.99294540  0.13441077  0.74223190  1
  O  O217  1  1.00022699  0.63372827  0.24446351  1
  O  O218  1  0.99834790  0.63156237  0.73832097  1
  O  O219  1  0.37124759  0.25058670  0.00644789  1
  O  O220  1  0.37953270  0.26137692  0.50969750  1
  O  O221  1  0.37105561  0.75423895  0.00817261  1
  O  O222  1  0.36891018  0.75155881  0.50786094  1
  O  O223  1  0.88194419  0.26336119  0.00693020  1
  O  O224  1  0.86786285  0.25005494  0.51733465  1
  O  O225  1  0.87655547  0.74694535  0.01715250  1
  O  O226  1  0.87429707  0.76023969  0.49846048  1
  O  O227  1  0.12298712  0.24421616  0.49118567  1
  O  O228  1  0.13371248  0.25035291  0.99363351  1
  O  O229  1  0.13331470  0.73684948  0.50495320  1
  O  O230  1  0.13096069  0.74169627  1.00078437  1
  O  O231  1  0.63528841  0.25131985  0.50862049  1
  O  O232  1  0.62007817  0.24302040  0.99031273  1
  O  O233  1  0.63161603  0.75846914  0.47568555  1
  O  O234  1  0.63028890  0.73050739  0.99635224  1
  O  O235  1  0.48849821  0.24835522  0.12790999  1
  O  O236  1  0.49185783  0.24401859  0.63498674  1
  O  O237  1  0.49195010  0.74029692  0.13206426  1
  O  O238  1  0.47946457  0.76027197  0.63919934  1
  O  O239  1  0.99277454  0.24003520  0.12826326  1
  O  O240  1  0.99434650  0.24748340  0.63118739  1
  O  O241  1  0.99153620  0.74218758  0.13731540  1
  O  O242  1  1.00112115  0.73813711  0.63428011  1
  O  O243  1  0.01382189  0.24217161  0.36263335  1
  O  O244  1  0.00758491  0.25784158  0.87158466  1
  O  O245  1  -0.00733713  0.75928704  0.36167949  1
  O  O246  1  0.00094838  0.74356380  0.85904797  1
  O  O247  1  0.49781211  0.24576688  0.36374277  1
  O  O248  1  0.50536881  0.24720634  0.86054948  1
  O  O249  1  0.50498075  0.75434748  0.36838029  1
  O  O250  1  0.49854799  0.75489565  0.86454815  1
  O  O251  1  0.24735365  0.11704954  0.48817949  1
  O  O252  1  0.25013442  0.13811180  1.00074707  1
  O  O253  1  0.23548707  0.63311811  0.49973550  1
  O  O254  1  0.24319540  0.62985868  0.99740128  1
  O  O255  1  0.74782350  0.13426574  0.49492848  1
  O  O256  1  0.73199095  0.12108629  0.99452471  1
  O  O257  1  0.74506087  0.62278734  0.50038617  1
  O  O258  1  0.73743651  0.61576447  1.00741341  1
  O  O259  1  0.25289519  0.36567534  0.00832851  1
  O  O260  1  0.26424840  0.37961262  0.49888776  1
  O  O261  1  0.25501476  0.86606318  0.00774195  1
  O  O262  1  0.25372061  0.86809279  0.50547492  1
  O  O263  1  0.75749506  0.37535162  0.01127823  1
  O  O264  1  0.75788475  0.36776964  0.51170001  1
  O  O265  1  0.76348893  0.87495596  -0.00372313  1
  O  O266  1  0.75748608  0.87888227  0.50413137  1
  O  O267  1  0.13974558  0.48878005  0.25659231  1
  O  O268  1  0.12651802  0.50278757  0.73625678  1
  O  O269  1  0.13384032  0.99432153  0.24866492  1
  O  O270  1  0.13025741  0.99453311  0.74494547  1
  O  O271  1  0.61525252  0.48888662  0.23952623  1
  O  O272  1  0.62980705  0.49435454  0.75480378  1
  O  O273  1  0.63912263  1.00174486  0.24867771  1
  O  O274  1  0.63288841  0.99334919  0.75223693  1
  O  O275  1  0.36620771  0.00592921  0.25549914  1
  O  O276  1  0.37058992  0.00425138  0.75540168  1
  O  O277  1  0.36719897  0.49467306  0.26282399  1
  O  O278  1  0.37528568  0.51297821  0.75573632  1
  O  O279  1  0.86744547  0.00876396  0.25664444  1
  O  O280  1  0.87130299  0.01035062  0.75221257  1
  O  O281  1  0.85660556  0.52247983  0.22853205  1
  O  O282  1  0.86541852  0.50225690  0.76037572  1
  O  O283  1  0.13101076  0.36640984  0.36800882  1
  O  O284  1  0.11868454  0.36769574  0.87453129  1
  O  O285  1  0.11924557  0.88131842  0.36421990  1
  O  O286  1  0.13186102  0.87388247  0.86221063  1
  O  O287  1  0.62765591  0.37510391  0.36198637  1
  O  O288  1  0.62665463  0.36789363  0.86612942  1
  O  O289  1  0.61489146  0.86910181  0.36736762  1
  O  O290  1  0.61990083  0.87398385  0.86139997  1
  O  O291  1  0.37648792  0.13293318  0.13371727  1
  O  O292  1  0.38466112  0.13491262  0.62803729  1
  O  O293  1  0.38100065  0.63406442  0.12019179  1
  O  O294  1  0.37540041  0.63140957  0.63070923  1
  O  O295  1  0.88083193  0.13325498  0.12772189  1
  O  O296  1  0.87837464  0.13270840  0.63406484  1
  O  O297  1  0.88044468  0.63720634  0.13423824  1
  O  O298  1  0.88897295  0.62359050  0.62420285  1
  O  O299  1  0.26082013  0.25455149  0.12131690  1
  O  O300  1  0.26650361  0.24240526  0.62527667  1
  O  O301  1  0.25680532  0.75202179  0.12340857  1
  O  O302  1  0.25771934  0.75396304  0.62070377  1
  O  O303  1  0.76494533  0.25106637  0.12367147  1
  O  O304  1  0.75733149  0.25931946  0.62313769  1
  O  O305  1  0.76177843  0.74757992  0.12235907  1
  O  O306  1  0.75606910  0.76577650  0.62106775  1
  O  O307  1  0.24078395  0.23973380  0.36971623  1
  O  O308  1  0.24420179  0.24917982  0.88581479  1
  O  O309  1  0.25246995  0.75446624  0.38581590  1
  O  O310  1  0.24905945  0.73915781  0.88502283  1
  O  O311  1  0.75513440  0.24484299  0.38868061  1
  O  O312  1  0.73665422  0.24889920  0.86657489  1
  O  O313  1  0.73753198  0.75760840  0.36756039  1
  O  O314  1  0.75161576  0.74485900  0.87682496  1
  O  O315  1  0.00285363  0.12159483  0.00753470  1
  O  O316  1  0.00388835  0.12325555  0.50450060  1
  O  O317  1  0.00751639  0.62355747  0.00989135  1
  O  O318  1  0.01033047  0.63185469  0.51319307  1
  O  O319  1  0.51705107  0.12056952  0.00169967  1
  O  O320  1  0.50119688  0.11544694  0.50769694  1
  O  O321  1  0.50671755  0.61689831  0.01142573  1
  O  O322  1  0.50082893  0.60583538  0.49911221  1
  O  O323  1  0.48786918  0.38462175  0.50011106  1
  O  O324  1  0.49851230  0.39018461  1.00541977  1
  O  O325  1  0.49923108  0.87708935  0.49587445  1
  O  O326  1  0.50218807  0.87978372  0.99891543  1
  O  O327  1  0.98847896  0.37126292  0.51413257  1
  O  O328  1  0.99571031  0.37701400  0.99165482  1
  O  O329  1  0.99490654  0.88030437  0.49616430  1
  O  O330  1  0.99092640  0.88150872  1.00627570  1
  O  O331  1  0.48600616  0.49850610  0.37764030  1
  O  O332  1  0.48654238  0.50815001  0.88507184  1
  O  O333  1  0.50074779  0.99140011  0.38152562  1
  O  O334  1  0.48747508  0.99267077  0.86847156  1
  O  O335  1  0.97525319  0.47877735  0.32944861  1
  O  O336  1  0.99337881  0.49233240  0.87683513  1
  O  O337  1  0.99327305  0.99678757  0.37872910  1
  O  O338  1  0.98658216  1.00810261  0.86849357  1
  O  O339  1  -0.00056109  0.01474515  0.12906872  1
  O  O340  1  0.00618077  0.00818146  0.61922442  1
  O  O341  1  -0.00604576  0.51507385  0.12861428  1
  O  O342  1  0.00841778  0.51332234  0.63004298  1
  O  O343  1  0.49564673  0.00089157  0.12464110  1
  O  O344  1  0.49505180  0.00946576  0.61781811  1
  O  O345  1  0.50267656  0.50446345  0.12114516  1
  O  O346  1  0.49735573  0.49721998  0.60709855  1
  O  O347  1  0.24404025  0.37807605  0.24418938  1
  O  O348  1  0.25274200  0.37295112  0.74848176  1
  O  O349  1  0.24526601  0.88092842  0.24948971  1
  O  O350  1  0.24396377  0.87898784  0.74358317  1
  O  O351  1  0.73555173  0.35766106  0.23280274  1
  O  O352  1  0.74114737  0.38533969  0.74361473  1
  O  O353  1  0.74758845  0.89319058  0.25057311  1
  O  O354  1  0.74255852  0.88293735  0.74063338  1
  O  O355  1  0.25398716  0.11823439  0.25867001  1
  O  O356  1  0.25841835  0.11786929  0.75300323  1
  O  O357  1  0.24590015  0.61033555  0.24691119  1
  O  O358  1  0.25635621  0.63303147  0.76051377  1
  O  O359  1  0.75452159  0.12268626  0.25743097  1
  O  O360  1  0.75681788  0.11955528  0.74499693  1
  O  O361  1  0.75377437  0.63387229  0.25201508  1
  O  O362  1  0.74783122  0.61270969  0.73827623  1
  O  O363  1  0.36742478  0.12491617  0.37106919  1
  O  O364  1  0.37631380  0.11703265  0.86971690  1
  O  O365  1  0.37500450  0.61135972  0.37742852  1
  O  O366  1  0.36727298  0.61958153  0.86804219  1
  O  O367  1  0.86701939  0.12418217  0.37015349  1
  O  O368  1  0.87305570  0.12721520  0.86074002  1
  O  O369  1  0.87732799  0.62337283  0.35786154  1
  O  O370  1  0.88067543  0.61186089  0.87636480  1
  O  O371  1  0.14065773  0.36810677  0.13305399  1
  O  O372  1  0.12340310  0.39556964  0.62667884  1
  O  O373  1  0.13231103  0.87533728  0.13842867  1
  O  O374  1  0.13109015  0.88148683  0.62996188  1
  O  O375  1  0.63041457  0.38024833  0.12716590  1
  O  O376  1  0.63451087  0.37021670  0.63597240  1
  O  O377  1  0.61178902  0.88295256  0.11593679  1
  O  O378  1  0.63078165  0.86856129  0.63502160  1
  O  O379  1  0.12215251  0.25727329  0.25828665  1
  O  O380  1  0.11960123  0.25512481  0.75751091  1
  O  O381  1  0.11581239  0.75916669  0.24986352  1
  O  O382  1  0.11871844  0.75955630  0.75087415  1
  O  O383  1  0.61025260  0.25372457  0.24560472  1
  O  O384  1  0.61735059  0.25744061  0.75643528  1
  O  O385  1  0.61412531  0.75577643  0.25374415  1
  O  O386  1  0.61373894  0.75664198  0.75113390  1
  O  O387  1  0.38451778  0.24607320  0.24488363  1
  O  O388  1  0.38175690  0.24549103  0.74141219  1
  O  O389  1  0.38693272  0.75216897  0.24261107  1
  O  O390  1  0.37673299  0.74119163  0.74608039  1
  O  O391  1  0.88561297  0.24708749  0.24207850  1
  O  O392  1  0.87744044  0.24790333  0.74219977  1
  O  O393  1  0.87893187  0.74260067  0.24257060  1
  O  O394  1  0.88300958  0.74925300  0.74278769  1
  O  O395  1  0.37874076  0.49087803  0.48842499  1
  O  O396  1  0.38137846  0.50022779  0.99209731  1
  O  O397  1  0.38614390  0.98975237  0.49895051  1
  O  O398  1  0.36915908  0.99124037  0.99186478  1
  O  O399  1  0.87876379  0.48335152  0.49737465  1
  O  O400  1  0.87698046  0.48926547  0.99613684  1
  O  O401  1  0.88081739  0.99661167  0.49434436  1
  O  O402  1  0.87461940  1.00805708  0.97772190  1
  O  O403  1  0.12662806  0.00498218  0.00365379  1
  O  O404  1  0.11938760  0.00734439  0.50459170  1
  O  O405  1  0.12445385  0.51151994  -0.00105752  1
  O  O406  1  0.12964089  0.51285846  0.51131938  1
  O  O407  1  0.62483333  0.00623821  -0.00705948  1
  O  O408  1  0.61438318  -0.00019892  0.49779931  1
  O  O409  1  0.61770463  0.50515024  0.00701273  1
  O  O410  1  0.61217618  0.49455592  0.49322473  1
  O  O411  1  0.36599555  0.36633365  0.12470547  1
  O  O412  1  0.37496193  0.36356084  0.61481177  1
  O  O413  1  0.36906740  0.86353901  0.12145150  1
  O  O414  1  0.36538711  0.86879227  0.62050642  1
  O  O415  1  0.86811905  0.37000089  0.12040669  1
  O  O416  1  0.86868153  0.36946703  0.62268873  1
  O  O417  1  0.87721355  0.85855245  0.13381723  1
  O  O418  1  0.86999635  0.87779343  0.61085378  1
  O  O419  1  0.13268501  0.13179418  0.38033985  1
  O  O420  1  0.12794600  0.13983083  0.87473566  1
  O  O421  1  0.11326646  0.61665535  0.39130448  1
  O  O422  1  0.13149941  0.62647455  0.88240505  1
  O  O423  1  0.63762737  0.12487157  0.37800815  1
  O  O424  1  0.62580113  0.13636799  0.88169412  1
  O  O425  1  0.62052952  0.64005203  0.37227310  1
  O  O426  1  0.61997346  0.62063578  0.89028772  1
