# generated using pymatgen
data_V85Zn86O256
_symmetry_space_group_name_H-M   'P 1'
_cell_length_a   16.94593006
_cell_length_b   16.94707283
_cell_length_c   16.94154082
_cell_angle_alpha   90.01783073
_cell_angle_beta   89.98876538
_cell_angle_gamma   89.98108408
_symmetry_Int_Tables_number   1
_chemical_formula_structural   V85Zn86O256
_chemical_formula_sum   'V85 Zn86 O256'
_cell_volume   4865.33735305
_cell_formula_units_Z   1
loop_
 _symmetry_equiv_pos_site_id
 _symmetry_equiv_pos_as_xyz
  1  'x, y, z'
loop_
 _atom_site_type_symbol
 _atom_site_label
 _atom_site_symmetry_multiplicity
 _atom_site_fract_x
 _atom_site_fract_y
 _atom_site_fract_z
 _atom_site_occupancy
  V  V0  1  0.62546663  0.12750480  0.49987594  1
  V  V1  1  0.75305594  0.75124231  -0.00141766  1
  V  V2  1  0.24223441  0.88750998  0.62626411  1
  V  V3  1  0.12477561  0.75256422  0.37288027  1
  V  V4  1  0.37707201  0.87783909  -0.00134449  1
  V  V5  1  0.49961014  0.36769815  0.87249617  1
  V  V6  1  0.87586833  0.49997303  0.37494690  1
  V  V7  1  0.24743626  0.24750945  -0.00873295  1
  V  V8  1  0.12326963  0.12000524  -0.00559481  1
  V  V9  1  0.24842824  0.37014156  0.12474221  1
  V  V10  1  0.87234979  0.25313980  0.62978582  1
  V  V11  1  0.25057458  0.62275206  0.37349120  1
  V  V12  1  0.74911298  0.87685223  0.12809692  1
  V  V13  1  0.62853246  0.49371866  0.62503626  1
  V  V14  1  -0.00242116  0.24090468  0.25180521  1
  V  V15  1  0.37188102  0.88094734  0.49442977  1
  V  V16  1  -0.00211673  0.62789515  0.62216493  1
  V  V17  1  0.74934069  0.62206546  0.87448989  1
  V  V18  1  0.25131423  0.00934602  0.25964614  1
  V  V19  1  0.50088249  0.75213377  0.75158575  1
  V  V20  1  0.24829033  0.24589442  0.50934988  1
  V  V21  1  0.12422430  0.62322163  0.49871213  1
  V  V22  1  0.75492811  -0.00239835  0.74168342  1
  V  V23  1  0.50526730  0.36661661  0.37919167  1
  V  V24  1  0.38070150  0.23843541  0.12528501  1
  V  V25  1  0.62636462  0.62314048  0.00083215  1
  V  V26  1  0.87182769  0.37650785  0.50633092  1
  V  V27  1  0.37165893  0.37292564  0.50463339  1
  V  V28  1  0.12652670  0.24390611  0.37908309  1
  V  V29  1  0.87277208  0.23714043  0.13036081  1
  V  V30  1  0.74769865  0.25194811  0.50135387  1
  V  V31  1  0.50030584  0.50006822  0.00037251  1
  V  V32  1  0.25525639  0.11246061  0.86515237  1
  V  V33  1  0.12453962  0.11696183  0.50287128  1
  V  V34  1  0.76055125  0.37389016  0.12390769  1
  V  V35  1  0.61908559  0.75009685  0.36659958  1
  V  V36  1  0.37327166  0.74976837  0.62233934  1
  V  V37  1  0.24876863  0.87570231  0.13423754  1
  V  V38  1  0.50277720  0.24238625  0.24745340  1
  V  V39  1  0.75096488  0.63444794  0.37907768  1
  V  V40  1  0.00667327  0.26054258  0.76317968  1
  V  V41  1  0.00054896  0.87603343  0.88149853  1
  V  V42  1  0.37317833  0.37051517  0.00260695  1
  V  V43  1  0.75139851  0.50027064  0.25176715  1
  V  V44  1  0.62913584  -0.00958235  0.61984179  1
  V  V45  1  0.62676316  0.63200063  0.50092277  1
  V  V46  1  0.12863267  0.49645233  0.63269580  1
  V  V47  1  0.49615423  0.01197286  0.00262917  1
  V  V48  1  0.25093576  0.63841292  0.87395345  1
  V  V49  1  0.62431547  0.36835159  0.74788581  1
  V  V50  1  0.87312718  0.62703164  0.74811651  1
  V  V51  1  0.86063734  0.75398028  0.62141002  1
  V  V52  1  0.62182648  0.00727089  0.12666416  1
  V  V53  1  0.86050549  0.87342122  0.50078534  1
  V  V54  1  0.75096447  0.24405539  -0.00431908  1
  V  V55  1  0.25294705  0.49457021  0.25219415  1
  V  V56  1  0.37256146  0.62225242  0.75159712  1
  V  V57  1  0.00800691  0.75185227  0.75103425  1
  V  V58  1  0.00735047  0.75222425  0.24846917  1
  V  V59  1  0.87632018  0.62557303  0.25136169  1
  V  V60  1  0.62720706  0.37016716  0.25546625  1
  V  V61  1  0.49542666  0.00380839  0.49444105  1
  V  V62  1  0.12908716  0.37103956  0.25350865  1
  V  V63  1  0.62953937  0.24297061  0.87132554  1
  V  V64  1  0.50047774  0.49739063  0.50110579  1
  V  V65  1  -0.00028362  0.11951648  0.12284761  1
  V  V66  1  0.12577403  0.50553889  0.12279823  1
  V  V67  1  0.87628518  0.75049847  0.12613888  1
  V  V68  1  0.62614907  0.49587652  0.12445275  1
  V  V69  1  0.12320721  0.89357372  0.74879278  1
  V  V70  1  0.75255161  0.13010381  0.37049031  1
  V  V71  1  0.49867856  0.62335887  0.62499439  1
  V  V72  1  0.00261740  0.87667242  0.37553235  1
  V  V73  1  0.49535183  0.87486922  0.36696770  1
  V  V74  1  0.87540988  0.00460036  0.37034095  1
  V  V75  1  0.12367070  -0.00446995  0.12722151  1
  V  V76  1  0.75317996  0.49313923  0.74894424  1
  V  V77  1  0.86965215  0.00375605  0.88263166  1
  V  V78  1  0.24951644  0.75058470  0.50034382  1
  V  V79  1  0.25184586  0.75391890  -0.00034410  1
  V  V80  1  0.36512681  0.50136009  0.87512617  1
  V  V81  1  0.12214553  0.63016086  -0.00274719  1
  V  V82  1  0.38199638  0.62942021  0.24861310  1
  V  V83  1  0.50593206  0.87716913  0.87780560  1
  V  V84  1  0.00201265  0.12045455  0.63127137  1
  Zn  Zn85  1  0.25111895  0.37797145  0.63675380  1
  Zn  Zn86  1  0.40233032  0.03122730  0.81485025  1
  Zn  Zn87  1  0.88693168  0.49896662  0.88579823  1
  Zn  Zn88  1  0.62340068  0.12695221  -0.00001398  1
  Zn  Zn89  1  0.88107617  0.87748800  0.00277098  1
  Zn  Zn90  1  0.63362603  0.86913575  0.74285264  1
  Zn  Zn91  1  0.50585147  0.63187449  0.13006079  1
  Zn  Zn92  1  0.38078754  0.11623865  0.26389594  1
  Zn  Zn93  1  0.61732800  0.87319162  0.24562250  1
  Zn  Zn94  1  -0.00271225  0.37388612  0.37331545  1
  Zn  Zn95  1  -0.00014859  0.49708351  0.50009716  1
  Zn  Zn96  1  0.49255748  0.12177006  0.64418332  1
  Zn  Zn97  1  0.12826610  0.38969182  0.78446244  1
  Zn  Zn98  1  0.86959216  0.12844291  0.75465142  1
  Zn  Zn99  1  0.38649958  0.75555158  0.12993680  1
  Zn  Zn100  1  -0.00031407  -0.00356559  0.50627364  1
  Zn  Zn101  1  0.88711922  0.37194412  -0.01333324  1
  Zn  Zn102  1  0.74971004  0.00387157  0.24970644  1
  Zn  Zn103  1  0.37615194  0.49462382  0.37500791  1
  Zn  Zn104  1  -0.00186224  0.61909995  0.12284955  1
  Zn  Zn105  1  0.38572066  0.24608854  0.64207018  1
  Zn  Zn106  1  0.62751758  0.75073016  0.87396939  1
  Zn  Zn107  1  0.18593942  0.18567511  0.18437987  1
  Zn  Zn108  1  0.18381644  0.19032467  0.68939606  1
  Zn  Zn109  1  0.19348107  0.68875981  0.18675238  1
  Zn  Zn110  1  0.18893328  0.68992445  0.68643505  1
  Zn  Zn111  1  0.68601308  0.18770243  0.18817698  1
  Zn  Zn112  1  0.68759619  0.18068701  0.68463307  1
  Zn  Zn113  1  0.68719797  0.68720520  0.18719794  1
  Zn  Zn114  1  0.68515450  0.68373549  0.68755539  1
  Zn  Zn115  1  0.32885892  0.27662138  0.33341999  1
  Zn  Zn116  1  0.29886582  0.31964152  0.81338879  1
  Zn  Zn117  1  0.31084197  0.81321784  0.31274626  1
  Zn  Zn118  1  0.32617331  0.84794763  0.79781405  1
  Zn  Zn119  1  0.81532881  0.31087306  0.31365634  1
  Zn  Zn120  1  0.81499366  0.31478397  0.81282553  1
  Zn  Zn121  1  0.81356936  0.81381536  0.31282219  1
  Zn  Zn122  1  0.81568997  0.81535727  0.81123391  1
  Zn  Zn123  1  0.18710034  0.43382609  0.43890543  1
  Zn  Zn124  1  0.04934363  0.45793047  0.95083766  1
  Zn  Zn125  1  0.18457938  0.93828973  0.43835219  1
  Zn  Zn126  1  0.18422237  0.93809445  0.93786853  1
  Zn  Zn127  1  0.69043929  0.43835369  0.43940906  1
  Zn  Zn128  1  0.69532516  0.43254708  0.93641707  1
  Zn  Zn129  1  0.68509978  0.93970756  0.43213201  1
  Zn  Zn130  1  0.68884753  0.93868896  0.93913034  1
  Zn  Zn131  1  0.31114487  0.06234562  0.06237621  1
  Zn  Zn132  1  0.31404017  0.06724914  0.56772708  1
  Zn  Zn133  1  0.31109594  0.56263359  0.06284057  1
  Zn  Zn134  1  0.31143362  0.56015496  0.56171003  1
  Zn  Zn135  1  0.80932452  0.06203769  0.06146067  1
  Zn  Zn136  1  0.81595373  0.06341668  0.56174682  1
  Zn  Zn137  1  0.81745031  0.56021253  0.06331153  1
  Zn  Zn138  1  0.81007692  0.56304785  0.56246264  1
  Zn  Zn139  1  0.43825999  0.43445862  0.18874833  1
  Zn  Zn140  1  0.43545427  0.43191649  0.69206030  1
  Zn  Zn141  1  0.43323100  0.94255836  0.18419981  1
  Zn  Zn142  1  0.44246574  0.93453789  0.67676258  1
  Zn  Zn143  1  0.98492074  0.38897936  0.12894862  1
  Zn  Zn144  1  0.93956517  0.43866386  0.68951235  1
  Zn  Zn145  1  0.93785009  0.93646396  0.19085214  1
  Zn  Zn146  1  0.93476371  0.93578697  0.68798468  1
  Zn  Zn147  1  0.06714218  0.05985579  0.31195656  1
  Zn  Zn148  1  0.05535682  0.06436750  0.81597821  1
  Zn  Zn149  1  0.06178995  0.56185081  0.30954349  1
  Zn  Zn150  1  0.06624316  0.57435574  0.81150279  1
  Zn  Zn151  1  0.56829833  0.06202387  0.31675601  1
  Zn  Zn152  1  0.57557282  0.05563521  0.81429167  1
  Zn  Zn153  1  0.56298484  0.55574097  0.31613941  1
  Zn  Zn154  1  0.56138713  0.55936420  0.81368433  1
  Zn  Zn155  1  0.43619741  0.18681511  0.44328921  1
  Zn  Zn156  1  0.43662833  0.19590183  0.80607845  1
  Zn  Zn157  1  0.43747861  0.68705092  0.43414416  1
  Zn  Zn158  1  0.43850716  0.69152261  0.94089869  1
  Zn  Zn159  1  0.93841492  0.18745836  0.44144969  1
  Zn  Zn160  1  0.93221969  0.18065045  0.94282598  1
  Zn  Zn161  1  0.93677779  0.69206442  0.43904432  1
  Zn  Zn162  1  0.93956349  0.68225131  0.93252913  1
  Zn  Zn163  1  0.06608541  0.29923410  -0.05184046  1
  Zn  Zn164  1  0.05487799  0.31047140  0.56383314  1
  Zn  Zn165  1  0.06716974  0.81059017  0.06273893  1
  Zn  Zn166  1  0.05949057  0.81348257  0.56271285  1
  Zn  Zn167  1  0.56483658  0.31127020  0.06208831  1
  Zn  Zn168  1  0.56030507  0.30652469  0.56866878  1
  Zn  Zn169  1  0.56425145  0.81213695  0.06460215  1
  Zn  Zn170  1  0.55983905  0.81215534  0.55663458  1
  O  O171  1  0.11728183  0.11698832  0.11872733  1
  O  O172  1  0.10884823  0.13212046  0.61973980  1
  O  O173  1  0.12881923  0.62056208  0.11944604  1
  O  O174  1  0.11862376  0.61999209  0.61762404  1
  O  O175  1  0.62875202  0.11142141  0.12351079  1
  O  O176  1  0.62556669  0.11081840  0.61323823  1
  O  O177  1  0.62717252  0.61314069  0.12037538  1
  O  O178  1  0.61837910  0.61796898  0.61709920  1
  O  O179  1  0.38448433  0.37142302  0.38925331  1
  O  O180  1  0.38106354  0.38430745  0.88587323  1
  O  O181  1  0.37980396  0.86763217  0.38653005  1
  O  O182  1  0.38960719  0.86777313  0.89180068  1
  O  O183  1  0.87602248  0.38572309  0.38015554  1
  O  O184  1  0.87117371  0.38648283  0.87416540  1
  O  O185  1  0.87993239  0.87850819  0.38518860  1
  O  O186  1  0.88272267  0.88281098  0.87814823  1
  O  O187  1  0.24323733  -0.00677116  0.35764972  1
  O  O188  1  0.24985118  0.01227733  0.87865720  1
  O  O189  1  0.25188345  0.50358064  0.36858763  1
  O  O190  1  0.26679013  0.51973752  0.88108893  1
  O  O191  1  0.75765774  0.00903754  0.37420964  1
  O  O192  1  0.76298338  -0.00629606  0.86642501  1
  O  O193  1  0.75853553  0.50979866  0.37212433  1
  O  O194  1  0.74608304  0.50908097  0.86496282  1
  O  O195  1  0.24575463  0.49390486  0.13301018  1
  O  O196  1  0.23177875  0.50308941  0.62162375  1
  O  O197  1  0.24343854  0.99297834  0.13067983  1
  O  O198  1  0.24812917  0.98566528  0.61706863  1
  O  O199  1  0.74666828  0.49051569  0.13348231  1
  O  O200  1  0.73831399  0.50788772  0.63463057  1
  O  O201  1  0.74371183  0.99244819  0.12679356  1
  O  O202  1  0.74688909  0.99889051  0.63210492  1
  O  O203  1  0.01373617  0.35682850  0.24018423  1
  O  O204  1  0.00322904  0.36328246  0.74923045  1
  O  O205  1  -0.00601281  0.86505442  0.26494058  1
  O  O206  1  0.00876440  0.87006901  0.75167112  1
  O  O207  1  0.50989111  0.37274303  0.25847846  1
  O  O208  1  0.51563215  0.38789346  0.76188679  1
  O  O209  1  0.49437901  0.88165465  0.26354997  1
  O  O210  1  0.50807639  0.86654843  0.75778183  1
  O  O211  1  0.50286033  0.13903166  0.25787879  1
  O  O212  1  0.48636954  0.10247213  0.76264779  1
  O  O213  1  0.48485232  0.61287365  0.25182079  1
  O  O214  1  0.49239823  0.63161256  0.74671631  1
  O  O215  1  1.00839525  0.13448663  0.24352550  1
  O  O216  1  0.99668483  0.13515814  0.74270154  1
  O  O217  1  0.99293955  0.63388754  0.24890397  1
  O  O218  1  0.99243061  0.63452442  0.74015763  1
  O  O219  1  0.37015534  0.26211727  0.01044960  1
  O  O220  1  0.36277942  0.25828050  0.50564648  1
  O  O221  1  0.36765913  0.75708417  0.00620824  1
  O  O222  1  0.36838708  0.75356485  0.50304440  1
  O  O223  1  0.86732662  0.25076700  0.01056161  1
  O  O224  1  0.86950614  0.25778840  0.50853667  1
  O  O225  1  0.86495066  0.74788097  0.00553338  1
  O  O226  1  0.87588965  0.76347780  0.50580602  1
  O  O227  1  0.12459271  0.24306596  0.49678710  1
  O  O228  1  0.13768652  0.23349279  1.00920547  1
  O  O229  1  0.12850630  0.73914677  0.49628649  1
  O  O230  1  0.14403554  0.74627733  1.00431917  1
  O  O231  1  0.64021298  0.24393865  0.50706385  1
  O  O232  1  0.63104075  0.24921134  0.99057647  1
  O  O233  1  0.62015682  0.73673795  0.49113210  1
  O  O234  1  0.63932939  0.74272916  1.00022878  1
  O  O235  1  0.49356399  0.25572420  0.13327777  1
  O  O236  1  0.50280302  0.23556455  0.62807738  1
  O  O237  1  0.49965622  0.74513518  0.12454999  1
  O  O238  1  0.49496440  0.74340262  0.62961973  1
  O  O239  1  0.98849603  0.23492156  0.13413932  1
  O  O240  1  0.98967132  0.24408868  0.63529783  1
  O  O241  1  0.99422803  0.75378158  0.13480595  1
  O  O242  1  0.99219691  0.74099660  0.62800267  1
  O  O243  1  0.00578197  0.25134393  0.36856424  1
  O  O244  1  -0.00486387  0.24458020  0.86726370  1
  O  O245  1  0.00500751  0.75529272  0.36845850  1
  O  O246  1  -0.01052127  0.76068428  0.86037598  1
  O  O247  1  0.50501964  0.26288415  0.36808317  1
  O  O248  1  0.51020831  0.26367378  0.87525639  1
  O  O249  1  0.50796587  0.75993053  0.37926732  1
  O  O250  1  0.50349179  0.75579301  0.86753065  1
  O  O251  1  0.23635543  0.13373602  0.50735686  1
  O  O252  1  0.24486895  0.12983842  0.99490257  1
  O  O253  1  0.24359499  0.62895970  0.49311274  1
  O  O254  1  0.24827448  0.63555932  0.99546116  1
  O  O255  1  0.74587261  0.13230559  0.49567309  1
  O  O256  1  0.74569573  0.13935801  1.00417168  1
  O  O257  1  0.73862170  0.61960017  0.49058625  1
  O  O258  1  0.74604279  0.63011834  0.99330108  1
  O  O259  1  0.25916405  0.36467302  0.01087152  1
  O  O260  1  0.25786849  0.37128110  0.50619992  1
  O  O261  1  0.25844608  0.87153266  0.00370969  1
  O  O262  1  0.25322225  0.86997367  0.50376654  1
  O  O263  1  0.74612088  0.36193521  0.01297173  1
  O  O264  1  0.76117658  0.36704721  0.49625612  1
  O  O265  1  0.75164151  0.86658096  0.01048370  1
  O  O266  1  0.76209250  0.87593591  0.49338283  1
  O  O267  1  0.13820268  0.49587076  0.24870106  1
  O  O268  1  0.11645722  0.50375544  0.73536398  1
  O  O269  1  0.13611961  1.00161875  0.23773936  1
  O  O270  1  0.11931689  0.99155687  0.74699540  1
  O  O271  1  0.63136271  0.49125940  0.24524420  1
  O  O272  1  0.63144159  0.49517275  0.74281035  1
  O  O273  1  0.62702530  0.99548461  0.24207750  1
  O  O274  1  0.63724316  0.99431835  0.73948363  1
  O  O275  1  0.35901962  0.00367404  0.24624264  1
  O  O276  1  0.36252787  -0.04953697  0.75191812  1
  O  O277  1  0.36504682  0.50330402  0.25209016  1
  O  O278  1  0.38310894  0.51176756  0.76099165  1
  O  O279  1  0.87066385  -0.00603656  0.26629585  1
  O  O280  1  0.86595589  -0.00038207  0.75524564  1
  O  O281  1  0.86720232  0.51074747  0.26095839  1
  O  O282  1  0.86618272  0.51007816  0.74503636  1
  O  O283  1  0.11751300  0.37051194  0.36859704  1
  O  O284  1  0.11463210  0.38371111  0.89373745  1
  O  O285  1  0.11558681  0.86418336  0.38115847  1
  O  O286  1  0.11563712  0.88161197  0.86028554  1
  O  O287  1  0.62101240  0.38134287  0.36586475  1
  O  O288  1  0.61937622  0.36862819  0.86784709  1
  O  O289  1  0.61556588  0.86613410  0.37371715  1
  O  O290  1  0.61561137  0.87172569  0.87648111  1
  O  O291  1  0.37216433  0.13708736  0.13178718  1
  O  O292  1  0.37794427  0.13183656  0.62755908  1
  O  O293  1  0.37557557  0.62188535  0.14048927  1
  O  O294  1  0.37840305  0.62814915  0.63214218  1
  O  O295  1  0.88051437  0.12916868  0.12317887  1
  O  O296  1  0.88586771  0.13392077  0.62589024  1
  O  O297  1  0.87676362  0.63237272  0.13298472  1
  O  O298  1  0.88143455  0.63214287  0.62562865  1
  O  O299  1  0.25825860  0.25573770  0.12166580  1
  O  O300  1  0.24330252  0.25723941  0.61653508  1
  O  O301  1  0.25603192  0.76043462  0.12009504  1
  O  O302  1  0.25475682  0.75518489  0.61667276  1
  O  O303  1  0.75589678  0.25378758  0.12245854  1
  O  O304  1  0.76417125  0.24309206  0.61834322  1
  O  O305  1  0.75574081  0.75534926  0.11913352  1
  O  O306  1  0.76139856  0.74359204  0.62704287  1
  O  O307  1  0.23086914  0.26161932  0.39377641  1
  O  O308  1  0.25323151  0.24164234  0.88904681  1
  O  O309  1  0.24270690  0.74443130  0.37965346  1
  O  O310  1  0.26394850  0.74244455  0.88399761  1
  O  O311  1  0.75950356  0.24200466  0.38817127  1
  O  O312  1  0.74200780  0.25660382  0.88420957  1
  O  O313  1  0.74331102  0.73915971  0.37219203  1
  O  O314  1  0.75012227  0.74416236  0.88201230  1
  O  O315  1  0.00935956  0.12735849  0.01137053  1
  O  O316  1  0.00505884  0.12509084  0.51420722  1
  O  O317  1  0.01879609  0.64694620  0.00790740  1
  O  O318  1  0.00699866  0.62602918  0.50565445  1
  O  O319  1  0.50001680  0.10956215  -0.00265629  1
  O  O320  1  0.51003218  0.11740765  0.49370060  1
  O  O321  1  0.50815718  0.61593539  0.00008768  1
  O  O322  1  0.50587020  0.61721166  0.50335527  1
  O  O323  1  0.49736291  0.37745723  0.49592744  1
  O  O324  1  0.49392112  0.38035918  0.99415200  1
  O  O325  1  0.48987329  0.88182896  0.49188389  1
  O  O326  1  0.49552288  0.87935828  0.99416091  1
  O  O327  1  0.98522008  0.37674097  0.49628718  1
  O  O328  1  1.00120378  0.37071742  1.01746631  1
  O  O329  1  0.99362644  0.87534096  0.48885129  1
  O  O330  1  1.00248176  0.86699733  0.98513400  1
  O  O331  1  0.49894725  0.48703691  0.38383888  1
  O  O332  1  0.49611209  0.49286331  0.88701118  1
  O  O333  1  0.50529962  0.99134623  0.38669737  1
  O  O334  1  0.50113739  0.99139802  0.88663594  1
  O  O335  1  0.98632230  0.50132293  0.37535686  1
  O  O336  1  0.99600103  0.53381782  0.88695434  1
  O  O337  1  0.99425255  0.99231223  0.37586037  1
  O  O338  1  0.98256556  0.98879301  0.86643799  1
  O  O339  1  0.00636695  0.00967275  0.13455745  1
  O  O340  1  -0.00769097  0.01677678  0.62712257  1
  O  O341  1  0.02198306  0.50187443  0.13710445  1
  O  O342  1  0.00501969  0.51437208  0.62186145  1
  O  O343  1  0.50809284  -0.00581060  0.11208416  1
  O  O344  1  0.50919935  0.00116418  0.61116247  1
  O  O345  1  0.50614568  0.49768458  0.11353133  1
  O  O346  1  0.50766551  0.50537275  0.62115884  1
  O  O347  1  0.24761418  0.38028576  0.24575863  1
  O  O348  1  0.23391451  0.37977751  0.74798761  1
  O  O349  1  0.25511534  0.88091952  0.23802963  1
  O  O350  1  0.22748941  0.86440921  0.74040517  1
  O  O351  1  0.74483030  0.37772876  0.24594905  1
  O  O352  1  0.74024844  0.38788932  0.75149849  1
  O  O353  1  0.74838447  0.87306565  0.23710702  1
  O  O354  1  0.74909277  0.88828845  0.75142494  1
  O  O355  1  0.24818655  0.11195768  0.24779124  1
  O  O356  1  0.23720199  0.12843367  0.76785605  1
  O  O357  1  0.25816296  0.61566368  0.25540599  1
  O  O358  1  0.26456911  0.63533513  0.75701972  1
  O  O359  1  0.74520210  0.12744662  0.26651162  1
  O  O360  1  0.75144087  0.10548542  0.74799804  1
  O  O361  1  0.75523967  0.62110711  0.25841098  1
  O  O362  1  0.75192165  0.61777795  0.75743532  1
  O  O363  1  0.36385402  0.16841446  0.36186780  1
  O  O364  1  0.36042996  0.12336388  0.87030905  1
  O  O365  1  0.36987030  0.62015273  0.36541411  1
  O  O366  1  0.37636683  0.62194444  0.86825439  1
  O  O367  1  0.86729042  0.11491407  0.38552033  1
  O  O368  1  0.87763643  0.10789573  0.87308263  1
  O  O369  1  0.86741289  0.62237244  0.37422542  1
  O  O370  1  0.86049375  0.62570819  0.86789007  1
  O  O371  1  0.14096539  0.38442186  0.13379274  1
  O  O372  1  0.11819871  0.39554357  0.61390462  1
  O  O373  1  0.13536801  0.88320295  0.12057231  1
  O  O374  1  0.12820276  0.87252673  0.63484924  1
  O  O375  1  0.63627728  0.37913318  0.13282972  1
  O  O376  1  0.62127422  0.38623932  0.63207858  1
  O  O377  1  0.63329623  0.88470078  0.12557040  1
  O  O378  1  0.62174559  0.88585335  0.61954982  1
  O  O379  1  0.12387535  0.25119597  0.26048491  1
  O  O380  1  0.10694355  0.25216456  0.75166571  1
  O  O381  1  0.11436922  0.74387574  0.25453785  1
  O  O382  1  0.10988819  0.74895519  0.74553781  1
  O  O383  1  0.61842083  0.26273685  0.24448807  1
  O  O384  1  0.63703676  0.26081376  0.75440290  1
  O  O385  1  0.62597685  0.75022957  0.26241355  1
  O  O386  1  0.61365758  0.74902417  0.74939165  1
  O  O387  1  0.39072049  0.26473532  0.23548543  1
  O  O388  1  0.38361179  0.27737248  0.75327030  1
  O  O389  1  0.36947015  0.73239866  0.25103139  1
  O  O390  1  0.38705457  0.74891114  0.74353855  1
  O  O391  1  0.88463653  0.24979769  0.24326276  1
  O  O392  1  0.88079943  0.24829738  0.74442239  1
  O  O393  1  0.88331197  0.74428174  0.24714518  1
  O  O394  1  0.88071535  0.74640436  0.73906672  1
  O  O395  1  0.38222819  0.49290796  0.49903738  1
  O  O396  1  0.38243785  0.49378627  0.99688910  1
  O  O397  1  0.38227903  0.99210214  0.50105604  1
  O  O398  1  0.38771702  0.99340687  1.00660796  1
  O  O399  1  0.87342744  0.49390958  0.49385558  1
  O  O400  1  0.86767631  0.48646511  1.00138808  1
  O  O401  1  0.87743243  0.98789723  0.49293924  1
  O  O402  1  0.86942901  0.99648476  0.98691601  1
  O  O403  1  0.12991613  0.00722882  0.01549758  1
  O  O404  1  0.11962618  0.01280103  0.49738441  1
  O  O405  1  0.13158309  0.51863931  0.01273283  1
  O  O406  1  0.12175891  0.51254284  0.50218640  1
  O  O407  1  0.61528675  0.00204005  0.00545371  1
  O  O408  1  0.62003477  0.00554688  0.50345152  1
  O  O409  1  0.62024572  0.50139045  0.00394180  1
  O  O410  1  0.62116460  0.50615832  0.50767050  1
  O  O411  1  0.36605195  0.37521887  0.11824373  1
  O  O412  1  0.37413089  0.37684219  0.61418151  1
  O  O413  1  0.36726119  0.87540862  0.11518538  1
  O  O414  1  0.36766259  0.86612946  0.60912500  1
  O  O415  1  0.86532610  0.36040088  0.12966386  1
  O  O416  1  0.87818696  0.36834106  0.61791400  1
  O  O417  1  0.86932381  0.86938962  0.12269226  1
  O  O418  1  0.87964864  0.86846879  0.60981948  1
  O  O419  1  0.11648628  0.13418604  0.38780236  1
  O  O420  1  0.12802342  0.11655458  0.88974776  1
  O  O421  1  0.12871132  0.63006638  0.38132183  1
  O  O422  1  0.14053908  0.62860089  0.88388803  1
  O  O423  1  0.63740914  0.12090796  0.39085872  1
  O  O424  1  0.62351120  0.14005211  0.87493574  1
  O  O425  1  0.62945416  0.62946790  0.38049565  1
  O  O426  1  0.63465656  0.62644274  0.87967991  1
