# generated using pymatgen
data_V85Zn86O256
_symmetry_space_group_name_H-M   'P 1'
_cell_length_a   16.92907346
_cell_length_b   16.94336982
_cell_length_c   16.94141100
_cell_angle_alpha   90.08800786
_cell_angle_beta   89.99208513
_cell_angle_gamma   90.06071516
_symmetry_Int_Tables_number   1
_chemical_formula_structural   V85Zn86O256
_chemical_formula_sum   'V85 Zn86 O256'
_cell_volume   4859.39047639
_cell_formula_units_Z   1
loop_
 _symmetry_equiv_pos_site_id
 _symmetry_equiv_pos_as_xyz
  1  'x, y, z'
loop_
 _atom_site_type_symbol
 _atom_site_label
 _atom_site_symmetry_multiplicity
 _atom_site_fract_x
 _atom_site_fract_y
 _atom_site_fract_z
 _atom_site_occupancy
  V  V0  1  0.86461984  0.74817942  0.11748428  1
  V  V1  1  0.75297251  0.12731765  0.86670257  1
  V  V2  1  0.37512048  0.75096824  0.62395691  1
  V  V3  1  0.24707090  0.36897712  0.11967199  1
  V  V4  1  0.24562679  0.50006330  0.75278031  1
  V  V5  1  0.23288772  0.63718011  0.87388397  1
  V  V6  1  0.11692121  0.25370876  0.37799156  1
  V  V7  1  0.14167448  0.24684450  0.87358727  1
  V  V8  1  0.62917221  -0.00247701  0.12627406  1
  V  V9  1  0.61601130  0.37253742  0.74896941  1
  V  V10  1  0.62121708  0.37198494  0.24846172  1
  V  V11  1  0.38415679  0.00440934  0.37716906  1
  V  V12  1  -0.00157690  0.36195782  0.86823133  1
  V  V13  1  0.12627559  0.74618933  0.37303041  1
  V  V14  1  0.86189585  0.87239943  0.00081918  1
  V  V15  1  0.25051829  0.50291517  0.25334524  1
  V  V16  1  0.87396661  0.87600912  0.50790974  1
  V  V17  1  0.75279632  -0.00142253  0.74013278  1
  V  V18  1  0.48980839  0.63989540  0.12107523  1
  V  V19  1  0.75037498  0.75052083  0.50510324  1
  V  V20  1  0.74981532  0.25041478  -0.00182005  1
  V  V21  1  0.12740604  0.62622607  0.49697468  1
  V  V22  1  0.74772428  0.49985471  0.75129717  1
  V  V23  1  0.25197821  0.74709478  0.49486315  1
  V  V24  1  0.25045270  0.37469868  0.62508257  1
  V  V25  1  0.87651163  0.24635640  0.63876920  1
  V  V26  1  0.25228200  0.01065009  0.75258009  1
  V  V27  1  0.49850475  0.00283384  0.00125532  1
  V  V28  1  0.75093769  0.12457467  0.37436416  1
  V  V29  1  0.25253388  0.87714833  0.62493212  1
  V  V30  1  0.61354292  0.11994354  0.49979360  1
  V  V31  1  0.74775502  0.37690947  0.12331993  1
  V  V32  1  0.12722950  0.00492767  0.61790451  1
  V  V33  1  0.25587336  0.00455985  0.25184914  1
  V  V34  1  0.37497425  0.37247010  0.49938663  1
  V  V35  1  0.61918889  0.24868807  0.37217713  1
  V  V36  1  0.60855780  0.49389515  0.11488406  1
  V  V37  1  0.00066165  -0.00064382  -0.00054732  1
  V  V38  1  0.37905024  0.63574749  0.25303982  1
  V  V39  1  0.49689507  0.12811246  0.14441357  1
  V  V40  1  0.49964669  0.87416064  0.87162290  1
  V  V41  1  0.88286220  0.49975510  0.87796946  1
  V  V42  1  0.87839691  -0.00038573  0.37504158  1
  V  V43  1  0.24757899  0.24246759  0.50222050  1
  V  V44  1  0.87747570  0.12593947  0.24939200  1
  V  V45  1  0.75147315  0.24973306  0.50051617  1
  V  V46  1  0.00143428  0.49715698  0.48959749  1
  V  V47  1  0.63439033  0.75164083  0.88200257  1
  V  V48  1  0.37425940  0.62648226  0.75206799  1
  V  V49  1  0.74962564  0.61976969  0.37420902  1
  V  V50  1  0.62998925  0.87296357  0.73894204  1
  V  V51  1  0.24662461  0.12454977  0.37605559  1
  V  V52  1  0.50130412  0.62439023  0.62357028  1
  V  V53  1  0.26051120  0.87281245  0.12712650  1
  V  V54  1  0.61241580  0.25006405  0.87176611  1
  V  V55  1  0.62489390  0.62672646  0.49281895  1
  V  V56  1  0.12884524  0.87513403  0.75418799  1
  V  V57  1  0.13848225  0.12951684  -0.00136065  1
  V  V58  1  0.24135136  0.75209389  0.00355048  1
  V  V59  1  0.49984839  0.49857961  0.49824969  1
  V  V60  1  0.87682478  0.00447965  0.86931223  1
  V  V61  1  0.37579596  0.50480457  0.89043183  1
  V  V62  1  0.00598860  0.74989918  0.75292443  1
  V  V63  1  0.12400408  0.49918569  0.62366890  1
  V  V64  1  0.37381197  0.24599652  0.13783354  1
  V  V65  1  0.87993457  0.62165847  0.24726212  1
  V  V66  1  0.49924575  0.12416367  0.63978447  1
  V  V67  1  0.00304768  0.87485113  0.87613185  1
  V  V68  1  0.12597659  -0.00127938  0.12582377  1
  V  V69  1  0.87474289  0.25105256  0.12511297  1
  V  V70  1  0.00025086  0.62546884  0.62349862  1
  V  V71  1  0.62544275  0.12590460  -0.00053659  1
  V  V72  1  0.88039422  0.37210703  0.49474555  1
  V  V73  1  0.12503810  0.87469371  0.25022307  1
  V  V74  1  0.49517380  0.37252470  0.36781658  1
  V  V75  1  0.00152148  0.12704818  0.12569269  1
  V  V76  1  -0.00285820  0.87449735  0.37665173  1
  V  V77  1  0.75229119  -0.00549641  0.24557417  1
  V  V78  1  0.88386389  0.37975615  0.00228325  1
  V  V79  1  0.51196740  0.86467870  0.35970530  1
  V  V80  1  0.87373763  0.62565358  0.74866104  1
  V  V81  1  0.38809802  0.87836456  0.49875259  1
  V  V82  1  0.00679736  0.13267964  0.63198036  1
  V  V83  1  0.37196094  0.00585106  0.87490532  1
  V  V84  1  0.00633939  0.62400045  0.10459418  1
  Zn  Zn85  1  -0.00372210  0.75062421  0.24527996  1
  Zn  Zn86  1  0.11856017  0.36506864  0.74514998  1
  Zn  Zn87  1  0.12040044  0.38056472  0.25319236  1
  Zn  Zn88  1  0.62253810  0.62457871  0.00018279  1
  Zn  Zn89  1  0.37506340  0.87231956  0.00066054  1
  Zn  Zn90  1  0.37561635  0.14039305  0.76312166  1
  Zn  Zn91  1  0.87235277  0.75726685  0.62937512  1
  Zn  Zn92  1  -0.00261750  0.26152355  0.25546401  1
  Zn  Zn93  1  0.50100767  0.38571554  0.88158093  1
  Zn  Zn94  1  0.62442112  -0.00469879  0.61732665  1
  Zn  Zn95  1  0.62630596  0.49862944  0.62551320  1
  Zn  Zn96  1  0.69945615  0.83398037  0.16595911  1
  Zn  Zn97  1  0.87917624  0.49260738  0.36842938  1
  Zn  Zn98  1  0.74936988  0.49618128  0.24938903  1
  Zn  Zn99  1  0.50220333  0.75022230  0.75126602  1
  Zn  Zn100  1  0.00599021  0.00496106  0.49976452  1
  Zn  Zn101  1  0.37637083  0.36035627  0.00124901  1
  Zn  Zn102  1  0.74902198  0.37402695  0.62617773  1
  Zn  Zn103  1  0.11492432  0.49576499  0.11697349  1
  Zn  Zn104  1  0.38398804  0.25382545  0.63377248  1
  Zn  Zn105  1  0.75416361  0.62929967  0.88213830  1
  Zn  Zn106  1  0.36965992  0.50610051  0.37633098  1
  Zn  Zn107  1  0.18695158  0.18840709  0.19273975  1
  Zn  Zn108  1  0.18977125  0.18975749  0.68858294  1
  Zn  Zn109  1  0.18969921  0.68569821  0.18741110  1
  Zn  Zn110  1  0.18710998  0.68940762  0.68538568  1
  Zn  Zn111  1  0.68613608  0.18587646  0.18822530  1
  Zn  Zn112  1  0.68529504  0.18798478  0.68704393  1
  Zn  Zn113  1  0.68042273  0.67099928  0.19022853  1
  Zn  Zn114  1  0.68714117  0.68723636  0.68767273  1
  Zn  Zn115  1  0.30821244  0.31147596  0.30907094  1
  Zn  Zn116  1  0.31418575  0.31847902  0.81213118  1
  Zn  Zn117  1  0.31574051  0.81564698  0.31474589  1
  Zn  Zn118  1  0.31394434  0.81448141  0.81430844  1
  Zn  Zn119  1  0.81031873  0.31207733  0.31192511  1
  Zn  Zn120  1  0.80565943  0.31712310  0.81427905  1
  Zn  Zn121  1  0.77860306  0.78697520  0.29772879  1
  Zn  Zn122  1  0.81440219  0.81667159  0.81142710  1
  Zn  Zn123  1  0.18873606  0.43514461  0.43622529  1
  Zn  Zn124  1  0.18138580  0.43377558  0.93881572  1
  Zn  Zn125  1  0.19214207  0.93281160  0.43734313  1
  Zn  Zn126  1  0.18852886  0.93868606  0.93864473  1
  Zn  Zn127  1  0.68710694  0.43742275  0.43827624  1
  Zn  Zn128  1  0.69072453  0.43870756  0.93670105  1
  Zn  Zn129  1  0.69218581  0.93641078  0.43706794  1
  Zn  Zn130  1  0.68568910  0.93969932  0.93253312  1
  Zn  Zn131  1  0.31747537  0.06250814  0.06639073  1
  Zn  Zn132  1  0.31897748  0.06282856  0.56344040  1
  Zn  Zn133  1  0.26487310  0.54604853  0.04423839  1
  Zn  Zn134  1  0.31264569  0.56201153  0.56158191  1
  Zn  Zn135  1  0.81348112  0.06190038  0.05775423  1
  Zn  Zn136  1  0.81745265  0.06786129  0.56125976  1
  Zn  Zn137  1  0.80559333  0.56310306  0.06135791  1
  Zn  Zn138  1  0.81372839  0.55955681  0.56364539  1
  Zn  Zn139  1  0.42880279  0.43836133  0.18780127  1
  Zn  Zn140  1  0.43562512  0.43991525  0.68993596  1
  Zn  Zn141  1  0.43963316  0.93972839  0.19107398  1
  Zn  Zn142  1  0.44133099  0.94420650  0.68663917  1
  Zn  Zn143  1  0.94233395  0.44062206  0.18619832  1
  Zn  Zn144  1  0.93713221  0.43506077  0.68433821  1
  Zn  Zn145  1  0.93555303  0.93375885  0.18611169  1
  Zn  Zn146  1  0.94291113  0.94288547  0.68845709  1
  Zn  Zn147  1  0.06665947  0.06553077  0.31379601  1
  Zn  Zn148  1  0.06489367  0.06747705  0.80965862  1
  Zn  Zn149  1  0.06534247  0.56404164  0.30676370  1
  Zn  Zn150  1  0.05815371  0.55753569  0.81379644  1
  Zn  Zn151  1  0.56888281  0.05179765  0.31602839  1
  Zn  Zn152  1  0.56737393  0.05837454  0.81267282  1
  Zn  Zn153  1  0.55850370  0.55990053  0.30926073  1
  Zn  Zn154  1  0.56017274  0.56499267  0.81320140  1
  Zn  Zn155  1  0.43418463  0.18805538  0.43624883  1
  Zn  Zn156  1  0.43347018  0.18905436  0.94719743  1
  Zn  Zn157  1  0.43929943  0.69011296  0.43169963  1
  Zn  Zn158  1  0.43180337  0.69008648  0.94390445  1
  Zn  Zn159  1  0.93962981  0.18171220  0.44624137  1
  Zn  Zn160  1  0.93870117  0.18679846  0.93925420  1
  Zn  Zn161  1  0.93488511  0.68802427  0.43489977  1
  Zn  Zn162  1  0.93765168  0.69131588  0.93342402  1
  Zn  Zn163  1  0.06357275  0.31050131  0.06181597  1
  Zn  Zn164  1  0.06265500  0.31083213  0.56016929  1
  Zn  Zn165  1  0.06104352  0.80899990  0.06253927  1
  Zn  Zn166  1  0.06201388  0.81505117  0.56501768  1
  Zn  Zn167  1  0.55300200  0.30977864  0.05866806  1
  Zn  Zn168  1  0.56260751  0.30918842  0.56277720  1
  Zn  Zn169  1  0.55439649  0.81212394  0.05869652  1
  Zn  Zn170  1  0.56387875  0.80760950  0.55844527  1
  O  O171  1  0.11975201  0.12227859  0.11751813  1
  O  O172  1  0.11640160  0.12104142  0.62873417  1
  O  O173  1  0.10699719  0.63164772  0.12712391  1
  O  O174  1  0.12013808  0.62032043  0.61725495  1
  O  O175  1  0.61547711  0.11830387  0.12053661  1
  O  O176  1  0.61671729  0.12490211  0.61684547  1
  O  O177  1  0.61064530  0.60805052  0.12729293  1
  O  O178  1  0.61522141  0.62241530  0.61905064  1
  O  O179  1  0.38133429  0.37236853  0.38185595  1
  O  O180  1  0.36891936  0.39634348  0.87812313  1
  O  O181  1  0.38375993  0.88225754  0.38194031  1
  O  O182  1  0.38532201  0.88653993  0.87163468  1
  O  O183  1  0.86955373  0.37365746  0.38953986  1
  O  O184  1  0.88105924  0.37868874  0.88102517  1
  O  O185  1  0.88917089  0.87924710  0.38313184  1
  O  O186  1  0.88247787  0.88289656  0.88203465  1
  O  O187  1  0.25456513  0.00493192  0.36998387  1
  O  O188  1  0.26027594  -0.00594885  0.86594415  1
  O  O189  1  0.24881300  0.49635678  0.35898494  1
  O  O190  1  0.25526257  0.51304284  0.86685773  1
  O  O191  1  0.75800216  0.00590318  0.36535235  1
  O  O192  1  0.75712779  0.00849860  0.86721981  1
  O  O193  1  0.75482801  0.50762763  0.37645734  1
  O  O194  1  0.76231229  0.49711562  0.86338024  1
  O  O195  1  0.25789142  0.48118650  0.13934323  1
  O  O196  1  0.24408317  0.49615917  0.63119603  1
  O  O197  1  0.24602879  0.99429057  0.13354515  1
  O  O198  1  0.24735579  0.99622746  0.63211060  1
  O  O199  1  0.73526040  0.49003490  0.12657957  1
  O  O200  1  0.75019397  0.49783317  0.63885899  1
  O  O201  1  0.74129417  1.01015640  0.13119837  1
  O  O202  1  0.75210887  1.00969886  0.63787465  1
  O  O203  1  0.00628162  0.37425164  0.24689927  1
  O  O204  1  0.00296668  0.38042159  0.76140295  1
  O  O205  1  0.00589741  0.87302311  0.25830409  1
  O  O206  1  0.00821319  0.86930181  0.75359142  1
  O  O207  1  0.50342024  0.37649415  0.26187785  1
  O  O208  1  0.51203790  0.38552475  0.75735919  1
  O  O209  1  0.50150849  0.87580435  0.25979140  1
  O  O210  1  0.50922347  0.87600357  0.75618891  1
  O  O211  1  0.50726956  0.11848011  0.24184713  1
  O  O212  1  0.50289470  0.12400504  0.74219965  1
  O  O213  1  0.48762661  0.62087823  0.24155178  1
  O  O214  1  0.49076670  0.62653697  0.74079249  1
  O  O215  1  0.99733593  0.12561037  0.23810523  1
  O  O216  1  0.99666993  0.11758057  0.73216011  1
  O  O217  1  0.98794618  0.62856246  0.24830316  1
  O  O218  1  0.99502792  0.63169760  0.74611647  1
  O  O219  1  0.37408806  0.24302723  0.02419855  1
  O  O220  1  0.36819736  0.26055111  0.50283789  1
  O  O221  1  0.35250236  0.76019563  -0.01317454  1
  O  O222  1  0.36870390  0.75569020  0.50264430  1
  O  O223  1  0.86917495  0.25658083  0.00613087  1
  O  O224  1  0.86860831  0.25463203  0.50567440  1
  O  O225  1  0.87897667  0.76237913  0.00212949  1
  O  O226  1  0.87145974  0.75830749  0.50446567  1
  O  O227  1  0.13478257  0.25213125  0.49040603  1
  O  O228  1  0.12183336  0.23643977  0.99196071  1
  O  O229  1  0.13211245  0.74814285  0.49474078  1
  O  O230  1  0.14083865  0.76397674  0.99197008  1
  O  O231  1  0.63354962  0.24247883  0.49299021  1
  O  O232  1  0.63081450  0.24406545  0.99342553  1
  O  O233  1  0.63364470  0.73540356  0.50243053  1
  O  O234  1  0.62339358  0.75549506  0.98404788  1
  O  O235  1  0.49728870  0.23314556  0.12902319  1
  O  O236  1  0.50063283  0.23010257  0.61692552  1
  O  O237  1  0.50441820  0.73898914  0.12984089  1
  O  O238  1  0.49339974  0.73866944  0.62479155  1
  O  O239  1  0.99322252  0.24100578  0.12507797  1
  O  O240  1  0.99192341  0.24253012  0.62518023  1
  O  O241  1  0.98964141  0.73991149  0.12440976  1
  O  O242  1  0.99799157  0.74425326  0.63513265  1
  O  O243  1  0.01430827  0.23937070  0.37902801  1
  O  O244  1  0.00333392  0.25861715  0.87780705  1
  O  O245  1  0.00747284  0.75894475  0.37366886  1
  O  O246  1  -0.00231916  0.75767736  0.86019415  1
  O  O247  1  0.51188269  0.25642831  0.38114751  1
  O  O248  1  0.51118612  0.24571092  0.87863955  1
  O  O249  1  0.50204746  0.76540829  0.37563090  1
  O  O250  1  0.50389463  0.76325724  0.87434974  1
  O  O251  1  0.25546930  0.13710376  0.49777159  1
  O  O252  1  0.23649842  0.11850797  1.00581960  1
  O  O253  1  0.24545021  0.63865420  0.50443653  1
  O  O254  1  0.24965825  0.64305059  0.98363810  1
  O  O255  1  0.74786834  0.13669372  0.49375131  1
  O  O256  1  0.74460325  0.12949332  0.98993767  1
  O  O257  1  0.74299348  0.62399014  0.49631804  1
  O  O258  1  0.73648680  0.61569135  0.99206293  1
  O  O259  1  0.25702057  0.37406918  0.01670440  1
  O  O260  1  0.25822735  0.36830292  0.50384597  1
  O  O261  1  0.25021813  0.87229395  0.01062487  1
  O  O262  1  0.25868875  0.86451040  0.50656033  1
  O  O263  1  0.75850582  0.36871830  0.00434109  1
  O  O264  1  0.75342150  0.36331494  0.50325871  1
  O  O265  1  0.76289478  0.88389144  -0.00339076  1
  O  O266  1  0.76079561  0.86304997  0.49310051  1
  O  O267  1  0.13723414  0.50375541  0.24143743  1
  O  O268  1  0.13468248  0.50203188  0.74434310  1
  O  O269  1  0.13434360  0.99406880  0.24674509  1
  O  O270  1  0.13401230  0.99595622  0.74216542  1
  O  O271  1  0.62424290  0.48504142  0.24295540  1
  O  O272  1  0.63257875  0.49633148  0.75174494  1
  O  O273  1  0.63913628  1.00222985  0.23964394  1
  O  O274  1  0.63553049  0.99016285  0.74784328  1
  O  O275  1  0.36289822  -0.00531584  0.26089105  1
  O  O276  1  0.36796333  0.00274563  0.75753944  1
  O  O277  1  0.36522391  0.50679995  0.25532776  1
  O  O278  1  0.36224678  0.51244815  0.75037674  1
  O  O279  1  0.87483133  0.00967059  0.25359539  1
  O  O280  1  0.86887772  -0.00715777  0.76200775  1
  O  O281  1  0.87115456  0.50719678  0.24938022  1
  O  O282  1  0.87042130  0.50605091  0.75522479  1
  O  O283  1  0.12902403  0.35726761  0.37562657  1
  O  O284  1  0.11791767  0.36102882  0.87746861  1
  O  O285  1  0.11639724  0.86824824  0.37203354  1
  O  O286  1  0.11968357  0.88512769  0.86079878  1
  O  O287  1  0.61867891  0.36805227  0.36875226  1
  O  O288  1  0.62454677  0.36660813  0.86930637  1
  O  O289  1  0.60888431  0.88625133  0.37939012  1
  O  O290  1  0.61999294  0.86742141  0.86623868  1
  O  O291  1  0.38990583  0.12457594  0.13030734  1
  O  O292  1  0.39054795  0.12496104  0.62810316  1
  O  O293  1  0.38900132  0.62313303  0.13350556  1
  O  O294  1  0.37979860  0.63019333  0.63095870  1
  O  O295  1  0.88266323  0.12894332  0.12828679  1
  O  O296  1  0.88215081  0.14063904  0.62578264  1
  O  O297  1  0.88126702  0.62964389  0.12698049  1
  O  O298  1  0.88166485  0.62320749  0.63706029  1
  O  O299  1  0.25517803  0.26070922  0.13526615  1
  O  O300  1  0.24968917  0.25763397  0.61687738  1
  O  O301  1  0.24434767  0.75799580  0.11287911  1
  O  O302  1  0.25667642  0.75722299  0.61866731  1
  O  O303  1  0.75409847  0.25532849  0.11936549  1
  O  O304  1  0.76053701  0.24823639  0.61804364  1
  O  O305  1  0.76233190  0.74395857  0.11554329  1
  O  O306  1  0.75502184  0.74161825  0.61136166  1
  O  O307  1  0.24472689  0.24187003  0.38181083  1
  O  O308  1  0.23957713  0.25537496  0.88032137  1
  O  O309  1  0.23998872  0.75936420  0.38501154  1
  O  O310  1  0.24563618  0.74167125  0.87303628  1
  O  O311  1  0.73963412  0.24554574  0.38117637  1
  O  O312  1  0.74432622  0.24286848  0.87951760  1
  O  O313  1  0.76022736  0.72806625  0.39415663  1
  O  O314  1  0.73734153  0.75162399  0.87074301  1
  O  O315  1  0.00451782  0.11866129  0.01113687  1
  O  O316  1  -0.00494960  0.11847448  0.52181436  1
  O  O317  1  0.00026852  0.62890493  0.00550482  1
  O  O318  1  0.00493989  0.61961620  0.50533946  1
  O  O319  1  0.50655260  0.11340293  0.00492075  1
  O  O320  1  0.51178077  0.12494121  0.49746437  1
  O  O321  1  0.50254169  0.63120010  0.01450074  1
  O  O322  1  0.50577824  0.62152343  0.50332130  1
  O  O323  1  0.49328792  0.37714634  0.49269079  1
  O  O324  1  0.48931335  0.37140073  0.99333072  1
  O  O325  1  0.49032616  0.87249229  0.49800654  1
  O  O326  1  0.49705970  0.88679767  0.99204965  1
  O  O327  1  0.99255786  0.38421010  0.50417189  1
  O  O328  1  0.98844214  0.37077893  0.99391347  1
  O  O329  1  0.99526561  0.87906446  0.49342342  1
  O  O330  1  0.99871918  0.88266484  0.99244451  1
  O  O331  1  0.49784735  0.48866700  0.38208525  1
  O  O332  1  0.47933127  0.50781354  0.87296683  1
  O  O333  1  0.48740481  0.99480084  0.37212546  1
  O  O334  1  0.49889011  0.99154668  0.88206601  1
  O  O335  1  1.00154654  0.50513667  0.38676507  1
  O  O336  1  0.98836107  0.48964645  0.87435553  1
  O  O337  1  0.99795866  0.99447877  0.37768327  1
  O  O338  1  0.99330531  0.99825602  0.87733296  1
  O  O339  1  0.00680949  0.00600788  0.12109737  1
  O  O340  1  0.01198152  0.00802070  0.62386000  1
  O  O341  1  -0.00131433  0.51882490  0.12125467  1
  O  O342  1  0.00642052  0.50623111  0.61758576  1
  O  O343  1  0.50502704  0.00849929  0.11975428  1
  O  O344  1  0.50598726  0.01679656  0.62396912  1
  O  O345  1  0.50739014  0.49977775  0.12848833  1
  O  O346  1  0.49733807  0.51157093  0.61827696  1
  O  O347  1  0.24456177  0.38440496  0.24478044  1
  O  O348  1  0.24422059  0.38662513  0.74462073  1
  O  O349  1  0.24456934  0.88056008  0.24489056  1
  O  O350  1  0.24502546  0.88149091  0.74390188  1
  O  O351  1  0.74045735  0.37403823  0.24168862  1
  O  O352  1  0.73842985  0.38386120  0.74831592  1
  O  O353  1  0.77041020  0.89324456  0.24460511  1
  O  O354  1  0.74243188  0.88509719  0.75263849  1
  O  O355  1  0.24587439  0.11363744  0.25986774  1
  O  O356  1  0.25301979  0.11332089  0.74799126  1
  O  O357  1  0.26256318  0.61138338  0.23828530  1
  O  O358  1  0.25405746  0.62364554  0.75691079  1
  O  O359  1  0.75772658  0.11899891  0.25524219  1
  O  O360  1  0.74502343  0.11845997  0.76142550  1
  O  O361  1  0.75991709  0.61658132  0.25854482  1
  O  O362  1  0.75805995  0.61925942  0.75493751  1
  O  O363  1  0.36277560  0.11548273  0.38230741  1
  O  O364  1  0.38430895  0.11044201  0.87713006  1
  O  O365  1  0.37980993  0.62330627  0.36000502  1
  O  O366  1  0.36661664  0.62103021  0.86712467  1
  O  O367  1  0.87190833  0.12114714  0.36963803  1
  O  O368  1  0.86683787  0.11577358  0.88119568  1
  O  O369  1  0.87068737  0.61969763  0.36535174  1
  O  O370  1  0.87721493  0.61739710  0.86451034  1
  O  O371  1  0.13591329  0.37286571  0.12580896  1
  O  O372  1  0.13077995  0.38058254  0.62589405  1
  O  O373  1  0.13036685  0.88123903  0.13215974  1
  O  O374  1  0.13007375  0.88418871  0.63467601  1
  O  O375  1  0.62332468  0.37815904  0.13039141  1
  O  O376  1  0.62548170  0.37651477  0.63311335  1
  O  O377  1  0.62129661  0.89235765  0.11162982  1
  O  O378  1  0.62069060  0.87472127  0.63468160  1
  O  O379  1  0.12250436  0.24743414  0.26754190  1
  O  O380  1  0.12890101  0.24761618  0.76797490  1
  O  O381  1  0.12547553  0.75612243  0.25816541  1
  O  O382  1  0.11784944  0.76179438  0.74324710  1
  O  O383  1  0.62889532  0.26047661  0.25864545  1
  O  O384  1  0.63062043  0.26047816  0.75933320  1
  O  O385  1  0.67452568  0.76370761  0.25006960  1
  O  O386  1  0.62361172  0.75789176  0.75660673  1
  O  O387  1  0.37409262  0.24677356  0.24017200  1
  O  O388  1  0.37113089  0.25115810  0.74676569  1
  O  O389  1  0.36423526  0.73428394  0.25064935  1
  O  O390  1  0.37573101  0.74018994  0.74506402  1
  O  O391  1  0.87610617  0.24249830  0.24443737  1
  O  O392  1  0.86891496  0.25755049  0.73666549  1
  O  O393  1  0.87169029  0.73996453  0.23819590  1
  O  O394  1  0.88104765  0.74277787  0.74878011  1
  O  O395  1  0.37804084  0.48975826  0.49606551  1
  O  O396  1  0.36420369  0.50986768  0.98939189  1
  O  O397  1  0.36668317  0.98806489  0.48987346  1
  O  O398  1  0.38260752  0.99686447  0.99445920  1
  O  O399  1  0.88490632  0.49057544  0.50110326  1
  O  O400  1  0.86833757  0.48963042  0.99046220  1
  O  O401  1  0.87261472  0.99291437  0.49120806  1
  O  O402  1  0.88206491  0.99388221  0.99125807  1
  O  O403  1  0.11945991  0.01044369  0.00359183  1
  O  O404  1  0.13078651  -0.00630111  0.51493163  1
  O  O405  1  0.15788351  0.51088766  0.01288057  1
  O  O406  1  0.12082192  0.50506617  0.50248959  1
  O  O407  1  0.61922513  0.00764451  0.00294859  1
  O  O408  1  0.63985402  0.01628097  0.50191438  1
  O  O409  1  0.62112233  0.49313287  0.01269073  1
  O  O410  1  0.61837030  0.50772273  0.50378212  1
  O  O411  1  0.36614049  0.36314072  0.12859664  1
  O  O412  1  0.36994391  0.37653333  0.61669669  1
  O  O413  1  0.36330839  0.88075792  0.12568981  1
  O  O414  1  0.37400811  0.87154646  0.61866179  1
  O  O415  1  0.86922790  0.37238700  0.11747855  1
  O  O416  1  0.87427399  0.36271198  0.61514825  1
  O  O417  1  0.88088216  0.86445629  0.11197955  1
  O  O418  1  0.88254798  0.87841091  0.61173152  1
  O  O419  1  0.13840562  0.13150711  0.37808025  1
  O  O420  1  0.12179306  0.13554966  0.88642013  1
  O  O421  1  0.12082449  0.63917416  0.37963150  1
  O  O422  1  0.13523138  0.62526607  0.86697627  1
  O  O423  1  0.62960581  0.13063108  0.38070207  1
  O  O424  1  0.63249849  0.13096676  0.87908605  1
  O  O425  1  0.63275268  0.61627309  0.38255435  1
  O  O426  1  0.62017558  0.64391553  0.87241671  1
