# generated using pymatgen
data_V85Zn86O256
_symmetry_space_group_name_H-M   'P 1'
_cell_length_a   16.93206429
_cell_length_b   16.93389584
_cell_length_c   16.93636190
_cell_angle_alpha   89.95145314
_cell_angle_beta   89.94332346
_cell_angle_gamma   90.01476132
_symmetry_Int_Tables_number   1
_chemical_formula_structural   V85Zn86O256
_chemical_formula_sum   'V85 Zn86 O256'
_cell_volume   4856.08785693
_cell_formula_units_Z   1
loop_
 _symmetry_equiv_pos_site_id
 _symmetry_equiv_pos_as_xyz
  1  'x, y, z'
loop_
 _atom_site_type_symbol
 _atom_site_label
 _atom_site_symmetry_multiplicity
 _atom_site_fract_x
 _atom_site_fract_y
 _atom_site_fract_z
 _atom_site_occupancy
  V  V0  1  0.12611420  0.87288623  0.76687160  1
  V  V1  1  0.74848957  0.62370051  0.37757875  1
  V  V2  1  0.73830218  0.49780678  0.25232982  1
  V  V3  1  0.50288028  0.13027598  0.62280639  1
  V  V4  1  0.11920927  0.62448388  -0.00792799  1
  V  V5  1  -0.00075760  0.74876997  0.24941276  1
  V  V6  1  0.37424565  0.49043552  0.37713739  1
  V  V7  1  0.62122428  0.61758753  0.50812919  1
  V  V8  1  0.74578627  0.62725867  0.88711440  1
  V  V9  1  0.36741872  0.37300830  0.00047073  1
  V  V10  1  0.37532944  0.50400238  0.87106986  1
  V  V11  1  0.00412130  0.75339577  0.76197589  1
  V  V12  1  0.24905217  0.62361799  0.37149122  1
  V  V13  1  0.87434858  0.75658558  0.12069208  1
  V  V14  1  0.25431548  0.12603453  0.87620626  1
  V  V15  1  0.24862061  0.63192482  0.87248189  1
  V  V16  1  0.12500031  0.87697571  0.24865236  1
  V  V17  1  0.25452298  0.87627572  0.12189204  1
  V  V18  1  -0.00151311  0.61597498  0.12049308  1
  V  V19  1  0.61951502  0.12137914  0.00150236  1
  V  V20  1  0.49859470  0.49261016  0.50410352  1
  V  V21  1  0.12950621  0.49620400  0.62252198  1
  V  V22  1  0.12647553  0.23980023  0.38007054  1
  V  V23  1  0.88164019  0.12448572  0.75071875  1
  V  V24  1  0.25099307  0.49704729  0.24304613  1
  V  V25  1  0.13047294  0.25316466  0.88103152  1
  V  V26  1  0.87780001  0.87536017  0.50053173  1
  V  V27  1  0.87528559  0.38795904  0.00203787  1
  V  V28  1  0.24974432  0.87461922  0.62272345  1
  V  V29  1  0.62579537  0.87864634  0.25651576  1
  V  V30  1  0.87514336  0.25015131  0.62498835  1
  V  V31  1  0.25681794  0.00126203  0.74974235  1
  V  V32  1  0.87333740  0.37407452  0.50020834  1
  V  V33  1  0.73991874  0.37580766  0.12851454  1
  V  V34  1  0.62248468  0.37539928  0.74805020  1
  V  V35  1  0.25328558  0.26476336  0.50381357  1
  V  V36  1  0.87218513  0.62390387  0.25061612  1
  V  V37  1  0.37233177  0.75074041  0.11437309  1
  V  V38  1  0.12477379  0.37357700  0.24891795  1
  V  V39  1  0.74898994  0.74848626  0.50245171  1
  V  V40  1  0.74295621  0.87417566  0.62826364  1
  V  V41  1  0.00778606  0.00589751  0.49948026  1
  V  V42  1  0.49822413  0.36683567  0.87168821  1
  V  V43  1  0.50153254  -0.00558882  0.50312737  1
  V  V44  1  0.00188658  -0.01312753  -0.00357502  1
  V  V45  1  0.13020639  0.37525315  0.74744780  1
  V  V46  1  0.74105094  0.24585915  0.50202640  1
  V  V47  1  0.50576767  0.50439132  -0.00082804  1
  V  V48  1  0.62714396  0.00870391  0.62194403  1
  V  V49  1  0.75118727  -0.00238862  0.74938255  1
  V  V50  1  0.75137090  0.25303786  -0.00003930  1
  V  V51  1  0.51857617  0.74736242  0.74645959  1
  V  V52  1  0.00079443  0.38371626  0.88077272  1
  V  V53  1  0.57512315  0.80723011  0.91875909  1
  V  V54  1  -0.00155509  0.12525688  0.12111205  1
  V  V55  1  0.50123826  0.24401388  0.24418000  1
  V  V56  1  0.38134886  0.12983630  0.74979677  1
  V  V57  1  0.37167609  0.73913905  0.63378600  1
  V  V58  1  0.00296882  0.25078175  0.75075297  1
  V  V59  1  0.87764574  0.74766360  0.63141571  1
  V  V60  1  0.36721317  0.24405567  0.12589005  1
  V  V61  1  0.50022932  0.37213032  0.36951483  1
  V  V62  1  0.87152710  0.12269820  0.24969438  1
  V  V63  1  0.37659322  0.26160839  0.62293397  1
  V  V64  1  0.00004770  0.24728800  0.25144359  1
  V  V65  1  0.25552313  0.00822468  0.25076153  1
  V  V66  1  0.25390881  0.50404639  0.74555914  1
  V  V67  1  -0.00280867  0.62433835  0.63082541  1
  V  V68  1  0.75486237  0.50823877  0.74804807  1
  V  V69  1  -0.00085979  0.37345851  0.37579870  1
  V  V70  1  0.37800923  0.62400601  0.24723935  1
  V  V71  1  0.12776337  0.12739365  -0.00026260  1
  V  V72  1  0.74359214  0.37974299  0.62586214  1
  V  V73  1  0.49405205  0.75845219  0.25719164  1
  V  V74  1  0.61716743  0.75355025  0.38128019  1
  V  V75  1  0.75685824  0.12874189  0.87684396  1
  V  V76  1  0.12432405  0.74793052  0.37338597  1
  V  V77  1  0.75084757  0.75874667  -0.00235069  1
  V  V78  1  0.62520696  0.25339150  0.36886964  1
  V  V79  1  0.38189445  -0.00463613  0.37453919  1
  V  V80  1  0.25594424  0.12150772  0.38801290  1
  V  V81  1  -0.00058702  0.49905606  0.50106055  1
  V  V82  1  0.74443722  0.12169601  0.37891844  1
  V  V83  1  0.88117931  -0.01375253  0.87871789  1
  V  V84  1  0.25152896  0.74840751  0.49763672  1
  Zn  Zn85  1  0.24488139  0.36963223  0.11769880  1
  Zn  Zn86  1  0.74864853  -0.00175892  0.24904122  1
  Zn  Zn87  1  0.87348255  -0.00158663  0.37606766  1
  Zn  Zn88  1  0.12872925  0.00495979  0.62307229  1
  Zn  Zn89  1  0.50502803  0.62924236  0.11828999  1
  Zn  Zn90  1  0.75295019  0.87847445  0.12598105  1
  Zn  Zn91  1  0.87334249  0.25212244  0.12500584  1
  Zn  Zn92  1  0.62266489  -0.00600416  0.11782550  1
  Zn  Zn93  1  0.38259397  0.86873150  0.49793506  1
  Zn  Zn94  1  0.11985819  0.49604802  0.11905988  1
  Zn  Zn95  1  0.62308076  0.50474629  0.12391959  1
  Zn  Zn96  1  0.00769749  0.12884615  0.61827249  1
  Zn  Zn97  1  0.88015380  0.50832757  0.87223655  1
  Zn  Zn98  1  0.12686736  0.00061577  0.12403813  1
  Zn  Zn99  1  0.44621455  0.95082744  0.92690153  1
  Zn  Zn100  1  0.62369799  0.25115910  0.87070286  1
  Zn  Zn101  1  0.12256154  0.62445740  0.49882749  1
  Zn  Zn102  1  0.87440534  0.49896635  0.37571371  1
  Zn  Zn103  1  0.49383774  0.11457851  0.12562743  1
  Zn  Zn104  1  0.49492465  0.61396494  0.63233156  1
  Zn  Zn105  1  0.24626005  0.75776720  -0.01146825  1
  Zn  Zn106  1  -0.00109249  0.87482900  0.37540026  1
  Zn  Zn107  1  0.18814893  0.18441287  0.19011885  1
  Zn  Zn108  1  0.18945897  0.18651485  0.68359384  1
  Zn  Zn109  1  0.18597514  0.68613767  0.18233733  1
  Zn  Zn110  1  0.18271301  0.68570424  0.68758333  1
  Zn  Zn111  1  0.68622260  0.18777604  0.18704456  1
  Zn  Zn112  1  0.68783876  0.18981602  0.69017883  1
  Zn  Zn113  1  0.68372012  0.68890616  0.18558518  1
  Zn  Zn114  1  0.68828173  0.68176290  0.68582958  1
  Zn  Zn115  1  0.31321699  0.30863083  0.30911383  1
  Zn  Zn116  1  0.31193906  0.31329542  0.80926694  1
  Zn  Zn117  1  0.31243269  0.81723893  0.31127877  1
  Zn  Zn118  1  0.32239188  0.81481902  0.80612047  1
  Zn  Zn119  1  0.81135306  0.31153678  0.31163227  1
  Zn  Zn120  1  0.81469613  0.31678914  0.81245520  1
  Zn  Zn121  1  0.80954551  0.80969290  0.31502821  1
  Zn  Zn122  1  0.81003202  0.80808073  0.81189791  1
  Zn  Zn123  1  0.18567129  0.43587803  0.43305932  1
  Zn  Zn124  1  0.18739143  0.44448140  0.93659166  1
  Zn  Zn125  1  0.18896620  0.93398708  0.43515090  1
  Zn  Zn126  1  0.28545584  0.93952697  0.93828895  1
  Zn  Zn127  1  0.68459287  0.43529893  0.43634620  1
  Zn  Zn128  1  0.68739348  0.43910641  0.93200891  1
  Zn  Zn129  1  0.68640959  0.93781061  0.44142633  1
  Zn  Zn130  1  0.69390466  0.94142297  0.93517644  1
  Zn  Zn131  1  0.31406268  0.06412868  0.06191101  1
  Zn  Zn132  1  0.31771021  0.06276178  0.56356011  1
  Zn  Zn133  1  0.31213421  0.56325515  0.05793070  1
  Zn  Zn134  1  0.31077006  0.55907558  0.55742944  1
  Zn  Zn135  1  0.81193310  0.05827027  0.06339007  1
  Zn  Zn136  1  0.81858036  0.06303061  0.56192403  1
  Zn  Zn137  1  0.80640933  0.56673615  0.06448470  1
  Zn  Zn138  1  0.81373984  0.56200135  0.56543650  1
  Zn  Zn139  1  0.43902621  0.43107976  0.18581823  1
  Zn  Zn140  1  0.43643866  0.43557352  0.68903385  1
  Zn  Zn141  1  0.43814402  0.94020570  0.18405493  1
  Zn  Zn142  1  0.46573410  0.95448712  0.73771804  1
  Zn  Zn143  1  0.93044670  0.43695888  0.18918025  1
  Zn  Zn144  1  0.93735352  0.43576036  0.68881769  1
  Zn  Zn145  1  0.93932434  0.93961799  0.18714761  1
  Zn  Zn146  1  0.94103134  0.93484898  0.68662714  1
  Zn  Zn147  1  0.06184640  0.05996795  0.31425522  1
  Zn  Zn148  1  0.06845708  0.05815420  0.81268000  1
  Zn  Zn149  1  0.06096104  0.56057310  0.30995764  1
  Zn  Zn150  1  0.06378398  0.56435059  0.80942128  1
  Zn  Zn151  1  0.56029974  0.06572492  0.31668854  1
  Zn  Zn152  1  0.57009334  0.07170782  0.81199307  1
  Zn  Zn153  1  0.56034941  0.56628919  0.31527548  1
  Zn  Zn154  1  0.56555048  0.56105280  0.80918709  1
  Zn  Zn155  1  0.43722509  0.18235064  0.44055984  1
  Zn  Zn156  1  0.43331124  0.18764847  0.94060051  1
  Zn  Zn157  1  0.43501221  0.68039349  0.43904815  1
  Zn  Zn158  1  0.43371474  0.68504806  0.93171207  1
  Zn  Zn159  1  0.93211914  0.18661053  0.43635865  1
  Zn  Zn160  1  0.93845270  0.19296077  0.93771124  1
  Zn  Zn161  1  0.93784031  0.68685142  0.44007569  1
  Zn  Zn162  1  0.93056460  0.68416842  0.93717794  1
  Zn  Zn163  1  0.05960813  0.31136397  0.06217437  1
  Zn  Zn164  1  0.06581963  0.31062041  0.56247806  1
  Zn  Zn165  1  0.06693991  0.80633085  0.06288060  1
  Zn  Zn166  1  0.06484118  0.81375266  0.56405087  1
  Zn  Zn167  1  0.56016204  0.31248842  0.05844729  1
  Zn  Zn168  1  0.56095389  0.31439323  0.55943415  1
  Zn  Zn169  1  0.55998533  0.81458590  0.07946482  1
  Zn  Zn170  1  0.56058974  0.81122615  0.57137370  1
  O  O171  1  0.11802281  0.12609238  0.11740383  1
  O  O172  1  0.11881180  0.11871213  0.63321301  1
  O  O173  1  0.11452039  0.62057585  0.11884761  1
  O  O174  1  0.11717452  0.61233193  0.62121460  1
  O  O175  1  0.62613615  0.12780337  0.10808371  1
  O  O176  1  0.61713571  0.12218557  0.62955848  1
  O  O177  1  0.61606782  0.61815395  0.13446843  1
  O  O178  1  0.62108213  0.62407784  0.61118806  1
  O  O179  1  0.38125491  0.38305490  0.36787392  1
  O  O180  1  0.37930417  0.38164936  0.87850004  1
  O  O181  1  0.37027521  0.88917259  0.38014973  1
  O  O182  1  0.36334239  0.87661331  0.88463702  1
  O  O183  1  0.88145401  0.37375371  0.38181468  1
  O  O184  1  0.88430056  0.37740967  0.88381539  1
  O  O185  1  0.87448514  0.87172070  0.38929494  1
  O  O186  1  0.87162874  0.88781961  0.87095196  1
  O  O187  1  0.25563137  0.00595284  0.37221285  1
  O  O188  1  0.24258250  0.01811020  0.86269945  1
  O  O189  1  0.25548367  0.50099796  0.36323584  1
  O  O190  1  0.25692470  0.50643658  0.86561829  1
  O  O191  1  0.75145067  0.00895658  0.37588201  1
  O  O192  1  0.76083798  0.00933303  0.86734452  1
  O  O193  1  0.75217020  0.50464401  0.36995381  1
  O  O194  1  0.75379125  0.50759109  0.86623016  1
  O  O195  1  0.24991767  0.49717327  0.13552890  1
  O  O196  1  0.24122587  0.50313579  0.63054522  1
  O  O197  1  0.24918263  0.99553700  0.13493815  1
  O  O198  1  0.25168786  0.99052274  0.62883706  1
  O  O199  1  0.74757023  0.49438496  0.13453876  1
  O  O200  1  0.75275664  0.49205849  0.63516901  1
  O  O201  1  0.74292827  0.99689621  0.12959402  1
  O  O202  1  0.74921338  0.99525176  0.62906388  1
  O  O203  1  0.00399671  0.36866216  0.25455377  1
  O  O204  1  0.01075208  0.37092879  0.75683658  1
  O  O205  1  0.00734374  0.86921525  0.25204658  1
  O  O206  1  0.01653932  0.86966720  0.74601499  1
  O  O207  1  0.49906251  0.36450993  0.26117559  1
  O  O208  1  0.51014631  0.38341128  0.75872276  1
  O  O209  1  0.50454111  0.86243594  0.25187694  1
  O  O210  1  0.48278601  0.84229149  0.74421182  1
  O  O211  1  0.50342434  0.13942318  0.24870040  1
  O  O212  1  0.48891328  0.12903372  0.74035666  1
  O  O213  1  0.48645275  0.63172473  0.25313371  1
  O  O214  1  0.50492120  0.63675683  0.74702711  1
  O  O215  1  0.99421039  0.12734175  0.24328189  1
  O  O216  1  0.99095465  0.12948082  0.75646085  1
  O  O217  1  0.99115038  0.62885525  0.24422724  1
  O  O218  1  1.00701575  0.63450664  0.73763197  1
  O  O219  1  0.37911261  0.25907080  0.01419138  1
  O  O220  1  0.36325066  0.24551986  0.50894916  1
  O  O221  1  0.37038747  0.74300662  0.01149176  1
  O  O222  1  0.36593091  0.74891397  0.50199155  1
  O  O223  1  0.86344484  0.25819373  0.00105869  1
  O  O224  1  0.86573996  0.25633861  0.50418884  1
  O  O225  1  0.86545403  0.74631964  0.01030570  1
  O  O226  1  0.87114248  0.75568412  0.51033450  1
  O  O227  1  0.13939218  0.25478355  0.49230831  1
  O  O228  1  0.12103965  0.24461899  0.98923163  1
  O  O229  1  0.13176503  0.74784731  0.49110451  1
  O  O230  1  0.13060703  0.73087506  1.00603366  1
  O  O231  1  0.63688215  0.25222047  0.49364868  1
  O  O232  1  0.63718944  0.24463602  0.99553422  1
  O  O233  1  0.62678195  0.74333731  0.49805473  1
  O  O234  1  0.62719415  0.75609921  0.99319030  1
  O  O235  1  0.49315438  0.24948782  0.13049031  1
  O  O236  1  0.48640916  0.24497493  0.61474204  1
  O  O237  1  0.48767719  0.74789736  0.13688939  1
  O  O238  1  0.48769091  0.74157228  0.63048182  1
  O  O239  1  0.99735629  0.23948083  0.13192848  1
  O  O240  1  0.99379001  0.25083824  0.63183520  1
  O  O241  1  0.99257457  0.73968773  0.13063590  1
  O  O242  1  0.99504710  0.74273679  0.62793648  1
  O  O243  1  0.00857658  0.25200794  0.37334239  1
  O  O244  1  0.00881063  0.26085350  0.86900682  1
  O  O245  1  0.00691514  0.74957752  0.36870892  1
  O  O246  1  -0.00699973  0.74369658  0.86046692  1
  O  O247  1  0.50510357  0.25250038  0.37136717  1
  O  O248  1  0.49857938  0.26387623  0.87796324  1
  O  O249  1  0.50540762  0.74418841  0.37046546  1
  O  O250  1  0.50927362  0.74282730  0.86479534  1
  O  O251  1  0.25091634  0.12983185  0.49083317  1
  O  O252  1  0.23577693  0.12312548  0.99163983  1
  O  O253  1  0.24592014  0.63265371  0.48996582  1
  O  O254  1  0.24095280  0.62594854  0.98960018  1
  O  O255  1  0.75779515  0.13492131  0.49235835  1
  O  O256  1  0.74862569  0.13349164  0.99310960  1
  O  O257  1  0.74262496  0.62795782  0.49768185  1
  O  O258  1  0.74521361  0.63433451  0.99330979  1
  O  O259  1  0.26218229  0.38021064  -0.00176056  1
  O  O260  1  0.25310129  0.36314310  0.49302621  1
  O  O261  1  0.23479131  0.87285704  0.01883235  1
  O  O262  1  0.24902157  0.86140437  0.50348972  1
  O  O263  1  0.75506439  0.37077605  0.00421164  1
  O  O264  1  0.75326232  0.36997345  0.50745345  1
  O  O265  1  0.74792660  0.86311724  0.00211268  1
  O  O266  1  0.75718117  0.86847764  0.50847531  1
  O  O267  1  0.13256942  0.49023553  0.24850828  1
  O  O268  1  0.12986639  0.49323253  0.74151510  1
  O  O269  1  0.13126469  0.99214923  0.24904124  1
  O  O270  1  0.13510972  0.98793705  0.74792817  1
  O  O271  1  0.63576807  0.50067615  0.25608400  1
  O  O272  1  0.64122450  0.48714679  0.75259703  1
  O  O273  1  0.62258751  0.98447096  0.26268580  1
  O  O274  1  0.64638609  1.01112570  0.73887363  1
  O  O275  1  0.36618359  -0.00492076  0.25997445  1
  O  O276  1  0.36277034  0.01255832  0.74199959  1
  O  O277  1  0.36982175  0.50445745  0.25299139  1
  O  O278  1  0.36495107  0.49515230  0.75658262  1
  O  O279  1  0.87511130  0.01150197  0.25350224  1
  O  O280  1  0.87345259  0.00773666  0.75462855  1
  O  O281  1  0.86644980  0.51233588  0.25231763  1
  O  O282  1  0.85933300  0.49071949  0.75265535  1
  O  O283  1  0.12024192  0.36485456  0.36475875  1
  O  O284  1  0.12047012  0.37071884  0.87174564  1
  O  O285  1  0.12554079  0.86636157  0.36311300  1
  O  O286  1  0.13384378  0.87355545  0.86189178  1
  O  O287  1  0.61853455  0.36115266  0.37610346  1
  O  O288  1  0.61593556  0.37395706  0.86798468  1
  O  O289  1  0.62924129  0.85976457  0.37619245  1
  O  O290  1  0.63603515  0.86739628  0.86758782  1
  O  O291  1  0.37657456  0.14009620  0.12129121  1
  O  O292  1  0.38187458  0.13367832  0.63142457  1
  O  O293  1  0.37605302  0.63110086  0.13234577  1
  O  O294  1  0.37521299  0.63560344  0.61392663  1
  O  O295  1  0.88100135  0.12738858  0.13193069  1
  O  O296  1  0.88064559  0.13157473  0.63470091  1
  O  O297  1  0.87897395  0.63194792  0.13197652  1
  O  O298  1  0.88425441  0.63480507  0.62189810  1
  O  O299  1  0.26260687  0.25102873  0.13124940  1
  O  O300  1  0.25823313  0.24923773  0.61077607  1
  O  O301  1  0.25845887  0.75831009  0.12896745  1
  O  O302  1  0.25305012  0.74746887  0.61545546  1
  O  O303  1  0.75112677  0.25820475  0.11836590  1
  O  O304  1  0.75512598  0.25554467  0.61801707  1
  O  O305  1  0.75747855  0.74948101  0.11693436  1
  O  O306  1  0.75751619  0.75578142  0.62266639  1
  O  O307  1  0.24762210  0.24288330  0.38318801  1
  O  O308  1  0.23916579  0.24178402  0.86853252  1
  O  O309  1  0.24523872  0.74551014  0.37880623  1
  O  O310  1  0.25630123  0.73448373  0.87047388  1
  O  O311  1  0.74303124  0.24666238  0.38135741  1
  O  O312  1  0.75327779  0.24424860  0.88182026  1
  O  O313  1  0.74204759  0.74190213  0.38497811  1
  O  O314  1  0.75440061  0.73878632  0.88314657  1
  O  O315  1  0.00654333  0.12816940  0.00750238  1
  O  O316  1  -0.00734266  0.10983799  0.49827341  1
  O  O317  1  0.00889390  0.62801815  0.00581698  1
  O  O318  1  0.00104997  0.61727315  0.51004906  1
  O  O319  1  0.51750834  0.13137036  -0.00475213  1
  O  O320  1  0.49544391  0.11277305  0.51593877  1
  O  O321  1  0.49255650  0.60813352  -0.00200011  1
  O  O322  1  0.50647960  0.61190153  0.49847735  1
  O  O323  1  0.50344407  0.38108695  0.48412154  1
  O  O324  1  0.49016379  0.38336575  0.99093585  1
  O  O325  1  0.50053485  0.88936218  0.51240734  1
  O  O326  1  0.51762479  0.86572963  0.98147303  1
  O  O327  1  0.99483208  0.37841787  0.49579413  1
  O  O328  1  0.98943478  0.37094672  0.99260800  1
  O  O329  1  0.99295654  0.88128121  0.49900946  1
  O  O330  1  1.00730920  0.88875540  1.00780643  1
  O  O331  1  0.49216608  0.49116863  0.37673264  1
  O  O332  1  0.49285059  0.49455078  0.88101896  1
  O  O333  1  0.49382873  1.00609113  0.38950026  1
  O  O334  1  0.50475069  0.98879537  0.83979113  1
  O  O335  1  0.99863769  0.49207917  0.38095412  1
  O  O336  1  0.99969858  0.48780553  0.86818343  1
  O  O337  1  0.99609539  0.99632656  0.38545213  1
  O  O338  1  0.99596180  1.00351508  0.88838510  1
  O  O339  1  -0.00040819  0.01074342  0.11588852  1
  O  O340  1  0.00022447  -0.00059654  0.60977830  1
  O  O341  1  -0.00306297  0.51269023  0.13128013  1
  O  O342  1  0.00467662  0.50608104  0.62276281  1
  O  O343  1  0.50925771  0.00268073  0.12786867  1
  O  O344  1  0.51218538  0.00785507  0.63108461  1
  O  O345  1  0.49788300  0.49592927  0.10904018  1
  O  O346  1  0.49197276  0.49650999  0.60884989  1
  O  O347  1  0.24068843  0.38025620  0.24886818  1
  O  O348  1  0.23683994  0.38596219  0.75552206  1
  O  O349  1  0.24254772  0.88448074  0.24391178  1
  O  O350  1  0.24445309  0.88155307  0.74197345  1
  O  O351  1  0.75779036  0.38544142  0.24091968  1
  O  O352  1  0.74639804  0.38176972  0.74270312  1
  O  O353  1  0.74014817  0.87490682  0.25268246  1
  O  O354  1  0.76029571  0.88609859  0.73969457  1
  O  O355  1  0.24476154  0.11280778  0.26170342  1
  O  O356  1  0.25828388  0.11986490  0.75415181  1
  O  O357  1  0.25793805  0.61722547  0.25150680  1
  O  O358  1  0.23830769  0.61101248  0.75702549  1
  O  O359  1  0.75633555  0.12458048  0.25706492  1
  O  O360  1  0.76372167  0.12256791  0.75651726  1
  O  O361  1  0.75557085  0.61983869  0.25662731  1
  O  O362  1  0.75222253  0.61106138  0.74824934  1
  O  O363  1  0.36732650  0.11172990  0.37875206  1
  O  O364  1  0.36548792  0.13824146  0.86368650  1
  O  O365  1  0.36767227  0.61378448  0.36587879  1
  O  O366  1  0.36535947  0.61113586  0.87659734  1
  O  O367  1  0.86244666  0.12551154  0.36669408  1
  O  O368  1  0.86938130  0.12203889  0.87064423  1
  O  O369  1  0.86801774  0.62497077  0.36820993  1
  O  O370  1  0.85703964  0.62126877  0.87570103  1
  O  O371  1  0.12438042  0.37475325  0.13477778  1
  O  O372  1  0.11969067  0.38652825  0.63337071  1
  O  O373  1  0.12975590  0.87447955  0.13775725  1
  O  O374  1  0.13975160  0.87595633  0.62592438  1
  O  O375  1  0.63677721  0.37954163  0.11847510  1
  O  O376  1  0.63649722  0.37089830  0.62900310  1
  O  O377  1  0.63098360  0.87384568  0.14213460  1
  O  O378  1  0.63887979  0.88412128  0.62264347  1
  O  O379  1  0.12070093  0.25519902  0.25777404  1
  O  O380  1  0.12313623  0.25891280  0.75635759  1
  O  O381  1  0.12031318  0.75496460  0.25375883  1
  O  O382  1  0.11885232  0.76324608  0.74507581  1
  O  O383  1  0.61797139  0.24981355  0.25766286  1
  O  O384  1  0.63273189  0.26739831  0.75340185  1
  O  O385  1  0.61575365  0.75704323  0.26154065  1
  O  O386  1  0.61759468  0.75568219  0.73611427  1
  O  O387  1  0.38347562  0.25552967  0.23427104  1
  O  O388  1  0.36594564  0.24454751  0.73192856  1
  O  O389  1  0.37863253  0.74212041  0.24894193  1
  O  O390  1  0.36419229  0.73599471  0.73373699  1
  O  O391  1  0.88152034  0.23848514  0.25024561  1
  O  O392  1  0.88138436  0.24439885  0.74645792  1
  O  O393  1  0.87717875  0.73868621  0.24662190  1
  O  O394  1  0.88544931  0.75964542  0.73667239  1
  O  O395  1  0.38133481  0.50219809  0.48533015  1
  O  O396  1  0.38090980  0.49244818  0.99106162  1
  O  O397  1  0.38393844  0.99511729  0.49592748  1
  O  O398  1  0.36819474  1.00231866  0.98976306  1
  O  O399  1  0.88083595  0.49162948  0.49980348  1
  O  O400  1  0.86878218  0.49063282  0.99923867  1
  O  O401  1  0.88362369  0.99027667  0.49870109  1
  O  O402  1  0.89064070  1.00577400  0.99239748  1
  O  O403  1  0.10856855  0.01370522  0.00311721  1
  O  O404  1  0.11068349  -0.00682662  0.49781198  1
  O  O405  1  0.12780951  0.51611678  0.00410100  1
  O  O406  1  0.11956584  0.49784781  0.50584438  1
  O  O407  1  0.63303757  0.01807146  -0.00470705  1
  O  O408  1  0.62095294  0.00067981  0.51404711  1
  O  O409  1  0.60832792  0.49494344  -0.00315922  1
  O  O410  1  0.61280086  0.50668658  0.49085543  1
  O  O411  1  0.37137967  0.36676026  0.11600156  1
  O  O412  1  0.37660067  0.36055162  0.62517501  1
  O  O413  1  0.36509264  0.86414247  0.13264826  1
  O  O414  1  0.35849243  0.85350599  0.61897370  1
  O  O415  1  0.86546916  0.37351982  0.11749525  1
  O  O416  1  0.86499520  0.36911539  0.62061630  1
  O  O417  1  0.87452153  0.86010210  0.13470669  1
  O  O418  1  0.86908297  0.86953157  0.61552883  1
  O  O419  1  0.13149060  0.13591398  0.37185114  1
  O  O420  1  0.12917703  0.13481820  0.88034064  1
  O  O421  1  0.13086180  0.63047568  0.37264669  1
  O  O422  1  0.13037828  0.62084593  0.88467835  1
  O  O423  1  0.63701601  0.13610077  0.37297965  1
  O  O424  1  0.63997246  0.13118731  0.88113856  1
  O  O425  1  0.62902316  0.63503318  0.38355336  1
  O  O426  1  0.64709378  0.62139592  0.86460399  1
