# generated using pymatgen
data_V85Zn86O256
_symmetry_space_group_name_H-M   'P 1'
_cell_length_a   16.92427443
_cell_length_b   16.93345899
_cell_length_c   16.94572370
_cell_angle_alpha   90.02912868
_cell_angle_beta   89.95133140
_cell_angle_gamma   89.95251276
_symmetry_Int_Tables_number   1
_chemical_formula_structural   V85Zn86O256
_chemical_formula_sum   'V85 Zn86 O256'
_cell_volume   4856.41171339
_cell_formula_units_Z   1
loop_
 _symmetry_equiv_pos_site_id
 _symmetry_equiv_pos_as_xyz
  1  'x, y, z'
loop_
 _atom_site_type_symbol
 _atom_site_label
 _atom_site_symmetry_multiplicity
 _atom_site_fract_x
 _atom_site_fract_y
 _atom_site_fract_z
 _atom_site_occupancy
  V  V0  1  0.74465054  0.49744650  0.24195268  1
  V  V1  1  0.75083035  0.49426004  0.74436933  1
  V  V2  1  0.25144078  0.00117086  0.23803257  1
  V  V3  1  0.75143035  0.00356411  0.25387804  1
  V  V4  1  0.50271538  0.00465394  -0.01223341  1
  V  V5  1  0.74941868  0.87409125  0.12571939  1
  V  V6  1  0.36818682  0.62467492  0.74903086  1
  V  V7  1  0.12501172  0.24766638  0.87228669  1
  V  V8  1  0.13050975  0.62493508  -0.00794180  1
  V  V9  1  0.24521369  0.37705266  0.12528333  1
  V  V10  1  0.62638859  0.62436951  0.50175473  1
  V  V11  1  0.87469906  0.49831883  0.37432764  1
  V  V12  1  0.49808650  0.62475224  0.62423754  1
  V  V13  1  0.37933161  0.49564714  0.37105000  1
  V  V14  1  0.74137961  0.12642871  0.38054336  1
  V  V15  1  0.50454298  0.74993868  0.76152985  1
  V  V16  1  0.62435856  0.24500594  0.88241249  1
  V  V17  1  -0.00037592  0.49707846  0.50044902  1
  V  V18  1  0.24467065  0.49737434  0.75453227  1
  V  V19  1  0.37576489  0.24940891  0.12572639  1
  V  V20  1  0.50978392  0.62177764  0.12888324  1
  V  V21  1  0.37296362  0.76123425  0.62159100  1
  V  V22  1  0.11884646  0.51044374  0.12723927  1
  V  V23  1  0.01357389  0.11494648  0.61299308  1
  V  V24  1  0.75269896  0.62712105  0.37318238  1
  V  V25  1  0.00597020  0.37428099  0.87464879  1
  V  V26  1  0.00217759  0.62234460  0.62352633  1
  V  V27  1  0.75144842  0.24561270  0.00196210  1
  V  V28  1  0.24288418  0.25016262  0.49721765  1
  V  V29  1  0.37438406  0.23626075  0.62312438  1
  V  V30  1  0.62286785  0.01100521  0.12347962  1
  V  V31  1  0.88171947  0.88465133  0.50064774  1
  V  V32  1  0.38261940  0.87950712  -0.00967999  1
  V  V33  1  0.49769786  0.87632469  0.38810841  1
  V  V34  1  0.11528371  0.24736319  0.37189351  1
  V  V35  1  0.37181585  0.37740876  -0.00063072  1
  V  V36  1  0.87274614  0.24915139  0.62809496  1
  V  V37  1  0.12657717  0.49571822  0.62610718  1
  V  V38  1  0.00328995  0.11022193  0.12483387  1
  V  V39  1  0.49792464  0.37356287  0.87377796  1
  V  V40  1  0.12129127  0.10789684  0.00116379  1
  V  V41  1  0.25632903  0.74619087  -0.00454413  1
  V  V42  1  0.24549818  0.24852384  -0.00029276  1
  V  V43  1  0.88011087  0.88724612  0.00590372  1
  V  V44  1  0.87508091  -0.00009458  0.86747891  1
  V  V45  1  0.11382061  0.37120515  0.24807888  1
  V  V46  1  0.62380233  0.87913185  0.25387507  1
  V  V47  1  0.00240316  0.75058288  0.75132259  1
  V  V48  1  0.51127672  0.49934536  0.00360694  1
  V  V49  1  0.49452732  0.01734613  0.50773326  1
  V  V50  1  0.86941817  0.37289499  0.50485686  1
  V  V51  1  0.61858341  0.26066293  0.37486064  1
  V  V52  1  0.87888119  0.13279055  0.25191349  1
  V  V53  1  0.37525433  -0.00247564  0.37472137  1
  V  V54  1  0.74864080  0.11947406  0.87093660  1
  V  V55  1  0.62331219  0.87364469  0.75755578  1
  V  V56  1  0.26499814  -0.01050874  0.75415584  1
  V  V57  1  -0.00338420  0.51180491  0.00237079  1
  V  V58  1  0.13065385  0.74664926  0.37067638  1
  V  V59  1  0.49863239  0.24175325  0.74527213  1
  V  V60  1  0.74646524  0.87800019  0.62886227  1
  V  V61  1  0.25501471  0.75384157  0.49969072  1
  V  V62  1  0.62522713  0.49493628  0.62527939  1
  V  V63  1  0.24517712  0.12584314  0.37155960  1
  V  V64  1  0.13388343  0.62117547  0.49322034  1
  V  V65  1  0.37830004  0.37444629  0.49779257  1
  V  V66  1  0.88476144  0.74612304  0.12566607  1
  V  V67  1  0.37033827  0.50525063  0.87816748  1
  V  V68  1  0.88411783  0.25302330  0.12551744  1
  V  V69  1  0.50047241  0.49692852  0.49729631  1
  V  V70  1  0.12680238  0.88101989  0.74740026  1
  V  V71  1  0.74237501  0.24823673  0.50725704  1
  V  V72  1  0.75249730  0.75179139  0.50171058  1
  V  V73  1  0.00371208  0.24851810  0.74809215  1
  V  V74  1  0.36976582  0.62708860  0.25309256  1
  V  V75  1  0.49985504  0.75302726  0.25217604  1
  V  V76  1  0.00299437  0.88078472  0.88011261  1
  V  V77  1  0.87532188  0.62344177  0.74685467  1
  V  V78  1  0.62794965  0.37054289  0.74505697  1
  V  V79  1  0.24498543  0.50404918  0.25789058  1
  V  V80  1  0.12301419  0.88125244  0.24125748  1
  V  V81  1  0.24664018  0.37236426  0.62980100  1
  V  V82  1  0.87351201  0.49846046  0.87376065  1
  V  V83  1  0.62401559  0.01014662  0.62408163  1
  V  V84  1  0.25818856  0.11883516  0.87569519  1
  Zn  Zn85  1  0.49415392  0.25575864  0.25692371  1
  Zn  Zn86  1  0.37960418  0.11623623  0.74985477  1
  Zn  Zn87  1  0.87672627  0.75090263  0.62330221  1
  Zn  Zn88  1  0.00423171  0.74512174  0.25050665  1
  Zn  Zn89  1  0.62023484  0.64126037  -0.01175282  1
  Zn  Zn90  1  0.74570733  0.37615275  0.11963775  1
  Zn  Zn91  1  0.37462091  0.75351783  0.12609590  1
  Zn  Zn92  1  0.87519608  0.37605090  0.00144641  1
  Zn  Zn93  1  0.20212608  0.92169504  0.58758639  1
  Zn  Zn94  1  0.87990571  0.62341719  0.24345139  1
  Zn  Zn95  1  0.13038870  0.74675158  0.87412278  1
  Zn  Zn96  1  0.25170211  0.87646478  0.11973387  1
  Zn  Zn97  1  -0.00604388  0.36781032  0.37182966  1
  Zn  Zn98  1  0.61102923  0.38389852  0.24307054  1
  Zn  Zn99  1  0.74345087  0.75426367  -0.01017928  1
  Zn  Zn100  1  0.62614430  0.75304101  0.37683244  1
  Zn  Zn101  1  0.37799628  0.12551868  0.24705627  1
  Zn  Zn102  1  0.50187251  0.12744824  0.12500030  1
  Zn  Zn103  1  0.73579403  0.63239771  0.87068328  1
  Zn  Zn104  1  0.00566950  0.88075763  0.37899840  1
  Zn  Zn105  1  0.88373404  0.00843544  0.38218220  1
  Zn  Zn106  1  0.87708774  0.11946910  0.74728051  1
  Zn  Zn107  1  0.18476845  0.18671910  0.18668064  1
  Zn  Zn108  1  0.19019582  0.18065806  0.69081966  1
  Zn  Zn109  1  0.18861516  0.69001000  0.18225754  1
  Zn  Zn110  1  0.18738158  0.68767219  0.68521093  1
  Zn  Zn111  1  0.68891002  0.19299310  0.19024309  1
  Zn  Zn112  1  0.69021446  0.18568617  0.69210951  1
  Zn  Zn113  1  0.68888749  0.69097912  0.18757523  1
  Zn  Zn114  1  0.68729756  0.68637689  0.68905274  1
  Zn  Zn115  1  0.30811663  0.31610159  0.30972078  1
  Zn  Zn116  1  0.31209373  0.31090424  0.81131830  1
  Zn  Zn117  1  0.30878538  0.81477458  0.31463812  1
  Zn  Zn118  1  0.31694513  0.80874863  0.81626678  1
  Zn  Zn119  1  0.80806363  0.31219754  0.31402440  1
  Zn  Zn120  1  0.81332371  0.31135132  0.81346486  1
  Zn  Zn121  1  0.81532697  0.81472434  0.31363299  1
  Zn  Zn122  1  0.81405221  0.81687762  0.80979063  1
  Zn  Zn123  1  0.18731865  0.43243520  0.43514325  1
  Zn  Zn124  1  0.18429446  0.43781029  0.93757533  1
  Zn  Zn125  1  0.18599247  0.94043853  0.42359949  1
  Zn  Zn126  1  0.19256046  0.93234429  0.93394376  1
  Zn  Zn127  1  0.69127575  0.43622118  0.43822226  1
  Zn  Zn128  1  0.68956543  0.43360563  0.93274071  1
  Zn  Zn129  1  0.68490230  0.94148324  0.44232858  1
  Zn  Zn130  1  0.68780355  0.93925082  0.94131488  1
  Zn  Zn131  1  0.31655730  0.06216239  0.05747786  1
  Zn  Zn132  1  0.29125991  0.05426536  0.54991811  1
  Zn  Zn133  1  0.31339126  0.56520858  0.06915290  1
  Zn  Zn134  1  0.31244046  0.56253365  0.56325082  1
  Zn  Zn135  1  0.81258393  0.06476532  0.06153116  1
  Zn  Zn136  1  0.81046866  0.06612924  0.56817266  1
  Zn  Zn137  1  0.80541404  0.56851767  0.05620916  1
  Zn  Zn138  1  0.81178704  0.56140745  0.56377896  1
  Zn  Zn139  1  0.43922881  0.43431971  0.18607039  1
  Zn  Zn140  1  0.43507522  0.43296783  0.68644692  1
  Zn  Zn141  1  0.43647408  0.93621236  0.18372395  1
  Zn  Zn142  1  0.43960782  0.93546610  0.68959476  1
  Zn  Zn143  1  0.93339626  0.43973915  0.18543737  1
  Zn  Zn144  1  0.94016908  0.43003208  0.68860543  1
  Zn  Zn145  1  0.93730732  0.93847752  0.19566283  1
  Zn  Zn146  1  0.93917021  0.93732771  0.68561911  1
  Zn  Zn147  1  0.05965945  0.06111833  0.31323451  1
  Zn  Zn148  1  0.06580534  0.06138353  0.80842981  1
  Zn  Zn149  1  0.05702210  0.56515305  0.31232361  1
  Zn  Zn150  1  0.06201358  0.56205677  0.81352901  1
  Zn  Zn151  1  0.56006090  0.06976511  0.31159973  1
  Zn  Zn152  1  0.56748461  0.06186793  0.80877409  1
  Zn  Zn153  1  0.56262791  0.56409320  0.31549087  1
  Zn  Zn154  1  0.55914643  0.56092671  0.81319898  1
  Zn  Zn155  1  0.43232090  0.18548329  0.43622359  1
  Zn  Zn156  1  0.43873937  0.18719949  0.94184303  1
  Zn  Zn157  1  0.43551841  0.68372683  0.43450183  1
  Zn  Zn158  1  0.43771035  0.68427736  0.93976986  1
  Zn  Zn159  1  0.93493837  0.18439712  0.44120330  1
  Zn  Zn160  1  0.93811517  0.18318460  0.94117450  1
  Zn  Zn161  1  0.94187509  0.68988946  0.43496876  1
  Zn  Zn162  1  0.90621944  0.70496050  0.92223017  1
  Zn  Zn163  1  0.06007041  0.31326451  0.05848776  1
  Zn  Zn164  1  0.06058833  0.30958547  0.56186291  1
  Zn  Zn165  1  0.06450836  0.81239295  0.05983409  1
  Zn  Zn166  1  0.06244262  0.80504365  0.56106255  1
  Zn  Zn167  1  0.56381438  0.31656386  0.06540262  1
  Zn  Zn168  1  0.55921527  0.30826741  0.56287458  1
  Zn  Zn169  1  0.56140181  0.81739016  0.06535011  1
  Zn  Zn170  1  0.56331612  0.81147916  0.56726021  1
  O  O171  1  0.11069466  0.12955837  0.11810361  1
  O  O172  1  0.11260508  0.13179640  0.62560861  1
  O  O173  1  0.12568913  0.61411405  0.11641492  1
  O  O174  1  0.11969586  0.61590670  0.61729604  1
  O  O175  1  0.62915255  0.11415685  0.12815340  1
  O  O176  1  0.62760583  0.10921611  0.63173312  1
  O  O177  1  0.61168949  0.62727544  0.13010744  1
  O  O178  1  0.61906323  0.61654718  0.62058447  1
  O  O179  1  0.36727354  0.38679989  0.38283268  1
  O  O180  1  0.37764949  0.38227863  0.87981708  1
  O  O181  1  0.38218632  0.88927223  0.36995820  1
  O  O182  1  0.37807743  0.87170710  0.89120461  1
  O  O183  1  0.87443218  0.38126669  0.38235518  1
  O  O184  1  0.88534871  0.38431824  0.87359917  1
  O  O185  1  0.87378093  0.87623228  0.39238438  1
  O  O186  1  0.88177555  0.88400489  0.88393663  1
  O  O187  1  0.25914161  0.00894560  0.36074296  1
  O  O188  1  0.24938200  0.00801754  0.86699412  1
  O  O189  1  0.25384760  0.49682643  0.36247726  1
  O  O190  1  0.25734514  0.49243919  0.86625847  1
  O  O191  1  0.75061844  0.00885543  0.37058143  1
  O  O192  1  0.75938636  0.00987268  0.88279439  1
  O  O193  1  0.75936303  0.50722803  0.37171174  1
  O  O194  1  0.75928042  0.49877354  0.86276122  1
  O  O195  1  0.23995489  0.49530464  0.13339952  1
  O  O196  1  0.24673652  0.49133751  0.63185152  1
  O  O197  1  0.25432085  1.00151134  0.13470903  1
  O  O198  1  0.26525565  0.99715251  0.65078400  1
  O  O199  1  0.75805050  0.50215270  0.13983499  1
  O  O200  1  0.74399963  0.50078653  0.63684621  1
  O  O201  1  0.74619866  0.99428836  0.13253085  1
  O  O202  1  0.73361186  0.99295198  0.61853077  1
  O  O203  1  0.01002888  0.38092369  0.25146285  1
  O  O204  1  0.00052691  0.35991254  0.75881307  1
  O  O205  1  0.01366059  0.87150393  0.25124206  1
  O  O206  1  0.00777946  0.86813149  0.75404874  1
  O  O207  1  0.49810280  0.36972397  0.25277888  1
  O  O208  1  0.50384920  0.36511721  0.75562592  1
  O  O209  1  0.50390439  0.86947787  0.25861931  1
  O  O210  1  0.50655570  0.85808556  0.74618654  1
  O  O211  1  0.49647401  0.13670339  0.24493013  1
  O  O212  1  0.49676257  0.13754746  0.75542511  1
  O  O213  1  0.49465404  0.63229061  0.24869371  1
  O  O214  1  0.48982200  0.63144118  0.74337988  1
  O  O215  1  0.99188485  0.12439087  0.23720399  1
  O  O216  1  0.99883868  0.13674785  0.74785150  1
  O  O217  1  0.99210928  0.63147005  0.25326197  1
  O  O218  1  0.99767830  0.63017478  0.74377829  1
  O  O219  1  0.36519990  0.25743063  0.00443323  1
  O  O220  1  0.36950027  0.25827788  0.50448067  1
  O  O221  1  0.37367856  0.75756021  0.00182807  1
  O  O222  1  0.36642521  0.73710268  0.50848136  1
  O  O223  1  0.86917776  0.25147689  0.00691329  1
  O  O224  1  0.86700371  0.25598067  0.50727939  1
  O  O225  1  0.87420861  0.76755530  0.01651201  1
  O  O226  1  0.86512524  0.75651952  0.50143553  1
  O  O227  1  0.13385427  0.25925453  0.48763154  1
  O  O228  1  0.12826070  0.24359386  0.99023432  1
  O  O229  1  0.13309191  0.73973551  0.49394331  1
  O  O230  1  0.13313680  0.74090033  0.99896765  1
  O  O231  1  0.63535799  0.25652203  0.49369352  1
  O  O232  1  0.62987204  0.25299543  0.98719829  1
  O  O233  1  0.63675846  0.74535797  0.49958862  1
  O  O234  1  0.63125375  0.75487861  1.00890925  1
  O  O235  1  0.48376667  0.24983509  0.11694736  1
  O  O236  1  0.48815402  0.25239767  0.63358620  1
  O  O237  1  0.49726125  0.74547894  0.14100818  1
  O  O238  1  0.49162228  0.74061501  0.62807182  1
  O  O239  1  0.98747535  0.24545303  0.12031413  1
  O  O240  1  0.99472972  0.24500020  0.63296585  1
  O  O241  1  0.98723032  0.75555484  0.12606095  1
  O  O242  1  0.99991938  0.73853804  0.63176804  1
  O  O243  1  0.01135588  0.24737319  0.37852977  1
  O  O244  1  0.00524520  0.25397389  0.87126922  1
  O  O245  1  0.01629196  0.75730107  0.37716215  1
  O  O246  1  -0.00345141  0.76141950  0.86650143  1
  O  O247  1  0.51637786  0.24481907  0.38246283  1
  O  O248  1  0.50627957  0.25393619  0.87108479  1
  O  O249  1  0.49961539  0.75734230  0.36812262  1
  O  O250  1  0.49352293  0.74552719  0.85919138  1
  O  O251  1  0.25831804  0.14526445  0.48557361  1
  O  O252  1  0.24203032  0.12892581  0.99424013  1
  O  O253  1  0.23784093  0.62609195  0.50255409  1
  O  O254  1  0.24284182  0.63065317  1.00466473  1
  O  O255  1  0.75583457  0.13613050  0.49256706  1
  O  O256  1  0.75548913  0.13747098  0.98885504  1
  O  O257  1  0.74668028  0.63217147  0.49566066  1
  O  O258  1  0.74057281  0.63018063  0.99183643  1
  O  O259  1  0.25098110  0.37026268  0.00586315  1
  O  O260  1  0.25917643  0.36828361  0.50471120  1
  O  O261  1  0.26240382  0.86905970  0.00008058  1
  O  O262  1  0.24891931  0.85565583  0.49783939  1
  O  O263  1  0.75431320  0.36141832  -0.00427004  1
  O  O264  1  0.76191785  0.36676903  0.49975843  1
  O  O265  1  0.75950879  0.87809850  0.01152112  1
  O  O266  1  0.75462889  0.86875316  0.50833853  1
  O  O267  1  0.12816813  0.49654674  0.24438366  1
  O  O268  1  0.13823021  0.50504026  0.74598516  1
  O  O269  1  0.13363203  0.98717757  0.25256402  1
  O  O270  1  0.13819435  0.98805116  0.75392185  1
  O  O271  1  0.64141624  0.50220809  0.25839280  1
  O  O272  1  0.63026836  0.49011550  0.74577473  1
  O  O273  1  0.63470454  0.99988983  0.24690674  1
  O  O274  1  0.61058026  0.98808611  0.73198637  1
  O  O275  1  0.36960041  0.00215891  0.25591623  1
  O  O276  1  0.37049972  -0.00359113  0.76050887  1
  O  O277  1  0.36601755  0.50392448  0.25566662  1
  O  O278  1  0.36715015  0.50499659  0.75560855  1
  O  O279  1  0.86360344  0.01106923  0.25190720  1
  O  O280  1  0.87485329  -0.00324769  0.76307750  1
  O  O281  1  0.86631030  0.50191815  0.25974631  1
  O  O282  1  0.86845004  0.49901833  0.75200910  1
  O  O283  1  0.12117569  0.36711431  0.36517789  1
  O  O284  1  0.11389091  0.36558735  0.87946192  1
  O  O285  1  0.12789743  0.86686587  0.36177410  1
  O  O286  1  0.11794851  0.87008298  0.86674188  1
  O  O287  1  0.62918084  0.36291969  0.37494396  1
  O  O288  1  0.61878496  0.36631297  0.86356688  1
  O  O289  1  0.61635382  0.87702242  0.37108479  1
  O  O290  1  0.63900351  0.88045426  0.85601615  1
  O  O291  1  0.37234708  0.13741153  0.12442467  1
  O  O292  1  0.36265936  0.13538295  0.62399356  1
  O  O293  1  0.38510156  0.62677300  0.13967868  1
  O  O294  1  0.38123510  0.62553443  0.63357179  1
  O  O295  1  0.88474331  0.12975419  0.13041186  1
  O  O296  1  0.88263068  0.13553935  0.62757031  1
  O  O297  1  0.86812747  0.64430657  0.12247717  1
  O  O298  1  0.88446549  0.62321220  0.62991979  1
  O  O299  1  0.25382110  0.25665436  0.11866508  1
  O  O300  1  0.25207627  0.25522348  0.61815588  1
  O  O301  1  0.25434033  0.75162290  0.11073753  1
  O  O302  1  0.26103049  0.74159598  0.61551622  1
  O  O303  1  0.76067559  0.24531497  0.11575505  1
  O  O304  1  0.75754170  0.24388053  0.61814720  1
  O  O305  1  0.75827937  0.76699001  0.13188740  1
  O  O306  1  0.75166494  0.75572008  0.61679089  1
  O  O307  1  0.24188050  0.24621192  0.37842756  1
  O  O308  1  0.24130539  0.24457170  0.87842148  1
  O  O309  1  0.24041484  0.74791576  0.38179203  1
  O  O310  1  0.25023752  0.74921399  0.88898523  1
  O  O311  1  0.74191990  0.24550507  0.38515709  1
  O  O312  1  0.74348057  0.24412246  0.88040590  1
  O  O313  1  0.75048897  0.74311333  0.38182263  1
  O  O314  1  0.79249626  0.73579958  0.88299407  1
  O  O315  1  0.00750904  0.12519701  0.01337692  1
  O  O316  1  -0.00099192  0.12633779  0.51378156  1
  O  O317  1  0.00595882  0.61301503  -0.00579790  1
  O  O318  1  0.00810223  0.61736761  0.50504800  1
  O  O319  1  0.49511778  0.10930101  0.00460355  1
  O  O320  1  0.49843520  0.11544824  0.50208941  1
  O  O321  1  0.50043648  0.61715899  0.01072183  1
  O  O322  1  0.50717582  0.61853689  0.50387031  1
  O  O323  1  0.48536199  0.37984440  0.50564871  1
  O  O324  1  0.49176766  0.38193912  0.99442859  1
  O  O325  1  0.50168212  0.87497134  0.48959863  1
  O  O326  1  0.48967659  0.88642078  1.00580287  1
  O  O327  1  0.98800940  0.37935997  0.49790242  1
  O  O328  1  0.99719898  0.38484158  0.99025337  1
  O  O329  1  0.98439908  0.87006275  0.50569349  1
  O  O330  1  0.99508018  0.87364913  0.99100628  1
  O  O331  1  0.49033353  0.50306118  0.38312241  1
  O  O332  1  0.48872443  0.49185258  0.88021613  1
  O  O333  1  0.49552511  0.99737071  0.38544878  1
  O  O334  1  0.50840492  1.00267713  0.88909828  1
  O  O335  1  0.98663448  0.49792405  0.38201711  1
  O  O336  1  0.99684088  0.49010908  0.87908157  1
  O  O337  1  0.99630480  0.99478707  0.37461079  1
  O  O338  1  0.99466239  0.98811867  0.86861317  1
  O  O339  1  -0.00281542  0.01167016  0.12694193  1
  O  O340  1  0.00005250  0.01610252  0.63201931  1
  O  O341  1  0.00690357  0.49549685  0.11483217  1
  O  O342  1  0.00688176  0.50086498  0.62097687  1
  O  O343  1  0.51018482  0.00321875  0.12252864  1
  O  O344  1  0.50256519  -0.00302039  0.61272810  1
  O  O345  1  0.49298306  0.50864047  0.11454421  1
  O  O346  1  0.50334254  0.50454935  0.61942846  1
  O  O347  1  0.23789926  0.38517789  0.24340082  1
  O  O348  1  0.25441241  0.38311081  0.74033299  1
  O  O349  1  0.24195235  0.88303597  0.24655278  1
  O  O350  1  0.24571152  0.88286001  0.76098522  1
  O  O351  1  0.75021339  0.39201654  0.25249574  1
  O  O352  1  0.73990028  0.38060337  0.75371017  1
  O  O353  1  0.74644974  0.88633798  0.24853272  1
  O  O354  1  0.74451290  0.86770887  0.73489262  1
  O  O355  1  0.25114914  0.11855423  0.25416340  1
  O  O356  1  0.25374704  0.11174817  0.75948162  1
  O  O357  1  0.25726399  0.61605192  0.24284531  1
  O  O358  1  0.26159689  0.61669624  0.74530635  1
  O  O359  1  0.75662912  0.12041820  0.25760453  1
  O  O360  1  0.75851961  0.12985120  0.76565046  1
  O  O361  1  0.75443888  0.61822305  0.25824450  1
  O  O362  1  0.75868192  0.61610943  0.74980999  1
  O  O363  1  0.36509668  0.11756428  0.37041852  1
  O  O364  1  0.36053797  0.13410614  0.87500124  1
  O  O365  1  0.37694024  0.61220879  0.36212050  1
  O  O366  1  0.37912858  0.61189998  0.86635830  1
  O  O367  1  0.86573720  0.12842276  0.36680429  1
  O  O368  1  0.87203970  0.11531238  0.87481587  1
  O  O369  1  0.86477785  0.61806991  0.38040655  1
  O  O370  1  0.88709870  0.60559286  0.86252520  1
  O  O371  1  0.12697712  0.38218180  0.12983992  1
  O  O372  1  0.13796697  0.37921362  0.61841089  1
  O  O373  1  0.12940695  0.87026975  0.13787631  1
  O  O374  1  0.12523914  0.86090074  0.64113347  1
  O  O375  1  0.63392537  0.36904958  0.13150993  1
  O  O376  1  0.61827156  0.37768903  0.63771118  1
  O  O377  1  0.63309583  0.88684964  0.13610286  1
  O  O378  1  0.63125835  0.88025592  0.63059997  1
  O  O379  1  0.12990971  0.26093961  0.25765485  1
  O  O380  1  0.12067461  0.24423257  0.76420370  1
  O  O381  1  0.12890186  0.75847106  0.25528148  1
  O  O382  1  0.11611818  0.75010622  0.75441276  1
  O  O383  1  0.62772863  0.25285117  0.26759434  1
  O  O384  1  0.61803789  0.25442907  0.75531559  1
  O  O385  1  0.61732906  0.75828484  0.25495087  1
  O  O386  1  0.61139874  0.75497625  0.74328236  1
  O  O387  1  0.36997555  0.25106361  0.23856246  1
  O  O388  1  0.38114091  0.24831549  0.74027677  1
  O  O389  1  0.38026644  0.74273537  0.25413735  1
  O  O390  1  0.38099035  0.74200803  0.74301337  1
  O  O391  1  0.86764990  0.24032340  0.24233710  1
  O  O392  1  0.88313517  0.24968485  0.74297734  1
  O  O393  1  0.87683791  0.75486915  0.23685235  1
  O  O394  1  0.88955776  0.74589536  0.74412282  1
  O  O395  1  0.37700833  0.49442968  0.49166948  1
  O  O396  1  0.37724511  0.49759410  0.99283701  1
  O  O397  1  0.38605311  1.00395892  0.49123661  1
  O  O398  1  0.38738887  0.98967789  1.00104963  1
  O  O399  1  0.87613692  0.49146485  0.49546423  1
  O  O400  1  0.87962915  0.50040297  0.99126202  1
  O  O401  1  0.86723096  0.98689946  0.50232042  1
  O  O402  1  0.87468874  0.99189556  0.99342044  1
  O  O403  1  0.12997481  0.00889938  -0.00370133  1
  O  O404  1  0.18998505  0.00402996  0.51274162  1
  O  O405  1  0.11939793  0.50589231  0.00772606  1
  O  O406  1  0.12121311  0.50336234  0.50236178  1
  O  O407  1  0.61184884  -0.00752084  0.01031893  1
  O  O408  1  0.60882939  -0.00363741  0.51287455  1
  O  O409  1  0.61209838  0.49699116  -0.00807257  1
  O  O410  1  0.62212941  0.50162331  0.50603486  1
  O  O411  1  0.36386265  0.37115969  0.11743036  1
  O  O412  1  0.36292813  0.36886308  0.61723224  1
  O  O413  1  0.37221978  0.87204243  0.11427402  1
  O  O414  1  0.37686976  0.86046524  0.62701602  1
  O  O415  1  0.86857666  0.36642211  0.12387161  1
  O  O416  1  0.87952255  0.36036959  0.61811850  1
  O  O417  1  0.86987483  0.87563017  0.12253454  1
  O  O418  1  0.86654586  0.87492959  0.61662878  1
  O  O419  1  0.13691127  0.13262379  0.36608862  1
  O  O420  1  0.13026177  0.13008152  0.88308194  1
  O  O421  1  0.12256449  0.63115114  0.38341978  1
  O  O422  1  0.12404630  0.62386502  0.88811119  1
  O  O423  1  0.63706103  0.13424876  0.37388949  1
  O  O424  1  0.63467568  0.13349807  0.86943933  1
  O  O425  1  0.63801842  0.62641076  0.38304374  1
  O  O426  1  0.62202801  0.62772964  0.87251693  1
