# generated using pymatgen
data_V85Zn86O256
_symmetry_space_group_name_H-M   'P 1'
_cell_length_a   16.94959812
_cell_length_b   16.95356050
_cell_length_c   16.95050944
_cell_angle_alpha   89.96037338
_cell_angle_beta   90.00973034
_cell_angle_gamma   89.95708315
_symmetry_Int_Tables_number   1
_chemical_formula_structural   V85Zn86O256
_chemical_formula_sum   'V85 Zn86 O256'
_cell_volume   4870.82861650
_cell_formula_units_Z   1
loop_
 _symmetry_equiv_pos_site_id
 _symmetry_equiv_pos_as_xyz
  1  'x, y, z'
loop_
 _atom_site_type_symbol
 _atom_site_label
 _atom_site_symmetry_multiplicity
 _atom_site_fract_x
 _atom_site_fract_y
 _atom_site_fract_z
 _atom_site_occupancy
  V  V0  1  0.24868246  0.75232989  0.00033245  1
  V  V1  1  0.50592566  0.62798779  0.11020724  1
  V  V2  1  0.76504210  0.50456025  0.25550120  1
  V  V3  1  0.87837340  0.24875576  0.62976063  1
  V  V4  1  0.62098804  0.12522971  -0.00661399  1
  V  V5  1  0.12341022  0.62503506  -0.00108487  1
  V  V6  1  0.87757881  0.37344894  -0.00106604  1
  V  V7  1  0.12305212  0.00671243  0.13634938  1
  V  V8  1  0.62700020  0.37518855  0.25130613  1
  V  V9  1  0.75013934  0.00239604  0.25137945  1
  V  V10  1  0.87513151  0.87955610  -0.00074887  1
  V  V11  1  -0.05414627  0.55271774  0.44080134  1
  V  V12  1  0.74594125  0.38871614  0.62850273  1
  V  V13  1  0.49565608  0.37696500  0.36678651  1
  V  V14  1  0.13411641  0.49442938  0.12144318  1
  V  V15  1  0.74727657  0.12455544  0.38076689  1
  V  V16  1  -0.00006382  0.49856048  -0.00199108  1
  V  V17  1  0.87403205  0.50259776  0.86570753  1
  V  V18  1  0.12314257  0.74874898  0.87377029  1
  V  V19  1  0.75226437  0.37428958  0.12639723  1
  V  V20  1  0.87613007  0.74580154  0.12644237  1
  V  V21  1  0.62508542  0.00554765  0.62277504  1
  V  V22  1  0.37752293  0.74115423  0.62457792  1
  V  V23  1  0.37599371  0.38183841  0.49421674  1
  V  V24  1  0.62786403  0.50946399  0.11737106  1
  V  V25  1  0.49488751  0.00705589  0.00417579  1
  V  V26  1  0.87777237  0.37348785  0.49779669  1
  V  V27  1  0.36592030  0.00532768  0.87502854  1
  V  V28  1  -0.00384075  0.61958128  0.62527933  1
  V  V29  1  0.00775220  0.76059699  0.24483821  1
  V  V30  1  0.87970892  0.24087978  0.12535550  1
  V  V31  1  0.88014986  0.13066673  0.75769980  1
  V  V32  1  0.00074002  0.24686635  0.24672813  1
  V  V33  1  0.37161953  0.12938126  0.75309472  1
  V  V34  1  0.74959840  0.87550032  0.12413935  1
  V  V35  1  0.50232938  0.24014551  0.23887354  1
  V  V36  1  0.13809562  0.12359122  -0.01672094  1
  V  V37  1  0.74647448  0.24672522  -0.00258109  1
  V  V38  1  0.61898393  0.00715357  0.12760521  1
  V  V39  1  0.24791732  0.26164611  -0.00745064  1
  V  V40  1  0.62696692  0.87785118  0.74876670  1
  V  V41  1  0.36760220  0.11961543  0.24373549  1
  V  V42  1  0.50998308  0.25429595  0.76934883  1
  V  V43  1  0.25145212  0.62114206  0.87241329  1
  V  V44  1  -0.00398119  0.37392014  0.37480933  1
  V  V45  1  0.49803565  0.00739283  0.49968774  1
  V  V46  1  0.12752175  0.24920311  0.37461988  1
  V  V47  1  -0.00077007  0.62199776  0.13172751  1
  V  V48  1  0.49676349  0.87577167  0.87558736  1
  V  V49  1  -0.00195878  0.36224321  0.86779418  1
  V  V50  1  0.62374731  0.87184968  0.25323148  1
  V  V51  1  0.12609173  0.62002144  0.49697188  1
  V  V52  1  0.37007028  0.87812046  0.00106110  1
  V  V53  1  0.75441337  0.00220424  0.75832788  1
  V  V54  1  0.50409354  0.74572989  0.25567789  1
  V  V55  1  0.25330767  0.24873235  0.49728208  1
  V  V56  1  0.62393580  0.63024267  0.48232504  1
  V  V57  1  0.25290761  0.87400517  0.62715765  1
  V  V58  1  0.25986878  0.61792907  0.37248708  1
  V  V59  1  0.55877788  0.56653827  0.67263865  1
  V  V60  1  0.24313163  0.87893549  0.14039202  1
  V  V61  1  0.50142156  0.87341542  0.37875881  1
  V  V62  1  0.00046138  0.00889043  0.00117382  1
  V  V63  1  0.25070041  0.74686366  0.50001948  1
  V  V64  1  0.12438162  0.87505807  0.74932348  1
  V  V65  1  -0.00572043  0.88041622  0.87482578  1
  V  V66  1  0.38598250  0.48895201  0.88127847  1
  V  V67  1  0.12589413  0.00208358  0.62205260  1
  V  V68  1  0.74319874  0.24916226  0.50182853  1
  V  V69  1  0.11941655  0.35991904  0.74938738  1
  V  V70  1  0.87914162  0.12057644  0.25296740  1
  V  V71  1  0.37928613  0.25262659  0.62570227  1
  V  V72  1  -0.00969841  -0.00552844  0.50324891  1
  V  V73  1  0.24860184  0.37607194  0.62544807  1
  V  V74  1  -0.00431939  0.74850843  0.74939482  1
  V  V75  1  0.13030476  0.37281652  0.24327507  1
  V  V76  1  0.37484546  0.74948267  0.12748810  1
  V  V77  1  0.50512805  0.13236138  0.62133028  1
  V  V78  1  0.74642999  0.62666613  0.87934330  1
  V  V79  1  0.12161232  0.49821386  0.62274962  1
  V  V80  1  0.86973043  0.75757107  0.61724289  1
  V  V81  1  0.26433383  0.49334733  0.24859827  1
  V  V82  1  0.50543773  0.50145184  0.49319342  1
  V  V83  1  0.12774008  0.75470264  0.36922908  1
  V  V84  1  0.50133722  0.75323144  0.74494563  1
  Zn  Zn85  1  0.24692087  0.00709066  0.75233968  1
  Zn  Zn86  1  0.76120284  0.62213678  0.37201819  1
  Zn  Zn87  1  0.74001840  0.76542098  0.47823937  1
  Zn  Zn88  1  0.62156935  0.74813967  0.88237953  1
  Zn  Zn89  1  0.24998814  0.49791202  0.75060449  1
  Zn  Zn90  1  0.73994249  0.74628243  0.00512778  1
  Zn  Zn91  1  0.36199132  0.25539514  0.12604878  1
  Zn  Zn92  1  0.38325317  0.61693708  0.24975300  1
  Zn  Zn93  1  0.37653372  0.87507038  0.50056574  1
  Zn  Zn94  1  0.61962852  0.38702286  0.75339070  1
  Zn  Zn95  1  0.74978367  0.11985490  0.87655311  1
  Zn  Zn96  1  0.36979882  -0.00084690  0.37090199  1
  Zn  Zn97  1  0.86937781  -0.01975527  0.38391914  1
  Zn  Zn98  1  0.00624525  0.88035852  0.37120865  1
  Zn  Zn99  1  0.86800570  0.62338918  0.74802037  1
  Zn  Zn100  1  0.37632691  0.61964298  0.74923434  1
  Zn  Zn101  1  0.24922811  0.11615031  0.37132102  1
  Zn  Zn102  1  0.75635226  0.88168598  0.61898459  1
  Zn  Zn103  1  0.12338068  0.12554034  0.50066504  1
  Zn  Zn104  1  0.62230855  0.24549959  0.37840773  1
  Zn  Zn105  1  0.37701090  0.37880998  0.01250914  1
  Zn  Zn106  1  0.00198206  0.12956018  0.62644773  1
  Zn  Zn107  1  0.18662479  0.18437634  0.18053652  1
  Zn  Zn108  1  0.19039418  0.18745176  0.68492520  1
  Zn  Zn109  1  0.19022245  0.68284128  0.18729395  1
  Zn  Zn110  1  0.18571304  0.68543465  0.68715871  1
  Zn  Zn111  1  0.68857303  0.18638724  0.18662529  1
  Zn  Zn112  1  0.69072707  0.19005828  0.68879824  1
  Zn  Zn113  1  0.69081665  0.68647479  0.19209652  1
  Zn  Zn114  1  0.69266624  0.68935288  0.69598049  1
  Zn  Zn115  1  0.31659495  0.31057852  0.30747956  1
  Zn  Zn116  1  0.30703025  0.30930245  0.81595202  1
  Zn  Zn117  1  0.31812852  0.81010014  0.31486536  1
  Zn  Zn118  1  0.31391948  0.81056650  0.81100677  1
  Zn  Zn119  1  0.81296660  0.31018528  0.31354306  1
  Zn  Zn120  1  0.77610940  0.33319844  0.83003066  1
  Zn  Zn121  1  0.81551800  0.81603541  0.30145332  1
  Zn  Zn122  1  0.81121622  0.81115364  0.81226457  1
  Zn  Zn123  1  0.18631257  0.43659043  0.43490745  1
  Zn  Zn124  1  0.18275677  0.43564313  0.92995919  1
  Zn  Zn125  1  0.18916756  0.93673989  0.43993594  1
  Zn  Zn126  1  0.18430585  0.93788862  0.93952613  1
  Zn  Zn127  1  0.68834153  0.43936871  0.43676215  1
  Zn  Zn128  1  0.68663742  0.44002445  0.93680897  1
  Zn  Zn129  1  0.68318979  0.94246936  0.43944776  1
  Zn  Zn130  1  0.68233543  0.93007726  0.93997604  1
  Zn  Zn131  1  0.30847184  0.06560168  0.07005527  1
  Zn  Zn132  1  0.31491128  0.06378835  0.56223766  1
  Zn  Zn133  1  0.31496615  0.56453643  0.06221930  1
  Zn  Zn134  1  0.31390038  0.55932824  0.56146408  1
  Zn  Zn135  1  0.81096516  0.06045155  0.06396381  1
  Zn  Zn136  1  0.81095166  0.06532867  0.56701707  1
  Zn  Zn137  1  0.81358324  0.56212774  0.06026494  1
  Zn  Zn138  1  0.80627975  0.57075025  0.56346745  1
  Zn  Zn139  1  0.45561088  0.42181676  0.14928146  1
  Zn  Zn140  1  0.43220316  0.43154978  0.69437496  1
  Zn  Zn141  1  0.43648655  0.93634930  0.18727131  1
  Zn  Zn142  1  0.43611517  0.93951866  0.68654245  1
  Zn  Zn143  1  0.94260156  0.43298957  0.18440463  1
  Zn  Zn144  1  0.93544296  0.43427827  0.68560496  1
  Zn  Zn145  1  0.93980344  0.93894524  0.18541841  1
  Zn  Zn146  1  0.93653387  0.94136816  0.68855416  1
  Zn  Zn147  1  0.06017386  0.06421022  0.31849836  1
  Zn  Zn148  1  0.05811235  0.06036996  0.81039474  1
  Zn  Zn149  1  0.07453676  0.56598378  0.30547979  1
  Zn  Zn150  1  0.06128950  0.55716344  0.80911071  1
  Zn  Zn151  1  0.56205938  0.06263364  0.31619893  1
  Zn  Zn152  1  0.55687300  0.06377685  0.81233840  1
  Zn  Zn153  1  0.56467708  0.55679884  0.30558922  1
  Zn  Zn154  1  0.56215894  0.56446895  0.83771926  1
  Zn  Zn155  1  0.43669009  0.18967772  0.43118118  1
  Zn  Zn156  1  0.43038095  0.18894971  0.94108685  1
  Zn  Zn157  1  0.43952542  0.68702975  0.43794672  1
  Zn  Zn158  1  0.43326455  0.68857763  0.93463863  1
  Zn  Zn159  1  0.93570382  0.18264424  0.44013213  1
  Zn  Zn160  1  0.93440557  0.18446689  0.93664041  1
  Zn  Zn161  1  0.90193011  0.74114339  0.40602368  1
  Zn  Zn162  1  0.93393348  0.68853168  0.94087073  1
  Zn  Zn163  1  0.06491098  0.30614262  0.05735146  1
  Zn  Zn164  1  0.06012035  0.31295931  0.56027819  1
  Zn  Zn165  1  0.06403301  0.81633572  0.06231866  1
  Zn  Zn166  1  0.06314359  0.81027192  0.56081377  1
  Zn  Zn167  1  0.56331068  0.31257480  0.05453995  1
  Zn  Zn168  1  0.56536587  0.31883550  0.56525305  1
  Zn  Zn169  1  0.55946198  0.81736284  0.06608111  1
  Zn  Zn170  1  0.56705328  0.81328597  0.56255546  1
  O  O171  1  0.12711433  0.10891748  0.11397790  1
  O  O172  1  0.12382711  0.11596008  0.62384760  1
  O  O173  1  0.11998385  0.61610297  0.11738419  1
  O  O174  1  0.11618407  0.61961996  0.61762883  1
  O  O175  1  0.62968139  0.11161342  0.11823955  1
  O  O176  1  0.61295164  0.12064444  0.63072042  1
  O  O177  1  0.62457316  0.61724232  0.12599498  1
  O  O178  1  0.62573805  0.62332567  0.62143954  1
  O  O179  1  0.38398291  0.37122671  0.38164338  1
  O  O180  1  0.36769918  0.38766065  0.87850580  1
  O  O181  1  0.38881458  0.87725975  0.37693369  1
  O  O182  1  0.37897143  0.88040747  0.88058679  1
  O  O183  1  0.88816498  0.37127046  0.37828627  1
  O  O184  1  0.87558255  0.38430717  0.88040089  1
  O  O185  1  0.88987883  0.86562556  0.37274137  1
  O  O186  1  0.88369831  0.86933064  0.88467019  1
  O  O187  1  0.25699491  0.00359001  0.38644031  1
  O  O188  1  0.26245229  -0.00957323  0.87121565  1
  O  O189  1  0.24402024  0.50670035  0.36301160  1
  O  O190  1  0.24643868  0.51290844  0.87210664  1
  O  O191  1  0.75256827  0.00594512  0.37026508  1
  O  O192  1  0.74303900  -0.00302303  0.86135066  1
  O  O193  1  0.75219083  0.49974696  0.35996530  1
  O  O194  1  0.76383882  0.51533444  0.88572253  1
  O  O195  1  0.23831799  0.50692543  0.13047476  1
  O  O196  1  0.24240779  0.49313031  0.62622605  1
  O  O197  1  0.23807863  0.98788272  0.12393368  1
  O  O198  1  0.24459745  0.99156074  0.62577959  1
  O  O199  1  0.74688290  0.49400316  0.13224214  1
  O  O200  1  0.75204245  0.48742600  0.61743855  1
  O  O201  1  0.74192619  0.99377289  0.13276508  1
  O  O202  1  0.73937547  1.00235974  0.63414937  1
  O  O203  1  0.01035089  0.36922766  0.25645540  1
  O  O204  1  0.00613733  0.37727431  0.75563979  1
  O  O205  1  0.00742562  0.86365536  0.24427924  1
  O  O206  1  0.00268370  0.86988175  0.75694837  1
  O  O207  1  0.50963159  0.36746859  0.25107422  1
  O  O208  1  0.50321481  0.35836872  0.74724848  1
  O  O209  1  0.50597526  0.86843378  0.25548783  1
  O  O210  1  0.50377729  0.86944664  0.75398996  1
  O  O211  1  0.49669725  0.13732638  0.25557447  1
  O  O212  1  0.49199106  0.13681586  0.74388612  1
  O  O213  1  0.50274597  0.63425478  0.24597217  1
  O  O214  1  0.50593672  0.62849295  0.74339261  1
  O  O215  1  0.98638014  0.13029583  0.25658626  1
  O  O216  1  0.98421852  0.11988060  0.74638769  1
  O  O217  1  1.00793861  0.63029411  0.23486997  1
  O  O218  1  0.99957304  0.63302140  0.74093243  1
  O  O219  1  0.36066400  0.25424875  0.00141310  1
  O  O220  1  0.37036368  0.26122227  0.50247725  1
  O  O221  1  0.36836815  0.75710054  0.00660254  1
  O  O222  1  0.37076594  0.75161337  0.50794324  1
  O  O223  1  0.87023264  0.25108055  0.01034993  1
  O  O224  1  0.86709827  0.25805823  0.50429094  1
  O  O225  1  0.87897254  0.76392586  0.01195471  1
  O  O226  1  0.87136769  0.74716335  0.51729046  1
  O  O227  1  0.13400932  0.25263020  0.49165686  1
  O  O228  1  0.13050267  0.23120924  0.99951526  1
  O  O229  1  0.13121248  0.73941408  0.49455236  1
  O  O230  1  0.12878815  0.74599138  0.99315652  1
  O  O231  1  0.63945641  0.25827495  0.49873268  1
  O  O232  1  0.63370028  0.23770720  1.01086085  1
  O  O233  1  0.62328936  0.73378182  0.50084187  1
  O  O234  1  0.63135255  0.77977129  0.99166730  1
  O  O235  1  0.50249026  0.24704031  0.13907755  1
  O  O236  1  0.49570994  0.24563053  0.62332486  1
  O  O237  1  0.49651302  0.74562232  0.13417742  1
  O  O238  1  0.49256154  0.75595001  0.63606372  1
  O  O239  1  0.98924528  0.25445372  0.13145165  1
  O  O240  1  0.98329691  0.25032526  0.61829400  1
  O  O241  1  0.99967315  0.74235855  0.12709322  1
  O  O242  1  0.99341603  0.74071966  0.62926397  1
  O  O243  1  0.00657579  0.25647595  0.36964071  1
  O  O244  1  -0.00862269  0.26363815  0.87808993  1
  O  O245  1  0.00997135  0.74645279  0.35946063  1
  O  O246  1  0.00333762  0.75608774  0.86715946  1
  O  O247  1  0.50441381  0.26184930  0.36652115  1
  O  O248  1  0.49962316  0.24849343  0.86797410  1
  O  O249  1  0.49729755  0.75796135  0.36480600  1
  O  O250  1  0.49822204  0.75541139  0.86239970  1
  O  O251  1  0.25104266  0.14067159  0.50144745  1
  O  O252  1  0.23934415  0.11728626  0.99269611  1
  O  O253  1  0.24766636  0.62712362  0.49189402  1
  O  O254  1  0.24307153  0.63305118  0.99318313  1
  O  O255  1  0.75598652  0.13525470  0.49270331  1
  O  O256  1  0.74110950  0.12815593  1.00096632  1
  O  O257  1  0.73241572  0.62201009  0.49324789  1
  O  O258  1  0.76228872  0.63273539  0.98700768  1
  O  O259  1  0.24036551  0.36344524  -0.00322461  1
  O  O260  1  0.25782055  0.36897235  0.50202609  1
  O  O261  1  0.25361088  0.86935519  0.00570559  1
  O  O262  1  0.25087778  0.86512375  0.51387584  1
  O  O263  1  0.75629810  0.36623782  0.01035050  1
  O  O264  1  0.76028153  0.37094099  0.50350182  1
  O  O265  1  0.76118354  0.88018499  0.00795854  1
  O  O266  1  0.73342553  0.87249690  0.50866330  1
  O  O267  1  0.13234074  0.49020362  0.23923854  1
  O  O268  1  0.12584186  0.49492774  0.73460375  1
  O  O269  1  0.11748076  1.00823175  0.23570520  1
  O  O270  1  0.12590924  0.99398175  0.73931985  1
  O  O271  1  0.63808634  0.49053116  0.24127572  1
  O  O272  1  0.60823685  0.50928604  0.74162080  1
  O  O273  1  0.62776122  0.99600766  0.24425052  1
  O  O274  1  0.62737205  0.99764124  0.74166145  1
  O  O275  1  0.38391204  0.01645272  0.24978364  1
  O  O276  1  0.37577752  0.00946698  0.75812905  1
  O  O277  1  0.36429783  0.49768092  0.24204782  1
  O  O278  1  0.37165433  0.50094792  0.76362846  1
  O  O279  1  0.87056553  0.00577107  0.25113784  1
  O  O280  1  0.86404423  0.01352171  0.74171808  1
  O  O281  1  0.86312529  0.49127225  0.24378842  1
  O  O282  1  0.88155441  0.50250951  0.76260421  1
  O  O283  1  0.11510840  0.36647182  0.36946963  1
  O  O284  1  0.11104291  0.37992058  0.86005897  1
  O  O285  1  0.12520888  0.85823021  0.38178078  1
  O  O286  1  0.11797914  0.86786895  0.86875416  1
  O  O287  1  0.62135644  0.37385431  0.36244645  1
  O  O288  1  0.66773558  0.37260587  0.85366403  1
  O  O289  1  0.61381754  0.88298694  0.36246838  1
  O  O290  1  0.61411040  0.88145948  0.85997062  1
  O  O291  1  0.37477936  0.13031750  0.13879084  1
  O  O292  1  0.38608254  0.13225350  0.63129052  1
  O  O293  1  0.38570983  0.63177719  0.12605890  1
  O  O294  1  0.37035877  0.63683047  0.62733536  1
  O  O295  1  0.86946733  0.13352171  0.13447913  1
  O  O296  1  0.87525378  0.13418619  0.63366185  1
  O  O297  1  0.88724370  0.63325206  0.11692607  1
  O  O298  1  0.88101121  0.63277853  0.62758429  1
  O  O299  1  0.24609766  0.23672042  0.10029257  1
  O  O300  1  0.25746360  0.25756076  0.61577936  1
  O  O301  1  0.25226000  0.75903580  0.12106470  1
  O  O302  1  0.25629834  0.75449211  0.62203972  1
  O  O303  1  0.75843488  0.25608852  0.12107483  1
  O  O304  1  0.75939871  0.25568048  0.61703938  1
  O  O305  1  0.75994011  0.75569627  0.12644950  1
  O  O306  1  0.76548735  0.75111461  0.63185232  1
  O  O307  1  0.24276927  0.25215032  0.38155824  1
  O  O308  1  0.24970905  0.24496260  0.89124656  1
  O  O309  1  0.24608324  0.74263135  0.37900556  1
  O  O310  1  0.24482755  0.74089384  0.87840368  1
  O  O311  1  0.74950237  0.24348813  0.38367621  1
  O  O312  1  0.76076034  0.23993341  0.89552329  1
  O  O313  1  0.78294940  0.73569769  0.37621099  1
  O  O314  1  0.75113398  0.74031533  0.87915905  1
  O  O315  1  0.00382477  0.11187895  -0.00534413  1
  O  O316  1  0.00307801  0.11272276  0.50388365  1
  O  O317  1  0.00641996  0.61955362  0.00688229  1
  O  O318  1  0.00325804  0.61499160  0.50356898  1
  O  O319  1  0.50351119  0.11482735  -0.00141159  1
  O  O320  1  0.49506003  0.12060122  0.50806319  1
  O  O321  1  0.50132609  0.63453722  0.01057566  1
  O  O322  1  0.51127845  0.61622351  0.49447759  1
  O  O323  1  0.49617210  0.38149914  0.49104116  1
  O  O324  1  0.49000208  0.38941978  1.03772266  1
  O  O325  1  0.50277054  0.88166792  0.49237021  1
  O  O326  1  0.48852126  0.88737319  0.99698276  1
  O  O327  1  0.98779637  0.37388898  0.49082660  1
  O  O328  1  0.99637910  0.37891548  0.99255992  1
  O  O329  1  1.00650421  0.89093694  0.50191960  1
  O  O330  1  0.99566536  0.88172128  0.99240596  1
  O  O331  1  0.50351592  0.48675078  0.37818689  1
  O  O332  1  0.48570273  0.49712879  0.88110340  1
  O  O333  1  0.49809816  0.99460017  0.38511235  1
  O  O334  1  0.48884496  0.99458068  0.88259658  1
  O  O335  1  1.00534358  0.49661967  0.37489680  1
  O  O336  1  0.99215417  0.49584686  0.88172552  1
  O  O337  1  0.99915658  0.99866939  0.39059348  1
  O  O338  1  1.00359125  0.98624436  0.88263402  1
  O  O339  1  0.01555515  -0.00996334  0.11399446  1
  O  O340  1  0.00766004  0.00112027  0.61769241  1
  O  O341  1  0.00905211  0.50511811  0.11950598  1
  O  O342  1  0.00409629  0.51204787  0.62768661  1
  O  O343  1  0.50697441  -0.00524028  0.11600272  1
  O  O344  1  0.50479956  0.01046867  0.62173456  1
  O  O345  1  0.52078009  0.51622933  0.13808063  1
  O  O346  1  0.49746384  0.50275142  0.61880905  1
  O  O347  1  0.23644454  0.37878997  0.25809371  1
  O  O348  1  0.24006947  0.37445981  0.74248542  1
  O  O349  1  0.25285084  0.87000993  0.23833298  1
  O  O350  1  0.24470582  0.87339736  0.73988462  1
  O  O351  1  0.74660425  0.37885337  0.24459524  1
  O  O352  1  0.76621924  0.37750202  0.72635452  1
  O  O353  1  0.74114492  0.88140035  0.24521137  1
  O  O354  1  0.74246879  0.88235066  0.74594929  1
  O  O355  1  0.26416494  0.13193483  0.25109905  1
  O  O356  1  0.26675028  0.12509634  0.74275001  1
  O  O357  1  0.25345459  0.61286133  0.25577978  1
  O  O358  1  0.25044636  0.62437995  0.75928841  1
  O  O359  1  0.75972060  0.12105535  0.25568114  1
  O  O360  1  0.75652389  0.11857929  0.75349772  1
  O  O361  1  0.75353884  0.60897318  0.25017511  1
  O  O362  1  0.75351820  0.62721983  0.76973308  1
  O  O363  1  0.37334482  0.12535244  0.36077708  1
  O  O364  1  0.38056623  0.11575876  0.86600549  1
  O  O365  1  0.36356039  0.62769063  0.37212765  1
  O  O366  1  0.36639359  0.61704389  0.87256852  1
  O  O367  1  0.86447810  0.12228658  0.36763424  1
  O  O368  1  0.87292489  0.12247308  0.86142776  1
  O  O369  1  0.89119281  0.61563069  0.38605891  1
  O  O370  1  0.87314334  0.61848085  0.87309846  1
  O  O371  1  0.11819769  0.38194104  0.13224129  1
  O  O372  1  0.12647023  0.38172485  0.62703152  1
  O  O373  1  0.13754566  0.88384308  0.12144075  1
  O  O374  1  0.13224968  0.87889273  0.63072786  1
  O  O375  1  0.63941534  0.38022840  0.13422649  1
  O  O376  1  0.64072354  0.37387821  0.63268749  1
  O  O377  1  0.62754460  0.88655429  0.13720257  1
  O  O378  1  0.61970818  0.88573999  0.63801421  1
  O  O379  1  0.12240176  0.25381885  0.25337772  1
  O  O380  1  0.12301687  0.26057704  0.74013042  1
  O  O381  1  0.12118280  0.74291137  0.25757306  1
  O  O382  1  0.11286885  0.75457215  0.75147402  1
  O  O383  1  0.61742697  0.25529224  0.24998012  1
  O  O384  1  0.61054889  0.24531569  0.75096270  1
  O  O385  1  0.61864559  0.76115314  0.24543573  1
  O  O386  1  0.61788864  0.76025081  0.75239250  1
  O  O387  1  0.38806961  0.24125464  0.24867796  1
  O  O388  1  0.38360400  0.24654306  0.74696897  1
  O  O389  1  0.38591881  0.74713085  0.24295365  1
  O  O390  1  0.38425574  0.74466130  0.74387918  1
  O  O391  1  0.87912743  0.24232245  0.24370725  1
  O  O392  1  0.86629034  0.23463256  0.74309435  1
  O  O393  1  0.88986594  0.75184177  0.23293155  1
  O  O394  1  0.88652858  0.74902314  0.74331186  1
  O  O395  1  0.38598274  0.48859002  0.50297892  1
  O  O396  1  0.36220454  0.49868814  0.98384318  1
  O  O397  1  0.38907857  0.99523747  0.50589144  1
  O  O398  1  0.37770040  1.00019402  0.99568228  1
  O  O399  1  0.87887834  0.49699528  0.49751409  1
  O  O400  1  0.88387256  0.49154719  0.99703891  1
  O  O401  1  0.88666759  1.00103413  0.50405710  1
  O  O402  1  0.88531714  0.98893279  1.00937037  1
  O  O403  1  0.11891318  0.00771494  0.00430353  1
  O  O404  1  0.11927188  0.00078043  0.51248522  1
  O  O405  1  0.11985264  0.50313417  0.00519829  1
  O  O406  1  0.12934858  0.50349911  0.51219372  1
  O  O407  1  0.61500344  0.00318968  0.00778815  1
  O  O408  1  0.61245505  0.00169240  0.51478959  1
  O  O409  1  0.63364503  0.49711907  0.01883529  1
  O  O410  1  0.61357181  0.50767108  0.49700658  1
  O  O411  1  0.35889147  0.37022190  0.13078608  1
  O  O412  1  0.36947176  0.37032926  0.61685896  1
  O  O413  1  0.36271074  0.87215331  0.12103756  1
  O  O414  1  0.36739954  0.86484835  0.62693619  1
  O  O415  1  0.86776271  0.36606157  0.12124641  1
  O  O416  1  0.87141754  0.37000638  0.61325142  1
  O  O417  1  0.87063155  0.86886767  0.11977530  1
  O  O418  1  0.87675274  0.86129347  0.62999250  1
  O  O419  1  0.12767580  0.13878350  0.37721342  1
  O  O420  1  0.12398803  0.11651710  0.88473074  1
  O  O421  1  0.13668224  0.63138252  0.37956057  1
  O  O422  1  0.12885080  0.62977760  0.87817681  1
  O  O423  1  0.64161248  0.12670238  0.36960558  1
  O  O424  1  0.62547377  0.11727757  0.89012994  1
  O  O425  1  0.62643076  0.62363689  0.38092516  1
  O  O426  1  0.63979108  0.62912409  0.88257609  1
