# generated using pymatgen
data_V85Zn86O256
_symmetry_space_group_name_H-M   'P 1'
_cell_length_a   16.92612573
_cell_length_b   16.94773120
_cell_length_c   16.94330590
_cell_angle_alpha   90.00942463
_cell_angle_beta   90.02321046
_cell_angle_gamma   90.10920079
_symmetry_Int_Tables_number   1
_chemical_formula_structural   V85Zn86O256
_chemical_formula_sum   'V85 Zn86 O256'
_cell_volume   4860.33776705
_cell_formula_units_Z   1
loop_
 _symmetry_equiv_pos_site_id
 _symmetry_equiv_pos_as_xyz
  1  'x, y, z'
loop_
 _atom_site_type_symbol
 _atom_site_label
 _atom_site_symmetry_multiplicity
 _atom_site_fract_x
 _atom_site_fract_y
 _atom_site_fract_z
 _atom_site_occupancy
  V  V0  1  0.87346577  0.86909976  -0.00260743  1
  V  V1  1  0.61697729  0.74656307  0.87506009  1
  V  V2  1  0.00122162  0.87675039  0.37099969  1
  V  V3  1  0.37776525  0.25074547  0.13103693  1
  V  V4  1  0.26263204  0.75599355  0.00049065  1
  V  V5  1  0.13393177  0.23656657  0.37837515  1
  V  V6  1  0.74928611  0.62303555  0.37475532  1
  V  V7  1  0.62808876  0.50197623  0.11971017  1
  V  V8  1  0.74216157  0.87736862  0.62778133  1
  V  V9  1  0.12877815  0.49920094  0.12741983  1
  V  V10  1  0.50191647  0.12294408  0.62822970  1
  V  V11  1  0.93647827  0.19013738  0.57729194  1
  V  V12  1  0.49930538  0.24789125  0.75553189  1
  V  V13  1  0.62504691  0.37350906  0.75095851  1
  V  V14  1  0.00138002  0.62573441  0.12476578  1
  V  V15  1  0.87730646  0.49566258  0.87993540  1
  V  V16  1  0.24538097  0.00257594  0.75185690  1
  V  V17  1  0.37587302  0.87648660  0.50136903  1
  V  V18  1  0.23855105  0.25409139  0.00152321  1
  V  V19  1  0.76480451  0.36100008  0.11273637  1
  V  V20  1  0.11934839  0.75085235  0.87304824  1
  V  V21  1  -0.01469702  0.35212001  0.89383852  1
  V  V22  1  0.87436074  0.12621545  0.24605944  1
  V  V23  1  -0.00556327  0.87682019  0.87415623  1
  V  V24  1  0.49814253  0.62568611  0.62379464  1
  V  V25  1  0.87675662  0.62946085  0.75341940  1
  V  V26  1  0.12294614  0.37308803  0.75477603  1
  V  V27  1  0.50188727  0.37326756  0.87777833  1
  V  V28  1  0.24994806  0.49981842  0.74868733  1
  V  V29  1  0.37780482  0.63410364  0.75060428  1
  V  V30  1  0.87312514  0.74714077  0.12338204  1
  V  V31  1  0.74210411  0.62312695  0.88157962  1
  V  V32  1  0.23861435  0.00373495  0.25113766  1
  V  V33  1  0.24640273  0.87681049  0.62542982  1
  V  V34  1  0.23856118  0.87903070  0.12924427  1
  V  V35  1  0.49331872  0.87353734  0.88210973  1
  V  V36  1  0.50535168  0.87320301  0.36175748  1
  V  V37  1  0.12466110  0.75577673  0.36760241  1
  V  V38  1  0.25542639  0.23905452  0.49943495  1
  V  V39  1  0.50082994  0.51048730  0.00066201  1
  V  V40  1  0.37345771  0.50064955  0.87502065  1
  V  V41  1  0.61554872  0.87525846  0.74985084  1
  V  V42  1  0.13201101  0.37908509  0.25280491  1
  V  V43  1  0.87344086  0.12923177  0.74576962  1
  V  V44  1  0.62101708  0.36861879  0.24259154  1
  V  V45  1  0.00539973  0.24470335  0.74920678  1
  V  V46  1  0.62010118  0.61524314  0.49967084  1
  V  V47  1  0.74759375  0.74631252  0.50091907  1
  V  V48  1  0.49680678  0.62681087  0.14287084  1
  V  V49  1  0.87241142  -0.00596422  0.37351738  1
  V  V50  1  0.37100685  -0.00086298  0.88602766  1
  V  V51  1  0.37155241  0.37600309  0.00053557  1
  V  V52  1  0.62307037  0.12019346  0.50288230  1
  V  V53  1  0.00521414  0.37754391  0.37613074  1
  V  V54  1  0.50343875  0.37912302  0.38477262  1
  V  V55  1  0.00158814  0.50308950  0.50200799  1
  V  V56  1  0.38064186  0.75714293  0.14291413  1
  V  V57  1  0.74844268  0.50139331  0.74932127  1
  V  V58  1  0.74878691  0.00346233  0.75114804  1
  V  V59  1  0.75757513  0.37141582  0.62477818  1
  V  V60  1  0.11510349  0.87341991  0.74817705  1
  V  V61  1  0.00151847  0.63060143  0.63167831  1
  V  V62  1  0.00210068  0.25121427  0.24540968  1
  V  V63  1  0.12531081  0.62857718  0.50108405  1
  V  V64  1  0.00443524  -0.00277724  0.00340180  1
  V  V65  1  0.11965770  0.12375161  -0.00356151  1
  V  V66  1  0.73750208  0.87152053  0.12597981  1
  V  V67  1  0.24835876  0.75305480  0.50167199  1
  V  V68  1  0.85362528  0.04050438  0.90421535  1
  V  V69  1  0.24488013  0.13262003  0.87500497  1
  V  V70  1  0.25583664  0.62500060  0.36929383  1
  V  V71  1  0.00884015  0.11471779  0.12997924  1
  V  V72  1  0.64394487  0.23853148  0.88667625  1
  V  V73  1  0.50242675  -0.00372745  0.50510209  1
  V  V74  1  0.12812018  0.62731262  0.00105575  1
  V  V75  1  0.87716295  0.75079487  0.63049109  1
  V  V76  1  0.11692036  0.01219441  0.61896090  1
  V  V77  1  0.75019228  0.24742795  0.50337799  1
  V  V78  1  0.87621232  0.49634632  0.37677713  1
  V  V79  1  0.62195066  0.01322365  0.12298908  1
  V  V80  1  0.74635292  0.12305876  0.37308555  1
  V  V81  1  0.37245755  0.00644023  0.37106028  1
  V  V82  1  0.61813117  0.24439037  0.36769747  1
  V  V83  1  0.87689185  0.62214990  0.25008649  1
  V  V84  1  0.87645668  0.87621919  0.50298114  1
  Zn  Zn85  1  0.60958746  0.74348967  0.36419497  1
  Zn  Zn86  1  0.38187442  0.75654477  0.63195154  1
  Zn  Zn87  1  0.73966697  0.74295212  0.00144521  1
  Zn  Zn88  1  0.26505966  0.50730704  0.24717361  1
  Zn  Zn89  1  0.37793944  0.25366816  0.62432154  1
  Zn  Zn90  1  -0.00005916  0.01502678  0.50237586  1
  Zn  Zn91  1  0.50542947  0.00728474  -0.00196734  1
  Zn  Zn92  1  0.39031412  0.51154334  0.37493372  1
  Zn  Zn93  1  0.37376186  0.12556824  0.75109581  1
  Zn  Zn94  1  0.75413679  0.49093974  0.24533508  1
  Zn  Zn95  1  0.37378528  0.38401905  0.50329153  1
  Zn  Zn96  1  0.37701731  0.12704094  0.25134157  1
  Zn  Zn97  1  0.87982101  0.37018453  0.50485791  1
  Zn  Zn98  1  -0.00048714  0.49862876  -0.00074884  1
  Zn  Zn99  1  0.61976781  0.49622421  0.62149212  1
  Zn  Zn100  1  0.25233090  0.37500273  0.62246698  1
  Zn  Zn101  1  0.24970250  0.37863704  0.12569317  1
  Zn  Zn102  1  0.24975268  0.62705926  0.87522774  1
  Zn  Zn103  1  0.00085066  0.75674332  0.24798770  1
  Zn  Zn104  1  0.50282972  0.13365977  0.12287950  1
  Zn  Zn105  1  0.12644703  0.50218883  0.62727074  1
  Zn  Zn106  1  0.74179415  -0.00441328  0.25197220  1
  Zn  Zn107  1  0.18940145  0.18660478  0.18592095  1
  Zn  Zn108  1  0.18786644  0.18872475  0.68298707  1
  Zn  Zn109  1  0.18960222  0.69368626  0.18732419  1
  Zn  Zn110  1  0.19030481  0.68924767  0.68979627  1
  Zn  Zn111  1  0.69290217  0.19001893  0.18415968  1
  Zn  Zn112  1  0.68502314  0.18719209  0.68899996  1
  Zn  Zn113  1  0.68346008  0.68073839  0.18635730  1
  Zn  Zn114  1  0.68335022  0.68923632  0.68989567  1
  Zn  Zn115  1  0.31394947  0.31656696  0.31570432  1
  Zn  Zn116  1  0.31254310  0.31294934  0.81285341  1
  Zn  Zn117  1  0.31148057  0.82066235  0.31444181  1
  Zn  Zn118  1  0.30659127  0.81601677  0.81408569  1
  Zn  Zn119  1  0.80945595  0.31215147  0.31036581  1
  Zn  Zn120  1  0.81648451  0.30889175  0.80028305  1
  Zn  Zn121  1  0.77709900  0.79195717  0.29424456  1
  Zn  Zn122  1  0.80506316  0.80982755  0.81372515  1
  Zn  Zn123  1  0.19325709  0.43929530  0.44158271  1
  Zn  Zn124  1  0.17914214  0.43613047  0.93355276  1
  Zn  Zn125  1  0.18644640  0.94267827  0.43663015  1
  Zn  Zn126  1  0.18765716  0.93528512  0.93973440  1
  Zn  Zn127  1  0.68892132  0.43378198  0.43602607  1
  Zn  Zn128  1  0.68901798  0.43259752  0.93928726  1
  Zn  Zn129  1  0.68531767  0.93569396  0.43820944  1
  Zn  Zn130  1  0.68595742  0.93480639  0.93930795  1
  Zn  Zn131  1  0.30832908  0.06422250  0.06452113  1
  Zn  Zn132  1  0.31398481  0.06359022  0.56529007  1
  Zn  Zn133  1  0.31566254  0.56874035  0.06498036  1
  Zn  Zn134  1  0.31782008  0.56094435  0.55914182  1
  Zn  Zn135  1  0.81490292  0.05818495  0.07445359  1
  Zn  Zn136  1  0.80362873  0.05441849  0.56130883  1
  Zn  Zn137  1  0.81123542  0.55640644  0.06069765  1
  Zn  Zn138  1  0.81193394  0.55990559  0.56512725  1
  Zn  Zn139  1  0.43801935  0.43615354  0.19340897  1
  Zn  Zn140  1  0.43672112  0.44080083  0.68393797  1
  Zn  Zn141  1  0.43545823  0.94029562  0.18509681  1
  Zn  Zn142  1  0.43343844  0.94218315  0.68957392  1
  Zn  Zn143  1  0.94302976  0.43684843  0.18635732  1
  Zn  Zn144  1  0.93951659  0.43939292  0.69260843  1
  Zn  Zn145  1  0.93164153  0.93547950  0.18755772  1
  Zn  Zn146  1  0.93399163  0.94399867  0.68950839  1
  Zn  Zn147  1  0.06177714  0.05851560  0.31509637  1
  Zn  Zn148  1  0.05322574  0.06414453  0.81471151  1
  Zn  Zn149  1  0.06560546  0.56638145  0.31319297  1
  Zn  Zn150  1  0.06119374  0.56000941  0.81475104  1
  Zn  Zn151  1  0.55619868  0.06042424  0.30214109  1
  Zn  Zn152  1  0.56490319  0.06201328  0.81817931  1
  Zn  Zn153  1  0.56898571  0.55551390  0.30907945  1
  Zn  Zn154  1  0.55869372  0.56165338  0.80872213  1
  Zn  Zn155  1  0.43792466  0.18818855  0.43692100  1
  Zn  Zn156  1  0.43509467  0.18561035  0.94315756  1
  Zn  Zn157  1  0.43732248  0.69230013  0.44218670  1
  Zn  Zn158  1  0.43882185  0.68845962  0.93545078  1
  Zn  Zn159  1  0.93664482  0.19062771  0.41338541  1
  Zn  Zn160  1  0.84293430  0.21635550  0.94617188  1
  Zn  Zn161  1  0.93630999  0.69032918  0.43852187  1
  Zn  Zn162  1  0.93879300  0.68536392  0.93703341  1
  Zn  Zn163  1  0.02370512  0.28740624  0.04110676  1
  Zn  Zn164  1  0.07701897  0.32066215  0.55866580  1
  Zn  Zn165  1  0.06308165  0.81024965  0.06135902  1
  Zn  Zn166  1  0.06053140  0.81400782  0.56155508  1
  Zn  Zn167  1  0.56241168  0.31485663  0.05859239  1
  Zn  Zn168  1  0.56671126  0.30705620  0.56482409  1
  Zn  Zn169  1  0.55671825  0.80966633  0.05806914  1
  Zn  Zn170  1  0.56309180  0.80476642  0.56131666  1
  O  O171  1  0.11587919  0.12453622  0.11724453  1
  O  O172  1  0.12459641  0.11026091  0.62689692  1
  O  O173  1  0.12206931  0.62393349  0.12013886  1
  O  O174  1  0.11732515  0.62711395  0.62102800  1
  O  O175  1  0.62944606  0.11570930  0.12169730  1
  O  O176  1  0.61315654  0.12745657  0.61650259  1
  O  O177  1  0.61207954  0.61608772  0.12534678  1
  O  O178  1  0.61875186  0.62532893  0.61777593  1
  O  O179  1  0.39852149  0.36620024  0.37528525  1
  O  O180  1  0.38025057  0.38143558  0.88105282  1
  O  O181  1  0.38315671  0.88393606  0.38412874  1
  O  O182  1  0.38234382  0.88559970  0.86419141  1
  O  O183  1  0.88307005  0.38150287  0.37735771  1
  O  O184  1  0.88313752  0.38484585  0.85899343  1
  O  O185  1  0.87589681  0.88494314  0.38423497  1
  O  O186  1  0.87865248  0.86091801  0.88863818  1
  O  O187  1  0.25725454  -0.00822800  0.36073090  1
  O  O188  1  0.25079656  0.00651525  0.86915085  1
  O  O189  1  0.24047485  0.52106845  0.37325945  1
  O  O190  1  0.25417786  0.50150368  0.86562685  1
  O  O191  1  0.75530816  0.00275767  0.37325047  1
  O  O192  1  0.76464718  -0.00791561  0.87105254  1
  O  O193  1  0.76061105  0.50351704  0.37288957  1
  O  O194  1  0.75429622  0.50340740  0.86765347  1
  O  O195  1  0.24166152  0.50421814  0.12864175  1
  O  O196  1  0.25064748  0.50295215  0.63945759  1
  O  O197  1  0.25375177  0.98633137  0.13314268  1
  O  O198  1  0.23966260  0.99707061  0.63269380  1
  O  O199  1  0.74119724  0.49300490  0.12431172  1
  O  O200  1  0.74573398  0.49276803  0.63383186  1
  O  O201  1  0.73955695  0.98871315  0.12417870  1
  O  O202  1  0.74957954  0.98705498  0.63551340  1
  O  O203  1  0.01127227  0.36781585  0.25353799  1
  O  O204  1  0.00361328  0.36310363  0.75117899  1
  O  O205  1  -0.00986647  0.87494095  0.26665591  1
  O  O206  1  0.00750718  0.88228982  0.75692619  1
  O  O207  1  0.51646664  0.37347531  0.25839333  1
  O  O208  1  0.50798244  0.36832855  0.75544224  1
  O  O209  1  0.49785543  0.87932105  0.26372524  1
  O  O210  1  0.51236275  0.88603483  0.75313914  1
  O  O211  1  0.49040031  0.12147935  0.23656395  1
  O  O212  1  0.50227939  0.12997013  0.74485291  1
  O  O213  1  0.50475216  0.62530846  0.24189969  1
  O  O214  1  0.48600317  0.62354113  0.74424578  1
  O  O215  1  0.99734825  0.12892546  0.24777312  1
  O  O216  1  0.99565811  0.13565778  0.74157274  1
  O  O217  1  0.99023625  0.62813424  0.24519279  1
  O  O218  1  0.99056449  0.62152879  0.74343749  1
  O  O219  1  0.35933106  0.25930985  0.00394525  1
  O  O220  1  0.36440396  0.25290990  0.49816049  1
  O  O221  1  0.36439933  0.74792103  0.00250608  1
  O  O222  1  0.36820581  0.76477586  0.50377284  1
  O  O223  1  0.92964346  0.28488585  -0.03269018  1
  O  O224  1  0.87521140  0.24616774  0.50478281  1
  O  O225  1  0.87342096  0.74980236  0.01071111  1
  O  O226  1  0.87089265  0.75708191  0.51176464  1
  O  O227  1  0.13576947  0.25213723  0.48557593  1
  O  O228  1  0.13079926  0.23933707  1.00383128  1
  O  O229  1  0.12862667  0.74675247  0.49304669  1
  O  O230  1  0.13272028  0.74144330  0.99637687  1
  O  O231  1  0.62912703  0.23574958  0.49239087  1
  O  O232  1  0.62546784  0.25527730  0.98338817  1
  O  O233  1  0.63493190  0.74002964  0.49296524  1
  O  O234  1  0.62323528  0.75336735  0.98195892  1
  O  O235  1  0.48094642  0.25662144  0.11734440  1
  O  O236  1  0.50218924  0.24191977  0.63674073  1
  O  O237  1  0.48982492  0.74140085  0.12298104  1
  O  O238  1  0.49785705  0.73564430  0.62515255  1
  O  O239  1  1.00353825  0.23820589  0.14058285  1
  O  O240  1  1.00276211  0.25480869  0.62416229  1
  O  O241  1  0.99186204  0.74448574  0.12754780  1
  O  O242  1  0.99406648  0.73865408  0.62291595  1
  O  O243  1  0.01621099  0.25778528  0.36630705  1
  O  O244  1  0.01055269  0.25008815  0.85065381  1
  O  O245  1  0.00588543  0.75873964  0.37513302  1
  O  O246  1  0.01280246  0.75643810  0.88162962  1
  O  O247  1  0.51429744  0.25455975  0.37816756  1
  O  O248  1  0.50421344  0.25537181  0.87009090  1
  O  O249  1  0.49630692  0.76766584  0.37841981  1
  O  O250  1  0.50343935  0.75932727  0.87243359  1
  O  O251  1  0.25340756  0.13881085  0.50104986  1
  O  O252  1  0.23881568  0.13055457  0.99507063  1
  O  O253  1  0.24163964  0.63462661  0.49513704  1
  O  O254  1  0.24456218  0.63652639  0.99889778  1
  O  O255  1  0.74116435  0.12602670  0.49526362  1
  O  O256  1  0.80690690  0.11185065  0.97629367  1
  O  O257  1  0.74450531  0.63031444  0.49924533  1
  O  O258  1  0.75076840  0.62166722  0.98525698  1
  O  O259  1  0.24970541  0.36842505  -0.00208510  1
  O  O260  1  0.25085910  0.36293080  0.50149441  1
  O  O261  1  0.24558079  0.86789217  0.01398687  1
  O  O262  1  0.25671302  0.87388523  0.50432482  1
  O  O263  1  0.75355522  0.37587677  0.01311328  1
  O  O264  1  0.75356680  0.36703584  0.50712633  1
  O  O265  1  0.75857244  0.86983247  0.00925847  1
  O  O266  1  0.75612001  0.86901913  0.50771971  1
  O  O267  1  0.12599320  0.49572465  0.24356515  1
  O  O268  1  0.13277559  0.49478119  0.75066844  1
  O  O269  1  0.13890668  1.00007835  0.25485490  1
  O  O270  1  0.12845149  0.99555002  0.74457777  1
  O  O271  1  0.62904251  0.48938410  0.23536528  1
  O  O272  1  0.63127731  0.48935084  0.75095402  1
  O  O273  1  0.62734755  0.99839919  0.23112779  1
  O  O274  1  0.64091718  0.99236987  0.76148980  1
  O  O275  1  0.36616470  -0.00140659  0.25768031  1
  O  O276  1  0.35707635  0.00319949  0.75490898  1
  O  O277  1  0.37653678  0.49758858  0.26282523  1
  O  O278  1  0.36805505  0.50644761  0.75738327  1
  O  O279  1  0.87369956  0.00758788  0.25936856  1
  O  O280  1  0.86498854  0.01076390  0.75411761  1
  O  O281  1  0.88086102  0.50377600  0.26187882  1
  O  O282  1  0.86813238  0.51163229  0.75636733  1
  O  O283  1  0.12127344  0.37394550  0.36869476  1
  O  O284  1  0.11305128  0.37534710  0.85913986  1
  O  O285  1  0.11258695  0.86846764  0.38480591  1
  O  O286  1  0.11625600  0.87129586  0.86875032  1
  O  O287  1  0.62145918  0.36482118  0.36842026  1
  O  O288  1  0.62396187  0.36762974  0.86482332  1
  O  O289  1  0.60819123  0.87478635  0.38066169  1
  O  O290  1  0.61629711  0.86977982  0.86778655  1
  O  O291  1  0.36763556  0.14469102  0.12120469  1
  O  O292  1  0.38840651  0.12826729  0.62891799  1
  O  O293  1  0.38796071  0.63725796  0.12508231  1
  O  O294  1  0.38042305  0.62827956  0.63254530  1
  O  O295  1  0.88716020  0.12073307  0.14092045  1
  O  O296  1  0.87360367  0.12168988  0.62795462  1
  O  O297  1  0.87908927  0.62683205  0.12957506  1
  O  O298  1  0.88056880  0.62923390  0.63348212  1
  O  O299  1  0.25348614  0.25610944  0.11561481  1
  O  O300  1  0.25233797  0.25028167  0.61133026  1
  O  O301  1  0.26197676  0.75708225  0.12168873  1
  O  O302  1  0.24903829  0.75997310  0.61763879  1
  O  O303  1  0.75626423  0.26007985  0.12075357  1
  O  O304  1  0.74375417  0.25893425  0.61740401  1
  O  O305  1  0.75556991  0.75486801  0.11958736  1
  O  O306  1  0.75534642  0.75509193  0.61701159  1
  O  O307  1  0.24155313  0.25119398  0.38157678  1
  O  O308  1  0.25071559  0.23837756  0.88112931  1
  O  O309  1  0.24266941  0.74847113  0.38120275  1
  O  O310  1  0.23775661  0.75394456  0.88520524  1
  O  O311  1  0.74205915  0.24268674  0.38281740  1
  O  O312  1  0.74971597  0.25355813  0.87739674  1
  O  O313  1  0.77060947  0.73798986  0.39570423  1
  O  O314  1  0.74027242  0.73884432  0.87794809  1
  O  O315  1  0.00599442  0.11551725  0.01282768  1
  O  O316  1  -0.01271719  0.13439078  0.50563030  1
  O  O317  1  0.00979725  0.62317308  0.00669697  1
  O  O318  1  0.00579700  0.62261004  0.50697049  1
  O  O319  1  0.49394377  0.11983133  0.00912603  1
  O  O320  1  0.50499040  0.11841309  0.50662107  1
  O  O321  1  0.49558803  0.61261470  0.00332862  1
  O  O322  1  0.50960255  0.62901740  0.50616935  1
  O  O323  1  0.50819659  0.36979482  0.48749361  1
  O  O324  1  0.49182693  0.38521052  0.99469845  1
  O  O325  1  0.49303013  0.88174728  0.50307207  1
  O  O326  1  0.49944774  0.88049958  0.98478741  1
  O  O327  1  1.00050350  0.38478408  0.49559250  1
  O  O328  1  1.03064053  0.38702807  0.98577840  1
  O  O329  1  0.98524089  0.87379377  0.49373814  1
  O  O330  1  0.99476692  0.87911670  0.99602974  1
  O  O331  1  0.51083914  0.48247812  0.37626969  1
  O  O332  1  0.49548283  0.49402742  0.88220971  1
  O  O333  1  0.49401001  0.99044203  0.38606604  1
  O  O334  1  0.48821163  0.99515570  0.87494913  1
  O  O335  1  0.99619432  0.49775502  0.38139682  1
  O  O336  1  0.98957748  0.49117155  0.87431778  1
  O  O337  1  0.99252620  0.99504749  0.38280005  1
  O  O338  1  0.97956179  1.00062878  0.88700867  1
  O  O339  1  -0.00366825  0.00395006  0.11922841  1
  O  O340  1  0.01195391  -0.00324213  0.62202460  1
  O  O341  1  0.01227209  0.50731656  0.12283148  1
  O  O342  1  -0.00137847  0.51321405  0.61963845  1
  O  O343  1  0.51493406  -0.00663341  0.12076015  1
  O  O344  1  0.49574237  0.00643702  0.61324713  1
  O  O345  1  0.50312634  0.51022604  0.12051468  1
  O  O346  1  0.50457000  0.51667041  0.63087284  1
  O  O347  1  0.24025760  0.38086170  0.25269517  1
  O  O348  1  0.24227301  0.38134739  0.75117233  1
  O  O349  1  0.25256020  0.88400937  0.23766427  1
  O  O350  1  0.23590070  0.88487440  0.74734722  1
  O  O351  1  0.74028306  0.37313478  0.24126308  1
  O  O352  1  0.74374890  0.37931391  0.74298283  1
  O  O353  1  0.76787122  0.88264185  0.22691163  1
  O  O354  1  0.74414527  0.88108120  0.74395519  1
  O  O355  1  0.25466030  0.10772697  0.24149850  1
  O  O356  1  0.24563264  0.12038870  0.75856001  1
  O  O357  1  0.24525006  0.62968696  0.26623979  1
  O  O358  1  0.25668483  0.61735964  0.75333821  1
  O  O359  1  0.75924364  0.12290410  0.25470587  1
  O  O360  1  0.75905677  0.11704246  0.74252392  1
  O  O361  1  0.76572588  0.61346755  0.25229463  1
  O  O362  1  0.75493977  0.61886077  0.75706639  1
  O  O363  1  0.37993461  0.11004859  0.37588244  1
  O  O364  1  0.36168947  0.11747262  0.87276793  1
  O  O365  1  0.35840204  0.63320900  0.38134281  1
  O  O366  1  0.37336491  0.61863376  0.86774310  1
  O  O367  1  0.86786267  0.11159358  0.36825070  1
  O  O368  1  0.88362856  0.13404645  0.85397181  1
  O  O369  1  0.87385155  0.61714201  0.36838888  1
  O  O370  1  0.86872761  0.61943449  0.86868953  1
  O  O371  1  0.12758386  0.38894145  0.13583997  1
  O  O372  1  0.12992459  0.38374157  0.63722126  1
  O  O373  1  0.13983529  0.86506927  0.12819538  1
  O  O374  1  0.12666560  0.88036595  0.63293338  1
  O  O375  1  0.63104001  0.37825227  0.12877391  1
  O  O376  1  0.63174540  0.37425685  0.63656442  1
  O  O377  1  0.63647927  0.86757908  0.12313921  1
  O  O378  1  0.63448961  0.86638615  0.63252468  1
  O  O379  1  0.12497608  0.25723003  0.25914495  1
  O  O380  1  0.11380162  0.25746791  0.73734080  1
  O  O381  1  0.12163369  0.74949717  0.26371657  1
  O  O382  1  0.12970855  0.76139121  0.76026637  1
  O  O383  1  0.63160471  0.25407841  0.25782074  1
  O  O384  1  0.61858465  0.25559507  0.76017595  1
  O  O385  1  0.67080129  0.74910169  0.27151096  1
  O  O386  1  0.63156829  0.76377175  0.76202245  1
  O  O387  1  0.36418921  0.25172861  0.23380460  1
  O  O388  1  0.38862857  0.24753549  0.75244548  1
  O  O389  1  0.37265293  0.75277076  0.24091746  1
  O  O390  1  0.36215015  0.73783572  0.75003893  1
  O  O391  1  0.89014292  0.23811426  0.26791470  1
  O  O392  1  0.88939460  0.24314571  0.73718378  1
  O  O393  1  0.87250253  0.73973789  0.23780323  1
  O  O394  1  0.86806775  0.73737560  0.74649219  1
  O  O395  1  0.36917532  0.49659482  0.48549472  1
  O  O396  1  0.37852488  0.49533646  0.99548682  1
  O  O397  1  0.37911176  0.99207498  0.49571648  1
  O  O398  1  0.36745235  0.99975646  0.98781262  1
  O  O399  1  0.88190553  0.50155511  0.48954409  1
  O  O400  1  0.87843488  0.50257616  0.98429211  1
  O  O401  1  0.87547746  0.99206516  0.49460590  1
  O  O402  1  0.88345260  0.98521901  1.00243421  1
  O  O403  1  0.11104853  0.00281482  -0.00419896  1
  O  O404  1  0.12169224  -0.00161891  0.51417200  1
  O  O405  1  0.13140677  0.51577278  0.00711734  1
  O  O406  1  0.11898948  0.51108995  0.50287849  1
  O  O407  1  0.62657190  -0.00727399  0.01650591  1
  O  O408  1  0.61708676  0.01091938  0.49679003  1
  O  O409  1  0.61492903  0.49177625  0.01086701  1
  O  O410  1  0.63385653  0.51179318  0.50208927  1
  O  O411  1  0.37080425  0.36890018  0.11844173  1
  O  O412  1  0.37320212  0.37103425  0.62282164  1
  O  O413  1  0.37058914  0.86073081  0.12644514  1
  O  O414  1  0.36638307  0.87709106  0.62003794  1
  O  O415  1  0.86348084  0.37931242  0.13045523  1
  O  O416  1  0.86191916  0.38222816  0.62501249  1
  O  O417  1  0.87273552  0.86384822  0.11358701  1
  O  O418  1  0.86724848  0.87190706  0.62133421  1
  O  O419  1  0.12252316  0.13880223  0.37304147  1
  O  O420  1  0.12884593  0.11781368  0.88742228  1
  O  O421  1  0.12955068  0.63710129  0.38299075  1
  O  O422  1  0.12532114  0.63315913  0.88248645  1
  O  O423  1  0.62700397  0.12729323  0.37810197  1
  O  O424  1  0.62970903  0.14049923  0.87310858  1
  O  O425  1  0.63181363  0.62290741  0.38194976  1
  O  O426  1  0.63068767  0.63250680  0.86519361  1
