# generated using pymatgen
data_V85Zn86O256
_symmetry_space_group_name_H-M   'P 1'
_cell_length_a   16.94075150
_cell_length_b   16.94049877
_cell_length_c   16.94926305
_cell_angle_alpha   90.06962270
_cell_angle_beta   89.95497650
_cell_angle_gamma   90.01707258
_symmetry_Int_Tables_number   1
_chemical_formula_structural   V85Zn86O256
_chemical_formula_sum   'V85 Zn86 O256'
_cell_volume   4864.17521917
_cell_formula_units_Z   1
loop_
 _symmetry_equiv_pos_site_id
 _symmetry_equiv_pos_as_xyz
  1  'x, y, z'
loop_
 _atom_site_type_symbol
 _atom_site_label
 _atom_site_symmetry_multiplicity
 _atom_site_fract_x
 _atom_site_fract_y
 _atom_site_fract_z
 _atom_site_occupancy
  V  V0  1  0.62388814  -0.00508724  0.63625926  1
  V  V1  1  0.74562574  0.87222191  0.63180038  1
  V  V2  1  0.24721608  0.62988245  0.37684001  1
  V  V3  1  -0.00180378  0.86836115  0.36871892  1
  V  V4  1  0.12212206  0.86781279  0.24796614  1
  V  V5  1  0.25536574  0.75160237  0.00030332  1
  V  V6  1  0.25179413  0.37583808  0.12319962  1
  V  V7  1  0.87597210  0.87300559  0.00040539  1
  V  V8  1  0.00256503  0.12638572  0.12455450  1
  V  V9  1  0.12623616  -0.00067328  0.12582608  1
  V  V10  1  0.62316865  0.49025199  0.62835570  1
  V  V11  1  0.25195848  0.61933936  0.87375611  1
  V  V12  1  0.00206556  0.00040155  0.50037428  1
  V  V13  1  0.62498137  0.12289162  0.50176570  1
  V  V14  1  0.74993731  0.62354957  0.87612065  1
  V  V15  1  0.87553645  0.12557696  0.25198911  1
  V  V16  1  0.37573458  0.01102036  0.37029104  1
  V  V17  1  0.74638653  0.24660843  0.00262034  1
  V  V18  1  0.50413581  0.25902304  0.75068458  1
  V  V19  1  0.87738083  0.75051390  0.62822335  1
  V  V20  1  0.25246888  0.00957083  0.25277561  1
  V  V21  1  0.87450328  -0.00091682  0.37441013  1
  V  V22  1  -0.00000237  0.86769966  0.86725806  1
  V  V23  1  0.62348181  0.87525498  0.25488122  1
  V  V24  1  0.37357033  0.63026422  0.24356498  1
  V  V25  1  0.49450641  0.37296256  0.37078729  1
  V  V26  1  0.13037823  -0.00423529  0.62300131  1
  V  V27  1  0.74781742  0.24980053  0.49956941  1
  V  V28  1  0.74846868  0.37374100  0.62884123  1
  V  V29  1  0.86861045  0.63261134  0.24227898  1
  V  V30  1  0.37688449  0.49706726  0.88426195  1
  V  V31  1  0.37131938  0.12712862  0.75415930  1
  V  V32  1  0.25139606  0.24946889  -0.00356026  1
  V  V33  1  0.86019850  0.51062624  0.37034819  1
  V  V34  1  0.37880550  0.62067071  0.75149509  1
  V  V35  1  0.13990927  0.12438744  0.49652239  1
  V  V36  1  0.13993746  0.24710442  0.37866380  1
  V  V37  1  0.50360277  0.61996614  0.12306823  1
  V  V38  1  0.00419875  0.49717374  0.49526044  1
  V  V39  1  0.49818483  0.12525581  0.62720262  1
  V  V40  1  0.62401460  0.01363089  0.12355195  1
  V  V41  1  0.12301890  0.62751788  0.00409206  1
  V  V42  1  0.37329733  0.50245898  0.37330032  1
  V  V43  1  0.87487973  0.00072840  0.87352458  1
  V  V44  1  0.12879366  0.86733084  0.74241641  1
  V  V45  1  0.87751767  0.25397183  0.12437419  1
  V  V46  1  0.25023058  -0.00363688  0.75020988  1
  V  V47  1  0.37046512  0.75595079  0.62663799  1
  V  V48  1  0.87346460  0.87338857  0.49997134  1
  V  V49  1  0.50116593  -0.00905639  0.49765532  1
  V  V50  1  0.13990536  0.38863725  0.74704007  1
  V  V51  1  0.87368022  0.12672913  0.74851735  1
  V  V52  1  0.49781954  0.50058614  0.49797579  1
  V  V53  1  0.36902534  0.87178200  0.49227516  1
  V  V54  1  0.50532563  0.62817839  0.62631106  1
  V  V55  1  0.12699991  0.24865970  0.87007386  1
  V  V56  1  0.12047927  0.37468528  0.25212018  1
  V  V57  1  0.25346605  0.86626873  0.12834696  1
  V  V58  1  0.36987942  -0.00139423  0.87582501  1
  V  V59  1  0.00117358  0.25206016  0.26142203  1
  V  V60  1  0.50404388  0.87549022  0.87152607  1
  V  V61  1  0.63396693  0.38568139  0.25045329  1
  V  V62  1  0.38029980  0.87401848  0.00919325  1
  V  V63  1  0.00115467  0.00092734  -0.00232872  1
  V  V64  1  0.24814585  0.50519425  0.24818856  1
  V  V65  1  0.00088649  0.25500237  0.74224221  1
  V  V66  1  0.51263510  0.38150560  0.88363308  1
  V  V67  1  -0.00220684  0.50272208  0.00363589  1
  V  V68  1  0.74780955  0.49670179  0.75063474  1
  V  V69  1  0.74676865  0.87496108  0.12494643  1
  V  V70  1  0.50453994  0.01351047  0.00401759  1
  V  V71  1  0.12867875  0.12458445  -0.00830600  1
  V  V72  1  0.87688245  0.37870946  0.49288569  1
  V  V73  1  0.87610270  0.49618218  0.87419676  1
  V  V74  1  0.49554108  0.76077830  0.24797335  1
  V  V75  1  0.00401577  0.62224125  0.61860398  1
  V  V76  1  0.88082366  0.62740217  0.75037254  1
  V  V77  1  0.62486650  0.24019801  0.87691545  1
  V  V78  1  0.74685685  0.74613245  0.00387058  1
  V  V79  1  0.12547350  0.74644422  0.86522798  1
  V  V80  1  0.63264696  0.62532479  0.49120483  1
  V  V81  1  0.11976892  0.50855926  0.12714297  1
  V  V82  1  0.62730290  0.75325709  0.86763120  1
  V  V83  1  0.12254017  0.74654277  0.37830618  1
  V  V84  1  0.62215716  0.24860400  0.37437698  1
  Zn  Zn85  1  0.75018559  0.00074370  0.24828975  1
  Zn  Zn86  1  0.24142252  0.75053372  0.50708005  1
  Zn  Zn87  1  0.89018502  0.74849068  0.12514326  1
  Zn  Zn88  1  0.74683066  0.12168601  0.87922712  1
  Zn  Zn89  1  -0.00048023  0.12350887  0.62350801  1
  Zn  Zn90  1  0.62648138  0.74879353  0.37061611  1
  Zn  Zn91  1  0.38057240  0.37473465  0.00342309  1
  Zn  Zn92  1  0.34444075  0.37102827  0.50333201  1
  Zn  Zn93  1  0.37551126  0.23067724  0.13328361  1
  Zn  Zn94  1  0.75252457  0.74668004  0.49458272  1
  Zn  Zn95  1  0.87633221  0.25028700  0.62163920  1
  Zn  Zn96  1  0.49666935  0.23479624  0.23944167  1
  Zn  Zn97  1  0.61692486  0.61677791  -0.00464926  1
  Zn  Zn98  1  0.62693712  0.49687595  0.11386977  1
  Zn  Zn99  1  0.34899446  0.25878181  0.62647638  1
  Zn  Zn100  1  0.17355276  0.47227497  0.59318391  1
  Zn  Zn101  1  0.74684362  -0.00248299  0.75407711  1
  Zn  Zn102  1  0.75384608  0.37958161  0.12792347  1
  Zn  Zn103  1  0.50566947  0.75586378  0.74811179  1
  Zn  Zn104  1  0.87736923  0.37479486  0.00071162  1
  Zn  Zn105  1  0.00246691  0.37611500  0.87313092  1
  Zn  Zn106  1  0.75150097  0.12334542  0.37753427  1
  Zn  Zn107  1  0.19064265  0.18831970  0.18373910  1
  Zn  Zn108  1  0.18343360  0.17626188  0.69337120  1
  Zn  Zn109  1  0.04927298  0.68703413  0.19086924  1
  Zn  Zn110  1  0.20583089  0.64656931  0.67038501  1
  Zn  Zn111  1  0.68920354  0.19212573  0.19237503  1
  Zn  Zn112  1  0.68539453  0.18725826  0.68961286  1
  Zn  Zn113  1  0.68851981  0.68464359  0.18959879  1
  Zn  Zn114  1  0.69095349  0.68463071  0.68697293  1
  Zn  Zn115  1  0.31390144  0.31317795  0.30969046  1
  Zn  Zn116  1  0.31324496  0.31348175  0.81426810  1
  Zn  Zn117  1  0.31355120  0.81453827  0.31202796  1
  Zn  Zn118  1  0.31458953  0.81059369  0.81243060  1
  Zn  Zn119  1  0.81408138  0.31459043  0.31703273  1
  Zn  Zn120  1  0.81005406  0.31131541  0.81358052  1
  Zn  Zn121  1  0.80853130  0.80440238  0.31037257  1
  Zn  Zn122  1  0.81190884  0.81104598  0.81150084  1
  Zn  Zn123  1  0.17993083  0.43846839  0.42512595  1
  Zn  Zn124  1  0.18603307  0.43711938  0.93556737  1
  Zn  Zn125  1  0.19130063  0.93442235  0.43484677  1
  Zn  Zn126  1  0.18780675  0.93431657  0.93449586  1
  Zn  Zn127  1  0.68477796  0.43617761  0.43939144  1
  Zn  Zn128  1  0.68968269  0.43498736  0.94606684  1
  Zn  Zn129  1  0.68969097  0.93312093  0.44015748  1
  Zn  Zn130  1  0.68589709  0.93675356  0.93999613  1
  Zn  Zn131  1  0.30445104  0.05522858  0.05592011  1
  Zn  Zn132  1  0.31456802  0.05898178  0.56677731  1
  Zn  Zn133  1  0.31333347  0.56432130  0.06352991  1
  Zn  Zn134  1  0.32042975  0.56775895  0.55811419  1
  Zn  Zn135  1  0.81170205  0.06429653  0.06267223  1
  Zn  Zn136  1  0.81123513  0.06092343  0.56548033  1
  Zn  Zn137  1  0.80893479  0.56058741  0.06814377  1
  Zn  Zn138  1  0.81349822  0.56060466  0.56331872  1
  Zn  Zn139  1  0.43866938  0.43372275  0.18906800  1
  Zn  Zn140  1  0.43180612  0.44015228  0.69209588  1
  Zn  Zn141  1  0.43712880  1.06642702  0.18738203  1
  Zn  Zn142  1  0.43665420  0.93471892  0.68631816  1
  Zn  Zn143  1  0.93709290  0.44239637  0.19280635  1
  Zn  Zn144  1  0.94043347  0.43521415  0.68284175  1
  Zn  Zn145  1  0.93645620  0.93581373  0.18561380  1
  Zn  Zn146  1  0.93912364  0.93614727  0.68844250  1
  Zn  Zn147  1  0.06522146  0.06161055  0.31355554  1
  Zn  Zn148  1  0.05973547  0.06186445  0.80968548  1
  Zn  Zn149  1  0.05657760  0.56127812  0.31875310  1
  Zn  Zn150  1  0.05997711  0.56400695  0.81225999  1
  Zn  Zn151  1  0.56650535  0.05579384  0.31803761  1
  Zn  Zn152  1  0.55738620  0.06345771  0.81500044  1
  Zn  Zn153  1  0.55918026  0.56443606  0.30884676  1
  Zn  Zn154  1  0.56497277  0.56186053  0.81347461  1
  Zn  Zn155  1  0.43519582  0.18752463  0.43870526  1
  Zn  Zn156  1  0.43501776  0.18963803  0.93590305  1
  Zn  Zn157  1  0.44156988  0.69098788  0.43149114  1
  Zn  Zn158  1  0.43864643  0.69025492  0.93869100  1
  Zn  Zn159  1  0.94058818  0.18760053  0.44089472  1
  Zn  Zn160  1  0.93977533  0.18885958  0.93497215  1
  Zn  Zn161  1  0.93392104  0.68530204  0.43616133  1
  Zn  Zn162  1  0.93818881  0.68656301  0.94190433  1
  Zn  Zn163  1  0.06241304  0.31623121  0.06267468  1
  Zn  Zn164  1  0.17339025  0.30670324  0.56561910  1
  Zn  Zn165  1  0.06878969  0.81628551  0.05345225  1
  Zn  Zn166  1  0.05792235  0.80893134  0.56127985  1
  Zn  Zn167  1  0.56273069  0.30555673  0.06495076  1
  Zn  Zn168  1  0.48971170  0.31456213  0.56138898  1
  Zn  Zn169  1  0.56181591  0.81032255  0.06603699  1
  Zn  Zn170  1  0.56160186  0.81160129  0.56199581  1
  O  O171  1  0.12023611  0.11919748  0.11627531  1
  O  O172  1  0.11912940  0.11052212  0.61657786  1
  O  O173  1  0.12312187  0.61373695  0.12387306  1
  O  O174  1  0.10125105  0.63960717  0.62609804  1
  O  O175  1  0.63703500  0.11233491  0.12827830  1
  O  O176  1  0.61970184  0.11464964  0.62093197  1
  O  O177  1  0.61248564  0.62391809  0.12541846  1
  O  O178  1  0.61721552  0.61921207  0.61962323  1
  O  O179  1  0.38033916  0.38336108  0.38133874  1
  O  O180  1  0.38470954  0.38226233  0.87671284  1
  O  O181  1  0.37623428  0.87942931  0.38908660  1
  O  O182  1  0.38164447  0.88118494  0.88347707  1
  O  O183  1  0.87237258  0.38594742  0.38599406  1
  O  O184  1  0.87621724  0.38736155  0.87431331  1
  O  O185  1  0.88189958  0.88124692  0.37576473  1
  O  O186  1  0.88240470  0.87888178  0.87811114  1
  O  O187  1  0.26429834  -0.00876142  0.36599186  1
  O  O188  1  0.26313349  -0.00500616  0.87057427  1
  O  O189  1  0.25238918  0.50877127  0.36732527  1
  O  O190  1  0.25939860  0.50993686  0.88111460  1
  O  O191  1  0.76456433  -0.00046330  0.37521649  1
  O  O192  1  0.76172833  -0.00152544  0.87558151  1
  O  O193  1  0.76217761  0.49909642  0.38084240  1
  O  O194  1  0.75760687  0.50259309  0.87045342  1
  O  O195  1  0.23941900  0.49715604  0.12874742  1
  O  O196  1  0.24503219  0.54401575  0.63520053  1
  O  O197  1  0.24213616  0.98686507  0.13065108  1
  O  O198  1  0.23813712  0.99695405  0.63277303  1
  O  O199  1  0.74226135  0.49146278  0.12137845  1
  O  O200  1  0.74422565  0.49310006  0.62999325  1
  O  O201  1  0.74426305  0.99147007  0.12263320  1
  O  O202  1  0.74011872  0.99235876  0.62767978  1
  O  O203  1  0.01252377  0.36600684  0.24271580  1
  O  O204  1  0.00529386  0.36802023  0.75207575  1
  O  O205  1  0.00807928  0.88327785  0.25918882  1
  O  O206  1  0.00897300  0.87670951  0.76102512  1
  O  O207  1  0.50976237  0.37840971  0.26438791  1
  O  O208  1  0.49588191  0.36230990  0.76052377  1
  O  O209  1  0.50766906  0.86162793  0.24245058  1
  O  O210  1  0.49529524  0.87535109  0.76634693  1
  O  O211  1  0.50670193  0.12187411  0.25338098  1
  O  O212  1  0.49151492  0.13037810  0.74530242  1
  O  O213  1  0.49324172  0.63293970  0.24209626  1
  O  O214  1  0.49711774  0.62891322  0.74319776  1
  O  O215  1  0.99269600  0.13028882  0.24614415  1
  O  O216  1  0.98869813  0.13096282  0.74959641  1
  O  O217  1  0.98429447  0.62167792  0.25632581  1
  O  O218  1  0.98743552  0.61796268  0.73871601  1
  O  O219  1  0.35874132  0.25143044  -0.00492021  1
  O  O220  1  0.39297888  0.26159619  0.51127174  1
  O  O221  1  0.36341967  0.75894402  -0.00599540  1
  O  O222  1  0.38057529  0.76128402  0.50430975  1
  O  O223  1  0.87569715  0.25124675  0.00996186  1
  O  O224  1  0.86875169  0.25869069  0.49896562  1
  O  O225  1  0.86550868  0.75698750  -0.00075455  1
  O  O226  1  0.87324944  0.75691136  0.50752428  1
  O  O227  1  0.12020334  0.24002356  0.48536570  1
  O  O228  1  0.12968142  0.24412195  0.99300237  1
  O  O229  1  0.12619484  0.75843477  0.48473590  1
  O  O230  1  0.13786989  0.74737265  0.98711491  1
  O  O231  1  0.63312476  0.24389059  0.48861363  1
  O  O232  1  0.63526794  0.25383239  0.99163554  1
  O  O233  1  0.62038679  0.73339446  0.50039466  1
  O  O234  1  0.63380697  0.74615138  0.99193643  1
  O  O235  1  0.48796103  0.25374947  0.12496171  1
  O  O236  1  0.51302231  0.23316292  0.63673978  1
  O  O237  1  0.50288372  0.73929188  0.13911221  1
  O  O238  1  0.49466757  0.74303647  0.62783160  1
  O  O239  1  0.99680240  0.24418709  0.13292226  1
  O  O240  1  0.99808609  0.24534778  0.63948776  1
  O  O241  1  1.00331491  0.75040597  0.11199517  1
  O  O242  1  0.98432817  0.74057781  0.61948543  1
  O  O243  1  0.00472213  0.24648387  0.36336621  1
  O  O244  1  0.01068660  0.25235520  0.86683379  1
  O  O245  1  0.00354728  0.76229016  0.38174286  1
  O  O246  1  0.01094608  0.75677765  0.88067493  1
  O  O247  1  0.50806141  0.25901141  0.37768483  1
  O  O248  1  0.50636385  0.25728890  0.87081959  1
  O  O249  1  0.50849167  0.74483611  0.35528255  1
  O  O250  1  0.50982219  0.75749600  0.87531993  1
  O  O251  1  0.23844419  0.11164860  0.49900141  1
  O  O252  1  0.23544434  0.13181985  0.99962550  1
  O  O253  1  0.26110049  0.63283535  0.48027639  1
  O  O254  1  0.24576111  0.63349874  0.99458033  1
  O  O255  1  0.74577018  0.13312542  0.50132063  1
  O  O256  1  0.75952863  0.14055516  0.99646349  1
  O  O257  1  0.73476173  0.62542135  0.50775096  1
  O  O258  1  0.75332311  0.63458860  0.99280520  1
  O  O259  1  0.24712350  0.36667202  0.00655946  1
  O  O260  1  0.23288013  0.39388864  0.51510032  1
  O  O261  1  0.25592017  0.86994652  0.00375224  1
  O  O262  1  0.26470630  0.87075021  0.50046918  1
  O  O263  1  0.75880459  0.36010845  0.00198982  1
  O  O264  1  0.75385464  0.36879586  0.50855878  1
  O  O265  1  0.75404985  0.86782172  0.00793658  1
  O  O266  1  0.75851405  0.87689205  0.51422671  1
  O  O267  1  0.12437649  0.49287621  0.24572329  1
  O  O268  1  0.12608238  0.48783198  0.75883190  1
  O  O269  1  0.13088470  0.98903889  0.24762279  1
  O  O270  1  0.13053431  0.99271354  0.74368895  1
  O  O271  1  0.62561340  0.48666756  0.25490565  1
  O  O272  1  0.63530028  0.50566430  0.74020829  1
  O  O273  1  0.62935649  0.99206958  0.24039012  1
  O  O274  1  0.62445167  1.00391290  0.73979703  1
  O  O275  1  0.36984416  -0.00212534  0.26438118  1
  O  O276  1  0.36854708  0.00134150  0.75587069  1
  O  O277  1  0.36971459  0.50692069  0.25553018  1
  O  O278  1  0.38104663  0.51467291  0.76219227  1
  O  O279  1  0.87566853  0.00808985  0.25691226  1
  O  O280  1  0.87545935  0.00668498  0.75755254  1
  O  O281  1  0.87667087  0.50634359  0.26477575  1
  O  O282  1  0.86959236  0.50474641  0.75590360  1
  O  O283  1  0.12263990  0.35974532  0.36424290  1
  O  O284  1  0.12412536  0.36691770  0.86446149  1
  O  O285  1  0.11756392  0.87139507  0.36679084  1
  O  O286  1  0.11922166  0.86799540  0.86517940  1
  O  O287  1  0.62070653  0.36830327  0.36783723  1
  O  O288  1  0.61466341  0.36643280  0.87503494  1
  O  O289  1  0.62653127  0.88345092  0.35757490  1
  O  O290  1  0.61671952  0.86712461  0.88003741  1
  O  O291  1  0.36088793  0.11805413  0.12571575  1
  O  O292  1  0.38376063  0.12106357  0.63747995  1
  O  O293  1  0.38222666  0.62158879  0.13727821  1
  O  O294  1  0.39130319  0.63085249  0.63267895  1
  O  O295  1  0.88149141  0.13379235  0.13316222  1
  O  O296  1  0.87812575  0.12672594  0.63326068  1
  O  O297  1  0.87617372  0.62615018  0.13708798  1
  O  O298  1  0.87761733  0.63168416  0.63209284  1
  O  O299  1  0.24893319  0.25988912  0.11518284  1
  O  O300  1  0.24059471  0.23684848  0.62063937  1
  O  O301  1  0.24418949  0.76444890  0.11350227  1
  O  O302  1  0.26699495  0.73658393  0.62198252  1
  O  O303  1  0.76014575  0.25265842  0.12045429  1
  O  O304  1  0.74797831  0.25653402  0.61542085  1
  O  O305  1  0.74942595  0.75655853  0.11516228  1
  O  O306  1  0.75818771  0.75538161  0.62198271  1
  O  O307  1  0.23857414  0.25389051  0.37537328  1
  O  O308  1  0.23640732  0.25254987  0.88106715  1
  O  O309  1  0.23940898  0.74621412  0.37189033  1
  O  O310  1  0.24538697  0.74441168  0.88219661  1
  O  O311  1  0.74560531  0.24926156  0.38651729  1
  O  O312  1  0.74089392  0.24884294  0.88139033  1
  O  O313  1  0.73835534  0.76214592  0.38387427  1
  O  O314  1  0.74510417  0.74716581  0.88296289  1
  O  O315  1  0.00887975  0.12027434  0.00374835  1
  O  O316  1  0.00641100  0.11067971  0.49920464  1
  O  O317  1  0.00952431  0.61208600  -0.00629569  1
  O  O318  1  -0.01047944  0.61491335  0.51127282  1
  O  O319  1  0.49669169  0.11128534  -0.00675501  1
  O  O320  1  0.50359461  0.11351072  0.51028201  1
  O  O321  1  0.49637765  0.63454030  0.01965379  1
  O  O322  1  0.50601268  0.61673790  0.50576347  1
  O  O323  1  0.51528850  0.39284967  0.48372335  1
  O  O324  1  0.49859909  0.36992398  0.98540427  1
  O  O325  1  0.49228815  0.88589894  0.50489488  1
  O  O326  1  0.49395666  0.87906223  0.99384472  1
  O  O327  1  0.98728541  0.39468606  0.50873671  1
  O  O328  1  0.99960566  0.38724499  0.99522394  1
  O  O329  1  0.99470939  0.88511299  0.49223459  1
  O  O330  1  0.99873548  0.88360037  0.98560375  1
  O  O331  1  0.49302180  0.49768814  0.38030301  1
  O  O332  1  0.49641711  0.48589819  0.86857689  1
  O  O333  1  0.48722751  0.99942956  0.38564974  1
  O  O334  1  0.49359692  0.99325137  0.88425123  1
  O  O335  1  0.98731226  0.50373433  0.39139612  1
  O  O336  1  0.99147829  0.49956956  0.88140646  1
  O  O337  1  0.99234055  0.99261644  0.38050163  1
  O  O338  1  0.99045466  0.99273251  0.87682027  1
  O  O339  1  0.00608864  0.00515760  0.11816556  1
  O  O340  1  0.01056170  -0.00348011  0.61668470  1
  O  O341  1  0.00810318  0.49352725  0.11612577  1
  O  O342  1  -0.00793656  0.51389903  0.61425031  1
  O  O343  1  0.50741031  0.00175447  0.11036702  1
  O  O344  1  0.50576417  0.00637518  0.62182725  1
  O  O345  1  0.50323694  0.51576492  0.13479802  1
  O  O346  1  0.50660433  0.50702896  0.61892623  1
  O  O347  1  0.23798288  0.38308214  0.24336041  1
  O  O348  1  0.23923171  0.37392106  0.75057530  1
  O  O349  1  0.24300659  0.87836654  0.24273981  1
  O  O350  1  0.24147133  0.88411661  0.75602958  1
  O  O351  1  0.73664889  0.36843835  0.25136159  1
  O  O352  1  0.75467086  0.37758806  0.73537484  1
  O  O353  1  0.74492539  0.87546395  0.23647644  1
  O  O354  1  0.75552115  0.87788726  0.73665642  1
  O  O355  1  0.23826259  0.10819775  0.24886562  1
  O  O356  1  0.25709416  0.10721929  0.75124303  1
  O  O357  1  0.26080605  0.61966081  0.25885032  1
  O  O358  1  0.26416026  0.63462288  0.76898514  1
  O  O359  1  0.76510774  0.12508107  0.25422741  1
  O  O360  1  0.76243027  0.12327418  0.75349587  1
  O  O361  1  0.76688169  0.62786322  0.25011001  1
  O  O362  1  0.76059268  0.61796386  0.75586073  1
  O  O363  1  0.37294218  0.10909675  0.38389872  1
  O  O364  1  0.38103911  0.11435634  0.86217289  1
  O  O365  1  0.37186136  0.62194892  0.36408892  1
  O  O366  1  0.37338090  0.61985734  0.87147844  1
  O  O367  1  0.87784862  0.11667154  0.36904743  1
  O  O368  1  0.87617813  0.11533494  0.86858448  1
  O  O369  1  0.87118407  0.61614189  0.36960143  1
  O  O370  1  0.87220799  0.61685774  0.86820665  1
  O  O371  1  0.13401760  0.38282914  0.13052551  1
  O  O372  1  0.12143092  0.38062159  0.64232942  1
  O  O373  1  0.13081784  0.88084744  0.13110991  1
  O  O374  1  0.11830808  0.87529193  0.63693466  1
  O  O375  1  0.62194323  0.37294160  0.14369305  1
  O  O376  1  0.63144810  0.38862207  0.61885440  1
  O  O377  1  0.63182931  0.88223667  0.13000540  1
  O  O378  1  0.63242612  0.88210365  0.62096474  1
  O  O379  1  0.12103628  0.25334063  0.25693443  1
  O  O380  1  0.11835512  0.25230461  0.75659899  1
  O  O381  1  0.11737771  0.76274113  0.25915401  1
  O  O382  1  0.13382747  0.75436393  0.76138108  1
  O  O383  1  0.62432460  0.25586637  0.26448575  1
  O  O384  1  0.61558212  0.24587311  0.76110135  1
  O  O385  1  0.61827216  0.75866029  0.24754262  1
  O  O386  1  0.62783157  0.74681483  0.76313582  1
  O  O387  1  0.38301806  0.26042532  0.24519473  1
  O  O388  1  0.38038477  0.24120715  0.74899246  1
  O  O389  1  0.38620810  0.74561592  0.25268743  1
  O  O390  1  0.38026181  0.74211838  0.74366515  1
  O  O391  1  0.88290419  0.24498641  0.24739818  1
  O  O392  1  0.88171853  0.24347878  0.75050504  1
  O  O393  1  0.87786634  0.73921630  0.24665975  1
  O  O394  1  0.87145442  0.73917791  0.74279994  1
  O  O395  1  0.38498093  0.49917733  0.49279474  1
  O  O396  1  0.37506259  0.50006973  0.98823785  1
  O  O397  1  0.37939358  0.98872293  0.49596155  1
  O  O398  1  0.38339254  0.99324162  0.99197313  1
  O  O399  1  0.87673142  0.49688675  0.49129229  1
  O  O400  1  0.88253605  0.50128602  0.99217700  1
  O  O401  1  0.88263765  0.99550402  0.49429564  1
  O  O402  1  0.88083325  0.99448395  0.99302464  1
  O  O403  1  0.12170243  0.00656449  0.00097595  1
  O  O404  1  0.12053897  -0.00086536  0.50424477  1
  O  O405  1  0.11950497  0.50589497  0.00765943  1
  O  O406  1  0.10766491  0.50135978  0.49604838  1
  O  O407  1  0.61197350  -0.00219870  0.00581947  1
  O  O408  1  0.61735962  0.00226374  0.50617084  1
  O  O409  1  0.61977536  0.50310079  -0.00244818  1
  O  O410  1  0.62025424  0.51095238  0.50718343  1
  O  O411  1  0.35837649  0.38611277  0.12118148  1
  O  O412  1  0.39528452  0.36812373  0.61643041  1
  O  O413  1  0.36618173  0.88000133  0.11054231  1
  O  O414  1  0.38007562  0.86537529  0.61419170  1
  O  O415  1  0.87870802  0.36232348  0.12879068  1
  O  O416  1  0.86531539  0.37460243  0.61307226  1
  O  O417  1  0.86682066  0.87364173  0.11757125  1
  O  O418  1  0.87152443  0.86754497  0.62224271  1
  O  O419  1  0.12243683  0.13678085  0.38064890  1
  O  O420  1  0.11868041  0.13214408  0.88157799  1
  O  O421  1  0.13276371  0.63587694  0.36722792  1
  O  O422  1  0.13327149  0.62992238  0.87895525  1
  O  O423  1  0.62988708  0.13042267  0.38388681  1
  O  O424  1  0.62561704  0.13522899  0.87436390  1
  O  O425  1  0.62224374  0.62038616  0.38943425  1
  O  O426  1  0.63274210  0.63328303  0.87608483  1
