# generated using pymatgen
data_V85Zn86O256
_symmetry_space_group_name_H-M   'P 1'
_cell_length_a   16.93642544
_cell_length_b   16.93482440
_cell_length_c   16.93760748
_cell_angle_alpha   90.12146860
_cell_angle_beta   89.93679124
_cell_angle_gamma   90.00016767
_symmetry_Int_Tables_number   1
_chemical_formula_structural   V85Zn86O256
_chemical_formula_sum   'V85 Zn86 O256'
_cell_volume   4857.95263534
_cell_formula_units_Z   1
loop_
 _symmetry_equiv_pos_site_id
 _symmetry_equiv_pos_as_xyz
  1  'x, y, z'
loop_
 _atom_site_type_symbol
 _atom_site_label
 _atom_site_symmetry_multiplicity
 _atom_site_fract_x
 _atom_site_fract_y
 _atom_site_fract_z
 _atom_site_occupancy
  V  V0  1  0.12317854  0.74668379  0.87647065  1
  V  V1  1  0.24197240  0.61997425  0.37898151  1
  V  V2  1  0.87497786  0.62646014  0.74449706  1
  V  V3  1  0.37753981  0.87204975  0.50060343  1
  V  V4  1  0.87287796  0.00326002  0.87737268  1
  V  V5  1  0.86981314  0.37679865  0.00429165  1
  V  V6  1  0.00807067  0.76455489  0.24821411  1
  V  V7  1  0.38015183  0.62535453  0.25295388  1
  V  V8  1  0.37560060  -0.00045307  0.37549917  1
  V  V9  1  0.12128117  -0.00478872  0.12868729  1
  V  V10  1  0.00225291  0.37671301  0.87693700  1
  V  V11  1  0.62349419  0.37784728  0.74939414  1
  V  V12  1  0.75728989  0.49472731  0.23695039  1
  V  V13  1  0.38404681  0.24799379  0.12465500  1
  V  V14  1  0.62769664  0.12313132  0.50136748  1
  V  V15  1  0.61462534  0.62152121  0.00097242  1
  V  V16  1  0.01445899  0.62110512  0.62135790  1
  V  V17  1  0.74649447  0.00149238  0.76088310  1
  V  V18  1  0.24416659  0.49202389  0.25601077  1
  V  V19  1  0.37539502  0.74950634  0.13183689  1
  V  V20  1  0.75387636  0.12448060  0.37321456  1
  V  V21  1  0.62063531  0.25348355  0.37065373  1
  V  V22  1  0.00100731  0.37620061  0.36353432  1
  V  V23  1  0.63859348  0.12739145  -0.00382400  1
  V  V24  1  0.00293726  0.13831200  0.12740045  1
  V  V25  1  0.61842505  0.87104542  0.75293290  1
  V  V26  1  0.86862286  0.12622133  0.75217114  1
  V  V27  1  0.61701685  0.48963748  0.11857563  1
  V  V28  1  0.49933626  0.12549651  0.62630545  1
  V  V29  1  0.87642050  0.50170318  0.87558576  1
  V  V30  1  0.87835157  0.87198959  0.49630693  1
  V  V31  1  0.74756065  0.62630451  0.87361741  1
  V  V32  1  -0.00181738  0.12427069  0.62496156  1
  V  V33  1  0.50301935  0.61304906  0.62632683  1
  V  V34  1  0.50168598  0.86384215  0.35967055  1
  V  V35  1  0.61471089  0.74859072  0.87406223  1
  V  V36  1  0.75301843  0.25120426  0.49963167  1
  V  V37  1  0.00951722  0.51370489  0.00367409  1
  V  V38  1  0.74885019  0.75162791  0.00649169  1
  V  V39  1  0.24794503  0.74393726  0.50381995  1
  V  V40  1  -0.00112945  0.75009337  0.74776264  1
  V  V41  1  0.25042796  0.62404234  0.87688906  1
  V  V42  1  0.23945023  0.37181153  0.13318827  1
  V  V43  1  0.39356888  0.49691206  0.37875479  1
  V  V44  1  0.12119748  0.76188106  0.37903854  1
  V  V45  1  0.24693938  0.00507860  0.75307525  1
  V  V46  1  0.49896587  0.38401301  0.88115648  1
  V  V47  1  0.36693580  0.00589749  0.87609635  1
  V  V48  1  0.88088653  -0.00139407  0.37210837  1
  V  V49  1  0.24485056  -0.00532488  0.25293240  1
  V  V50  1  0.12624133  -0.00123353  0.62408887  1
  V  V51  1  0.62499367  -0.00167460  0.62527647  1
  V  V52  1  0.12566671  0.12441214  -0.00380606  1
  V  V53  1  0.12697429  0.13585081  0.49972281  1
  V  V54  1  0.62692785  0.74676284  0.35797079  1
  V  V55  1  0.74927833  0.50076161  0.74721110  1
  V  V56  1  0.37542162  0.38914552  0.00571180  1
  V  V57  1  0.38709587  0.75222732  0.63393242  1
  V  V58  1  0.75657103  0.61629597  0.37407994  1
  V  V59  1  0.01974230  0.49959254  0.50205865  1
  V  V60  1  -0.00002119  0.25111245  0.75124574  1
  V  V61  1  0.75080853  0.37602909  0.62287352  1
  V  V62  1  0.87688304  0.75186033  0.12641070  1
  V  V63  1  0.38211988  0.12614166  0.24831653  1
  V  V64  1  0.38290968  0.37604935  0.49704803  1
  V  V65  1  0.37256340  0.87542170  0.00104382  1
  V  V66  1  0.37042062  0.12829378  0.75262548  1
  V  V67  1  0.25225798  0.24840583  -0.00048444  1
  V  V68  1  0.12487595  0.25472435  0.35810909  1
  V  V69  1  0.00250266  -0.00497720  0.49731260  1
  V  V70  1  -0.00323780  0.87604573  0.87724084  1
  V  V71  1  0.85983012  0.25232856  0.12732571  1
  V  V72  1  0.87563188  0.25039281  0.62361277  1
  V  V73  1  0.36400654  0.25230729  0.61938454  1
  V  V74  1  0.88849552  0.62074128  0.24795128  1
  V  V75  1  0.24169561  0.75089821  0.00417803  1
  V  V76  1  0.49687215  0.25294761  0.75048608  1
  V  V77  1  0.50366780  -0.00363489  0.49963547  1
  V  V78  1  0.24852244  0.50137962  0.74065025  1
  V  V79  1  0.74846450  0.87355768  0.62078672  1
  V  V80  1  0.25165559  0.13102182  0.37954686  1
  V  V81  1  0.49274550  0.01583489  0.00622154  1
  V  V82  1  0.87862393  0.38556566  0.49586525  1
  V  V83  1  0.88110753  0.13096601  0.25057450  1
  V  V84  1  0.13085119  0.24987319  0.87468141  1
  Zn  Zn85  1  0.75198395  0.25134130  -0.00800591  1
  Zn  Zn86  1  0.61431861  0.62048528  0.48990612  1
  Zn  Zn87  1  0.50077979  0.25294858  0.25093378  1
  Zn  Zn88  1  0.49340419  0.87341612  0.87267040  1
  Zn  Zn89  1  0.62057794  0.49361554  0.61039597  1
  Zn  Zn90  1  0.37614970  0.50573126  0.87964249  1
  Zn  Zn91  1  0.25024295  0.87322484  0.62716477  1
  Zn  Zn92  1  0.62214392  -0.00769075  0.12861491  1
  Zn  Zn93  1  0.24366174  0.87345684  0.13179612  1
  Zn  Zn94  1  0.12390646  0.87683997  0.75083006  1
  Zn  Zn95  1  -0.00192012  0.00130742  0.00264328  1
  Zn  Zn96  1  0.87512089  0.74807707  0.62024083  1
  Zn  Zn97  1  0.12411295  0.38404800  0.74476512  1
  Zn  Zn98  1  0.38051170  0.62952714  0.75481186  1
  Zn  Zn99  1  0.63346413  0.24610049  0.87104676  1
  Zn  Zn100  1  0.74808534  -0.02938726  0.22760997  1
  Zn  Zn101  1  0.86944138  0.88254507  0.01219969  1
  Zn  Zn102  1  0.24128995  0.37897286  0.61300561  1
  Zn  Zn103  1  0.49449736  0.61994891  0.12344707  1
  Zn  Zn104  1  0.62674250  0.37281362  0.24560277  1
  Zn  Zn105  1  0.74832566  0.74625129  0.49533654  1
  Zn  Zn106  1  0.11723280  0.50909639  0.13380877  1
  Zn  Zn107  1  0.19446503  0.18120010  0.18648718  1
  Zn  Zn108  1  0.18490353  0.18803949  0.68867882  1
  Zn  Zn109  1  0.18571132  0.68331028  0.19352395  1
  Zn  Zn110  1  0.19048010  0.68850829  0.69111413  1
  Zn  Zn111  1  0.67119788  0.14561682  0.19830350  1
  Zn  Zn112  1  0.68709469  0.18923377  0.69003016  1
  Zn  Zn113  1  0.69128863  0.68140336  0.18498579  1
  Zn  Zn114  1  0.68381192  0.68970967  0.68561890  1
  Zn  Zn115  1  0.31510237  0.31299577  0.31669857  1
  Zn  Zn116  1  0.31230676  0.31940075  0.81383001  1
  Zn  Zn117  1  0.30982266  0.81043545  0.31535540  1
  Zn  Zn118  1  0.30691380  0.81805298  0.81319272  1
  Zn  Zn119  1  0.81448977  0.31323487  0.31130861  1
  Zn  Zn120  1  0.81208346  0.31434373  0.81511683  1
  Zn  Zn121  1  0.81720031  0.80751228  0.31225770  1
  Zn  Zn122  1  0.80699694  0.81402676  0.81502766  1
  Zn  Zn123  1  0.19407070  0.42878874  0.43745147  1
  Zn  Zn124  1  0.19027626  0.43666365  0.93713869  1
  Zn  Zn125  1  0.19091056  0.93689528  0.44022560  1
  Zn  Zn126  1  0.18538383  0.93628817  0.93861598  1
  Zn  Zn127  1  0.68691904  0.44046986  0.43383322  1
  Zn  Zn128  1  0.68705581  0.43625127  0.93555263  1
  Zn  Zn129  1  0.70440741  0.92066699  0.40610314  1
  Zn  Zn130  1  0.66393067  0.91582597  0.97816315  1
  Zn  Zn131  1  0.30762370  0.06506725  0.06561281  1
  Zn  Zn132  1  0.31219244  0.06346168  0.56275187  1
  Zn  Zn133  1  0.27614944  0.57755020  0.08018485  1
  Zn  Zn134  1  0.32018816  0.56454065  0.56053471  1
  Zn  Zn135  1  0.81169295  0.06333854  0.06626086  1
  Zn  Zn136  1  0.81208435  0.05925269  0.56299564  1
  Zn  Zn137  1  0.81587372  0.56821886  0.06298362  1
  Zn  Zn138  1  0.81230766  0.56136518  0.56118202  1
  Zn  Zn139  1  0.43890554  0.43140343  0.19522396  1
  Zn  Zn140  1  0.42879923  0.43789273  0.69010574  1
  Zn  Zn141  1  0.43251128  0.93882494  0.18524827  1
  Zn  Zn142  1  0.43642532  0.93798063  0.68865351  1
  Zn  Zn143  1  0.93860731  0.43709567  0.18254583  1
  Zn  Zn144  1  0.94041640  0.43922961  0.68513400  1
  Zn  Zn145  1  0.93945245  0.93968370  0.18855654  1
  Zn  Zn146  1  0.93548283  0.93639978  0.68787325  1
  Zn  Zn147  1  0.06215050  0.06504231  0.31247764  1
  Zn  Zn148  1  0.05941150  0.06472495  0.81374204  1
  Zn  Zn149  1  0.06469135  0.56090647  0.31999550  1
  Zn  Zn150  1  0.06478000  0.56469622  0.81271059  1
  Zn  Zn151  1  0.56327770  0.05691024  0.31496710  1
  Zn  Zn152  1  0.55772510  0.06054111  0.81873722  1
  Zn  Zn153  1  0.56869579  0.56217978  0.30319909  1
  Zn  Zn154  1  0.55917807  0.56416303  0.80627874  1
  Zn  Zn155  1  0.43872944  0.18829258  0.44116346  1
  Zn  Zn156  1  0.43328951  0.19413808  0.93132524  1
  Zn  Zn157  1  0.43704649  0.68573462  0.43929534  1
  Zn  Zn158  1  0.43279421  0.68877126  0.94211644  1
  Zn  Zn159  1  0.94333289  0.19187423  0.43674405  1
  Zn  Zn160  1  0.93698202  0.18781718  0.93960467  1
  Zn  Zn161  1  0.93956465  0.68272765  0.43545162  1
  Zn  Zn162  1  0.93449818  0.68889378  0.93693584  1
  Zn  Zn163  1  0.06087801  0.31696637  0.06145962  1
  Zn  Zn164  1  0.06369794  0.31536278  0.56301169  1
  Zn  Zn165  1  0.05785902  0.81181116  0.06321732  1
  Zn  Zn166  1  0.06276806  0.81060184  0.56283233  1
  Zn  Zn167  1  0.56260594  0.30935534  0.06134064  1
  Zn  Zn168  1  0.56165518  0.31181495  0.56112146  1
  Zn  Zn169  1  0.55355955  0.81041834  0.06850132  1
  Zn  Zn170  1  0.56735104  0.80626760  0.55250193  1
  O  O171  1  0.11997067  0.12006880  0.11738373  1
  O  O172  1  0.12135880  0.11707702  0.61686251  1
  O  O173  1  0.16708984  0.60851988  0.11486348  1
  O  O174  1  0.11318826  0.62996353  0.62865491  1
  O  O175  1  0.61877506  0.11952255  0.09885580  1
  O  O176  1  0.61925753  0.12074039  0.62136411  1
  O  O177  1  0.62215315  0.61562638  0.11575531  1
  O  O178  1  0.61137252  0.62414251  0.62536766  1
  O  O179  1  0.37756942  0.38757663  0.38134704  1
  O  O180  1  0.38117699  0.37764447  0.88705935  1
  O  O181  1  0.38435132  0.87569887  0.38191108  1
  O  O182  1  0.37189751  0.88363314  0.88248705  1
  O  O183  1  0.89229767  0.36537550  0.38276869  1
  O  O184  1  0.88469426  0.38370887  0.87930050  1
  O  O185  1  0.87889004  0.88470437  0.38915235  1
  O  O186  1  0.88132860  0.88722299  0.87053175  1
  O  O187  1  0.25583367  0.00659976  0.37178917  1
  O  O188  1  0.25702352  -0.00139422  0.86870665  1
  O  O189  1  0.25472592  0.50546391  0.37296310  1
  O  O190  1  0.25107736  0.51076852  0.87170720  1
  O  O191  1  0.76859458  0.01889060  0.39285797  1
  O  O192  1  0.75716586  -0.00500384  0.86236977  1
  O  O193  1  0.74645896  0.51160529  0.35837762  1
  O  O194  1  0.75531829  0.50664863  0.86727980  1
  O  O195  1  0.26159972  0.48167566  0.14235096  1
  O  O196  1  0.25590183  0.50579969  0.63773896  1
  O  O197  1  0.24006464  1.00113125  0.13577241  1
  O  O198  1  0.24164090  0.99936359  0.63034528  1
  O  O199  1  0.74526400  0.50570157  0.13363726  1
  O  O200  1  0.75003685  0.49299580  0.63160762  1
  O  O201  1  0.74361395  0.99533668  0.11990674  1
  O  O202  1  0.74470777  0.98887508  0.63160667  1
  O  O203  1  -0.00032490  0.38434485  0.26508198  1
  O  O204  1  -0.00003993  0.37197188  0.76156962  1
  O  O205  1  0.00117686  0.86264866  0.25384974  1
  O  O206  1  -0.00010103  0.86971860  0.75924536  1
  O  O207  1  0.51248038  0.36574302  0.24620701  1
  O  O208  1  0.50494504  0.37044812  0.75275726  1
  O  O209  1  0.49557759  0.87936739  0.26168003  1
  O  O210  1  0.51414255  0.88289004  0.75303215  1
  O  O211  1  0.48452038  0.12768670  0.25970366  1
  O  O212  1  0.49319082  0.13335028  0.74603824  1
  O  O213  1  0.48410052  0.61899528  0.24704651  1
  O  O214  1  0.49731092  0.62898873  0.73443747  1
  O  O215  1  0.98990795  0.12349100  0.24326281  1
  O  O216  1  0.99102226  0.13033287  0.74397987  1
  O  O217  1  0.99110664  0.62480908  0.25757646  1
  O  O218  1  0.99276562  0.62794621  0.74276990  1
  O  O219  1  0.36620316  0.25486266  0.00621174  1
  O  O220  1  0.37852072  0.25748162  0.50904364  1
  O  O221  1  0.36251527  0.75876598  0.00575696  1
  O  O222  1  0.36893610  0.75643943  0.50911316  1
  O  O223  1  0.87631920  0.25920150  0.00700890  1
  O  O224  1  0.87296487  0.25677884  0.50614416  1
  O  O225  1  0.86941354  0.74710617  0.01104192  1
  O  O226  1  0.87554635  0.75843938  0.49908668  1
  O  O227  1  0.11973835  0.23730458  0.49350835  1
  O  O228  1  0.13041271  0.24646677  0.99354522  1
  O  O229  1  0.13310381  0.75338433  0.49046873  1
  O  O230  1  0.13432902  0.75734791  0.99412512  1
  O  O231  1  0.63243814  0.24434291  0.49242348  1
  O  O232  1  0.62717332  0.23822561  0.99704181  1
  O  O233  1  0.62957892  0.74010520  0.48440985  1
  O  O234  1  0.63129070  0.73885188  0.99372817  1
  O  O235  1  0.48676326  0.24697305  0.12368380  1
  O  O236  1  0.49264492  0.24615038  0.63566622  1
  O  O237  1  0.48009423  0.74231827  0.11788530  1
  O  O238  1  0.48840736  0.75360510  0.62389762  1
  O  O239  1  0.99750149  0.24089760  0.12168641  1
  O  O240  1  0.99444007  0.24329640  0.63009142  1
  O  O241  1  0.99951183  0.74905804  0.14100023  1
  O  O242  1  0.99696115  0.74222893  0.63001411  1
  O  O243  1  0.01403526  0.26193014  0.37669597  1
  O  O244  1  0.00699775  0.25837158  0.87261463  1
  O  O245  1  0.01487775  0.74452481  0.36826833  1
  O  O246  1  0.00408975  0.75568316  0.87004367  1
  O  O247  1  0.51861517  0.24266326  0.37768773  1
  O  O248  1  0.49694459  0.26182572  0.86079704  1
  O  O249  1  0.50295251  0.75769536  0.37340136  1
  O  O250  1  0.51077403  0.75135136  0.88070704  1
  O  O251  1  0.24177038  0.11893592  0.48797131  1
  O  O252  1  0.24105705  0.13982767  1.00456634  1
  O  O253  1  0.25793841  0.63648071  0.49432123  1
  O  O254  1  0.25647387  0.63915650  0.98391070  1
  O  O255  1  0.74823464  0.13426628  0.49893828  1
  O  O256  1  0.73994866  0.12231876  0.99294318  1
  O  O257  1  0.75834759  0.62411771  0.48224052  1
  O  O258  1  0.74483273  0.63256794  0.99178437  1
  O  O259  1  0.25529603  0.36545567  0.00813513  1
  O  O260  1  0.27025720  0.37712297  0.50130851  1
  O  O261  1  0.25657545  0.86993754  0.00291024  1
  O  O262  1  0.26253245  0.86611327  0.50073368  1
  O  O263  1  0.76680017  0.37852521  -0.00527180  1
  O  O264  1  0.76026928  0.36936829  0.50078432  1
  O  O265  1  0.76019597  0.85317557  -0.01824053  1
  O  O266  1  0.75851624  0.87428260  0.50463150  1
  O  O267  1  0.13939834  0.50304600  0.25287592  1
  O  O268  1  0.14256839  0.50266790  0.75588338  1
  O  O269  1  0.13280022  1.00847108  0.24237965  1
  O  O270  1  0.12956378  1.00360965  0.74241608  1
  O  O271  1  0.63734331  0.50000405  0.23287318  1
  O  O272  1  0.62847667  0.48849836  0.74593904  1
  O  O273  1  0.63875045  1.03219472  0.23800174  1
  O  O274  1  0.63032246  0.99649640  0.74686360  1
  O  O275  1  0.36831274  0.00753733  0.25666799  1
  O  O276  1  0.36708751  0.00548961  0.75654960  1
  O  O277  1  0.36863424  0.50207548  0.26426183  1
  O  O278  1  0.36240297  0.50521993  0.75682861  1
  O  O279  1  0.87490614  0.00675789  0.25967293  1
  O  O280  1  0.86695488  0.00578880  0.75402999  1
  O  O281  1  0.86612672  0.50631988  0.24063915  1
  O  O282  1  0.87140095  0.50728344  0.75460664  1
  O  O283  1  0.11868684  0.36161479  0.37729956  1
  O  O284  1  0.11827245  0.36690048  0.87218222  1
  O  O285  1  0.13031645  0.86091698  0.37703946  1
  O  O286  1  0.11511994  0.86702056  0.87418938  1
  O  O287  1  0.63637290  0.35510549  0.37226034  1
  O  O288  1  0.61671081  0.37344460  0.86706151  1
  O  O289  1  0.60611474  0.86330785  0.38202594  1
  O  O290  1  0.62204297  0.86566934  0.87159728  1
  O  O291  1  0.36416361  0.13460247  0.13779169  1
  O  O292  1  0.38073374  0.13162664  0.62989811  1
  O  O293  1  0.36900297  0.63105557  0.13475985  1
  O  O294  1  0.38466556  0.63769429  0.62824922  1
  O  O295  1  0.88343867  0.13273994  0.13084237  1
  O  O296  1  0.87917830  0.12944758  0.63044575  1
  O  O297  1  0.87457236  0.63799177  0.13664965  1
  O  O298  1  0.87976229  0.62464224  0.63466006  1
  O  O299  1  0.25529290  0.25574016  0.11923747  1
  O  O300  1  0.26226187  0.24639931  0.62846526  1
  O  O301  1  0.25488338  0.75420893  0.11876687  1
  O  O302  1  0.25755669  0.75153287  0.61823032  1
  O  O303  1  0.76049726  0.24218041  0.11767156  1
  O  O304  1  0.75538063  0.25666611  0.61971576  1
  O  O305  1  0.75951716  0.74568743  0.11659807  1
  O  O306  1  0.75140020  0.76221984  0.62209102  1
  O  O307  1  0.23750716  0.24335706  0.37315635  1
  O  O308  1  0.23908596  0.25656414  0.88242307  1
  O  O309  1  0.24120578  0.74349843  0.38248475  1
  O  O310  1  0.24067250  0.74815726  0.87999806  1
  O  O311  1  0.74836565  0.24016163  0.38118223  1
  O  O312  1  0.74769285  0.25111204  0.87682765  1
  O  O313  1  0.74395043  0.73424646  0.37132483  1
  O  O314  1  0.74036219  0.74044817  0.87811869  1
  O  O315  1  0.00898024  0.12484298  0.00884285  1
  O  O316  1  0.00736560  0.11569309  0.50493643  1
  O  O317  1  -0.00101419  0.61204757  -0.00720882  1
  O  O318  1  -0.00376465  0.60766496  0.50519607  1
  O  O319  1  0.48341778  0.11526330  -0.00019155  1
  O  O320  1  0.50599155  0.11747241  0.50664943  1
  O  O321  1  0.51133751  0.62396967  -0.00070243  1
  O  O322  1  0.49717971  0.63239178  0.52052877  1
  O  O323  1  0.48471374  0.37268465  0.50616221  1
  O  O324  1  0.48969710  0.36919439  0.99166702  1
  O  O325  1  0.48960454  0.87707480  0.49600835  1
  O  O326  1  0.48058302  0.88260094  0.99633197  1
  O  O327  1  0.99660439  0.38403208  0.49588970  1
  O  O328  1  0.99258066  0.38080778  0.98885290  1
  O  O329  1  0.99497299  0.88791661  0.50692972  1
  O  O330  1  0.99343835  0.87532518  0.98793568  1
  O  O331  1  0.49136307  0.50516799  0.37142917  1
  O  O332  1  0.49753859  0.48800174  0.86939604  1
  O  O333  1  0.49514725  0.98924170  0.38098870  1
  O  O334  1  0.48099324  0.99780594  0.88308479  1
  O  O335  1  1.00723630  0.48635270  0.38828191  1
  O  O336  1  0.99683754  0.49468906  0.88034245  1
  O  O337  1  0.99094360  1.00607589  0.38371019  1
  O  O338  1  0.99317853  0.99172538  0.87580817  1
  O  O339  1  0.00587614  0.01147210  0.12453654  1
  O  O340  1  0.00699148  0.00554168  0.62014666  1
  O  O341  1  0.00301038  0.49853831  0.10915893  1
  O  O342  1  0.00016569  0.50530035  0.61178444  1
  O  O343  1  0.49522657  -0.00159282  0.10865092  1
  O  O344  1  0.50469077  0.00502144  0.62063020  1
  O  O345  1  0.51426122  0.49946002  0.12648963  1
  O  O346  1  0.49794458  0.51025139  0.62842560  1
  O  O347  1  0.25209072  0.37900237  0.24608896  1
  O  O348  1  0.25017018  0.39227858  0.75015087  1
  O  O349  1  0.25407161  0.89037777  0.25286536  1
  O  O350  1  0.24504465  0.89052137  0.74682748  1
  O  O351  1  0.74984105  0.39146177  0.25401297  1
  O  O352  1  0.74224518  0.38064362  0.74438021  1
  O  O353  1  0.74316799  0.88871203  0.29992474  1
  O  O354  1  0.74054694  0.88231346  0.74201700  1
  O  O355  1  0.25700300  0.11649032  0.26361127  1
  O  O356  1  0.25417376  0.11314057  0.74554183  1
  O  O357  1  0.26112241  0.61545199  0.26369054  1
  O  O358  1  0.25330102  0.61966131  0.75981805  1
  O  O359  1  0.76788087  0.12725011  0.26251559  1
  O  O360  1  0.75748572  0.11478715  0.74288785  1
  O  O361  1  0.76125738  0.61542698  0.25490878  1
  O  O362  1  0.75574615  0.62085710  0.75145536  1
  O  O363  1  0.36732477  0.12206618  0.37361577  1
  O  O364  1  0.37332162  0.11932785  0.86469066  1
  O  O365  1  0.36965209  0.61524879  0.37293282  1
  O  O366  1  0.36728785  0.62666877  0.87242624  1
  O  O367  1  0.87579708  0.12347762  0.36948689  1
  O  O368  1  0.88313169  0.11177707  0.86763263  1
  O  O369  1  0.86449239  0.62767336  0.36380802  1
  O  O370  1  0.86997224  0.62126231  0.86278424  1
  O  O371  1  0.13690782  0.38006679  0.12139533  1
  O  O372  1  0.13155328  0.36373043  0.63387713  1
  O  O373  1  0.12299149  0.89121036  0.11987262  1
  O  O374  1  0.12564007  0.88830524  0.62542181  1
  O  O375  1  0.62913650  0.38659291  0.11886346  1
  O  O376  1  0.63183083  0.37381485  0.63161661  1
  O  O377  1  0.62897785  0.88556107  0.08559452  1
  O  O378  1  0.63009226  0.87673715  0.63084872  1
  O  O379  1  0.12613608  0.24307568  0.26009413  1
  O  O380  1  0.11729391  0.24484596  0.76211236  1
  O  O381  1  0.11562464  0.74704244  0.25971359  1
  O  O382  1  0.11797238  0.75444992  0.75799972  1
  O  O383  1  0.62869728  0.23843232  0.26338626  1
  O  O384  1  0.61570524  0.26112772  0.74876493  1
  O  O385  1  0.62644888  0.74475415  0.25738350  1
  O  O386  1  0.63069848  0.76007539  0.76094050  1
  O  O387  1  0.37387460  0.24288856  0.24348644  1
  O  O388  1  0.37904458  0.24878086  0.74424413  1
  O  O389  1  0.36517964  0.74022750  0.24307627  1
  O  O390  1  0.36891080  0.75504457  0.73604984  1
  O  O391  1  0.87424198  0.24393481  0.24057744  1
  O  O392  1  0.88102477  0.24622135  0.74424597  1
  O  O393  1  0.88998712  0.74424693  0.24846840  1
  O  O394  1  0.87942564  0.74232766  0.74898014  1
  O  O395  1  0.37732891  0.49524339  0.48598798  1
  O  O396  1  0.36497341  0.48923750  1.00353819  1
  O  O397  1  0.37968237  0.99169581  0.49502655  1
  O  O398  1  0.37314166  0.99736222  0.99535925  1
  O  O399  1  0.87991693  0.48720123  0.50084519  1
  O  O400  1  0.88426200  0.49646125  0.99532610  1
  O  O401  1  0.88585742  0.99576153  0.49650299  1
  O  O402  1  0.87735883  1.00004006  0.99091927  1
  O  O403  1  0.12458652  0.01002076  0.00642452  1
  O  O404  1  0.12016723  0.00650971  0.50455031  1
  O  O405  1  0.11037992  0.49572650  -0.00425492  1
  O  O406  1  0.11825495  0.49506482  0.50028994  1
  O  O407  1  0.60135370  0.01450540  -0.01426406  1
  O  O408  1  0.62077689  0.00465913  0.50767575  1
  O  O409  1  0.63440111  0.50670041  0.01178725  1
  O  O410  1  0.62990624  0.50767993  0.49930469  1
  O  O411  1  0.36859942  0.36496233  0.12061592  1
  O  O412  1  0.37036855  0.36744833  0.61856960  1
  O  O413  1  0.36838486  0.86826474  0.11960309  1
  O  O414  1  0.37438753  0.86735463  0.61874458  1
  O  O415  1  0.88160495  0.36431122  0.11580896  1
  O  O416  1  0.87134589  0.36976026  0.61784014  1
  O  O417  1  0.88072209  0.86037257  0.12792253  1
  O  O418  1  0.86671781  0.87615546  0.61446917  1
  O  O419  1  0.12979469  0.13484063  0.38023764  1
  O  O420  1  0.11833911  0.13311882  0.88829788  1
  O  O421  1  0.13843412  0.63372618  0.37497374  1
  O  O422  1  0.13065378  0.64040543  0.87214939  1
  O  O423  1  0.63722205  0.12935753  0.38390429  1
  O  O424  1  0.60968929  0.13151469  0.89050386  1
  O  O425  1  0.63628575  0.62906392  0.36879752  1
  O  O426  1  0.62783538  0.62814824  0.87904252  1
