# generated using pymatgen
data_V85Zn86O256
_symmetry_space_group_name_H-M   'P 1'
_cell_length_a   16.96316994
_cell_length_b   16.95055588
_cell_length_c   16.96613238
_cell_angle_alpha   89.99240650
_cell_angle_beta   90.05238802
_cell_angle_gamma   89.93173227
_symmetry_Int_Tables_number   1
_chemical_formula_structural   V85Zn86O256
_chemical_formula_sum   'V85 Zn86 O256'
_cell_volume   4878.35404402
_cell_formula_units_Z   1
loop_
 _symmetry_equiv_pos_site_id
 _symmetry_equiv_pos_as_xyz
  1  'x, y, z'
loop_
 _atom_site_type_symbol
 _atom_site_label
 _atom_site_symmetry_multiplicity
 _atom_site_fract_x
 _atom_site_fract_y
 _atom_site_fract_z
 _atom_site_occupancy
  V  V0  1  0.49937662  0.37707097  0.37314302  1
  V  V1  1  0.37592382  0.62827643  0.24676247  1
  V  V2  1  0.50118224  -0.00363444  0.50050047  1
  V  V3  1  0.00231407  0.00062686  -0.00034444  1
  V  V4  1  0.37332009  0.49977328  0.37544145  1
  V  V5  1  0.01699895  0.75260694  0.74476273  1
  V  V6  1  0.12838042  0.87490831  0.25004102  1
  V  V7  1  0.50383260  0.62640023  0.11769305  1
  V  V8  1  -0.00154542  0.37548258  0.87486996  1
  V  V9  1  0.74304696  0.25165299  0.00668077  1
  V  V10  1  0.12383176  0.37027564  0.25364717  1
  V  V11  1  0.87697240  -0.00236364  0.87251917  1
  V  V12  1  0.88264246  0.74649206  0.62841865  1
  V  V13  1  0.00399790  0.12989438  0.12970877  1
  V  V14  1  0.00498267  0.01372799  0.49727994  1
  V  V15  1  0.62027458  0.24976611  0.37796870  1
  V  V16  1  0.87390667  0.38000918  0.00550541  1
  V  V17  1  0.87038118  0.11928781  0.24977774  1
  V  V18  1  0.62093368  0.24364880  0.87674390  1
  V  V19  1  0.87446952  0.00432906  0.37287756  1
  V  V20  1  0.87657060  0.25326593  0.12135879  1
  V  V21  1  0.50409112  0.49931028  0.50956018  1
  V  V22  1  0.51507169  0.74758853  0.25326632  1
  V  V23  1  0.25578354  0.00192776  0.24775291  1
  V  V24  1  0.50104258  0.12521483  0.62577807  1
  V  V25  1  0.24941425  0.24766350  0.00058604  1
  V  V26  1  0.74569682  0.75213784  -0.00328562  1
  V  V27  1  -0.00780239  0.47446331  0.48613751  1
  V  V28  1  0.49216585  0.75316109  0.74280222  1
  V  V29  1  0.49782824  0.50454316  -0.00055725  1
  V  V30  1  0.62514882  0.12401480  0.50279808  1
  V  V31  1  0.49980475  0.25123681  0.75012522  1
  V  V32  1  0.63478087  0.49998193  0.13315216  1
  V  V33  1  0.74661125  0.26172878  0.50808134  1
  V  V34  1  0.36565339  0.50450684  0.87392102  1
  V  V35  1  0.88081244  0.61621494  0.26004584  1
  V  V36  1  0.37190120  0.37564703  -0.00018137  1
  V  V37  1  0.36616318  0.63076551  0.74099490  1
  V  V38  1  0.12172232  0.24952546  0.87050116  1
  V  V39  1  0.23458302  0.63921138  0.87541276  1
  V  V40  1  0.11663846  0.37204082  0.74627377  1
  V  V41  1  0.75112408  0.87440634  0.62390958  1
  V  V42  1  0.24051405  0.50093396  0.24817857  1
  V  V43  1  0.74804107  0.12215248  0.37548179  1
  V  V44  1  0.00105883  0.87512033  0.36888026  1
  V  V45  1  0.12344429  0.12781232  0.00014249  1
  V  V46  1  0.12759692  0.64411493  0.00689869  1
  V  V47  1  0.75067472  -0.00520039  0.75111886  1
  V  V48  1  0.37270635  0.86766933  0.50461691  1
  V  V49  1  0.87766079  0.13077175  0.75067206  1
  V  V50  1  0.49437574  0.37503807  0.87266002  1
  V  V51  1  0.24487821  -0.00368949  0.74825013  1
  V  V52  1  0.25404536  0.12177846  0.37407190  1
  V  V53  1  0.66591095  0.06639171  0.05912658  1
  V  V54  1  0.49756587  0.87242729  0.88331381  1
  V  V55  1  0.37208024  0.23974394  0.12613652  1
  V  V56  1  0.37318079  0.75752933  0.11560056  1
  V  V57  1  0.01442025  0.87313539  0.86679714  1
  V  V58  1  0.74658286  0.74970008  0.49099776  1
  V  V59  1  0.24601590  0.37785086  0.62405501  1
  V  V60  1  -0.02119403  0.26385481  0.28194378  1
  V  V61  1  0.13032632  0.24278216  0.37767262  1
  V  V62  1  0.87080456  0.25742114  0.62810098  1
  V  V63  1  0.12388556  0.75114820  0.37831195  1
  V  V64  1  0.24811310  0.37921337  0.12522589  1
  V  V65  1  0.87844535  0.87844040  0.49972603  1
  V  V66  1  0.49928876  0.00165967  0.00275240  1
  V  V67  1  0.37419153  0.12592529  0.75064675  1
  V  V68  1  0.22871992  0.50436314  0.74778408  1
  V  V69  1  0.63071040  0.38869248  0.74481927  1
  V  V70  1  0.49828681  0.12231328  0.12495715  1
  V  V71  1  0.12524398  -0.00400829  0.62236509  1
  V  V72  1  0.62317926  0.86784971  0.75110841  1
  V  V73  1  0.49260498  0.24776972  0.25032679  1
  V  V74  1  0.88107188  0.75256749  0.13489324  1
  V  V75  1  0.01573324  0.49948590  0.00960919  1
  V  V76  1  0.00412651  0.13348744  0.62661142  1
  V  V77  1  0.24780748  0.62862707  0.37529809  1
  V  V78  1  0.24780940  0.24272532  0.50482250  1
  V  V79  1  0.68545237  0.57542037  -0.05645850  1
  V  V80  1  0.63207880  0.89633057  0.24772642  1
  V  V81  1  0.38069794  -0.00017697  0.37012502  1
  V  V82  1  0.74722277  0.12385525  0.87635791  1
  V  V83  1  0.87737638  0.87028463  -0.00582791  1
  V  V84  1  0.37432369  -0.00504154  0.87353208  1
  Zn  Zn85  1  0.49573749  0.62707637  0.62350216  1
  Zn  Zn86  1  0.01640834  0.59936589  0.62276325  1
  Zn  Zn87  1  0.00801053  0.62825081  0.13413161  1
  Zn  Zn88  1  0.74695638  0.88487256  0.12439217  1
  Zn  Zn89  1  0.24747196  0.86355702  0.11172122  1
  Zn  Zn90  1  0.62156120  0.62802144  0.49730814  1
  Zn  Zn91  1  0.61947048  0.74441944  0.88421324  1
  Zn  Zn92  1  0.75071134  0.40539062  0.62536520  1
  Zn  Zn93  1  0.84721730  0.59518277  0.74966187  1
  Zn  Zn94  1  0.74180805  0.62079180  0.36785360  1
  Zn  Zn95  1  0.24797764  0.12560961  0.87384878  1
  Zn  Zn96  1  0.25039227  0.86820725  0.63081339  1
  Zn  Zn97  1  0.12351646  0.60672130  0.50589754  1
  Zn  Zn98  1  0.76345623  0.48109115  0.25995007  1
  Zn  Zn99  1  0.62517781  -0.00173018  0.62666938  1
  Zn  Zn100  1  0.12612944  -0.00253665  0.12568684  1
  Zn  Zn101  1  0.62878149  0.37222846  0.24371040  1
  Zn  Zn102  1  0.50879642  0.86764354  0.37702124  1
  Zn  Zn103  1  0.25368416  0.74247695  0.51040325  1
  Zn  Zn104  1  0.37398738  0.25048776  0.62510133  1
  Zn  Zn105  1  0.37173546  0.37336484  0.50155620  1
  Zn  Zn106  1  0.86811197  0.50511228  0.88038030  1
  Zn  Zn107  1  0.18920629  0.18609944  0.19342912  1
  Zn  Zn108  1  0.18531444  0.18503350  0.68732246  1
  Zn  Zn109  1  0.18849855  0.69226799  0.19075001  1
  Zn  Zn110  1  0.18474263  0.69193707  0.67788961  1
  Zn  Zn111  1  0.68882853  0.19706658  0.19542869  1
  Zn  Zn112  1  0.68590668  0.18746955  0.69194314  1
  Zn  Zn113  1  0.69562286  0.68377434  0.18020019  1
  Zn  Zn114  1  0.69076235  0.59764851  0.67137057  1
  Zn  Zn115  1  0.31268942  0.31181191  0.31266394  1
  Zn  Zn116  1  0.30680720  0.31311214  0.81066893  1
  Zn  Zn117  1  0.31764680  0.81401260  0.31033487  1
  Zn  Zn118  1  0.30951971  0.81411952  0.81372522  1
  Zn  Zn119  1  0.80607547  0.31030054  0.31581987  1
  Zn  Zn120  1  0.81167428  0.31591607  0.81524163  1
  Zn  Zn121  1  0.80892135  0.82017943  0.30928597  1
  Zn  Zn122  1  0.77789868  0.75720682  0.78155042  1
  Zn  Zn123  1  0.18193587  0.43416942  0.43723292  1
  Zn  Zn124  1  0.18534354  0.43871357  0.93496268  1
  Zn  Zn125  1  0.18801438  0.94135579  0.43904436  1
  Zn  Zn126  1  0.18936345  0.93770814  0.93875865  1
  Zn  Zn127  1  0.68760392  0.44238291  0.43443812  1
  Zn  Zn128  1  0.68289736  0.41467851  0.94020159  1
  Zn  Zn129  1  0.68646728  0.93543395  0.43194633  1
  Zn  Zn130  1  0.69025537  0.92775559  0.93250709  1
  Zn  Zn131  1  0.29736455  0.03339271  0.04547218  1
  Zn  Zn132  1  0.31485805  0.06020657  0.56162312  1
  Zn  Zn133  1  0.30880068  0.56779273  0.06268144  1
  Zn  Zn134  1  0.30648335  0.55888903  0.56197410  1
  Zn  Zn135  1  0.82815348  0.06409368  0.05923702  1
  Zn  Zn136  1  0.81393632  0.06493805  0.56344328  1
  Zn  Zn137  1  0.82240077  0.56315033  0.07312255  1
  Zn  Zn138  1  0.82681733  0.56253343  0.55105741  1
  Zn  Zn139  1  0.43596975  0.43875557  0.18760302  1
  Zn  Zn140  1  0.42763683  0.43724494  0.69153820  1
  Zn  Zn141  1  0.44306233  0.93361459  0.18864065  1
  Zn  Zn142  1  0.43735749  0.93796608  0.68716910  1
  Zn  Zn143  1  0.94276947  0.43853149  0.18760675  1
  Zn  Zn144  1  0.93633712  0.43971631  0.68449916  1
  Zn  Zn145  1  0.93890356  0.93759252  0.18536367  1
  Zn  Zn146  1  0.94034288  0.94032325  0.68636614  1
  Zn  Zn147  1  0.06519927  0.06675325  0.31230205  1
  Zn  Zn148  1  0.06171452  0.06225373  0.80910749  1
  Zn  Zn149  1  0.05723054  0.56282924  0.31894946  1
  Zn  Zn150  1  0.02323526  0.58088459  0.82994143  1
  Zn  Zn151  1  0.55811289  0.06654916  0.31185086  1
  Zn  Zn152  1  0.56294471  0.05891995  0.81184055  1
  Zn  Zn153  1  0.56766368  0.56668500  0.31663119  1
  Zn  Zn154  1  0.55061067  0.56304212  0.80756652  1
  Zn  Zn155  1  0.43236688  0.18547287  0.43973695  1
  Zn  Zn156  1  0.43820536  0.18179295  0.94138903  1
  Zn  Zn157  1  0.43912178  0.68539659  0.43248236  1
  Zn  Zn158  1  0.43126753  0.68776052  0.93448466  1
  Zn  Zn159  1  0.93034945  0.20638312  0.43984246  1
  Zn  Zn160  1  0.93812129  0.18971412  0.93672546  1
  Zn  Zn161  1  0.94504187  0.68522041  0.44015493  1
  Zn  Zn162  1  0.93688039  0.69138914  0.93465906  1
  Zn  Zn163  1  0.06434052  0.31399555  0.06582760  1
  Zn  Zn164  1  0.06112926  0.31632693  0.56084960  1
  Zn  Zn165  1  0.06054508  0.81598010  0.06484915  1
  Zn  Zn166  1  0.06489033  0.81663582  0.55556817  1
  Zn  Zn167  1  0.55839584  0.31579612  0.06269835  1
  Zn  Zn168  1  0.56118018  0.31639281  0.56489604  1
  Zn  Zn169  1  0.56406387  0.81566287  0.06755182  1
  Zn  Zn170  1  0.56462168  0.80966088  0.56539298  1
  O  O171  1  0.11415238  0.13041554  0.12259081  1
  O  O172  1  0.10928074  0.12070244  0.62843516  1
  O  O173  1  0.12649201  0.63331437  0.11253244  1
  O  O174  1  0.12994663  0.61695088  0.62022701  1
  O  O175  1  0.61846404  0.13062335  0.12712846  1
  O  O176  1  0.61803853  0.12091795  0.62206996  1
  O  O177  1  0.61570151  0.61224041  0.12521266  1
  O  O178  1  0.60812271  0.63553858  0.60982657  1
  O  O179  1  0.38327549  0.38177984  0.37368941  1
  O  O180  1  0.37471267  0.38313929  0.87802309  1
  O  O181  1  0.38137152  0.88522740  0.38345275  1
  O  O182  1  0.38135835  0.88760090  0.87228873  1
  O  O183  1  0.90989642  0.29881107  0.35722929  1
  O  O184  1  0.88289695  0.37158234  0.88992532  1
  O  O185  1  0.88269501  0.88491865  0.37770242  1
  O  O186  1  0.88522155  0.88117724  0.88756393  1
  O  O187  1  0.25884153  0.00458209  0.36862700  1
  O  O188  1  0.25825235  0.00538651  0.86576635  1
  O  O189  1  0.25570529  0.50409622  0.36730909  1
  O  O190  1  0.25077245  0.50644996  0.86694045  1
  O  O191  1  0.75731316  0.01499740  0.38249479  1
  O  O192  1  0.75638534  0.00325542  0.87053824  1
  O  O193  1  0.74801068  0.50488042  0.36970592  1
  O  O194  1  0.74214686  0.50796353  0.89240463  1
  O  O195  1  0.25758396  0.49108592  0.13566691  1
  O  O196  1  0.25203609  0.48979359  0.63702764  1
  O  O197  1  0.24449965  1.02081966  0.14624998  1
  O  O198  1  0.24168295  1.00311281  0.63051284  1
  O  O199  1  0.73701771  0.50587783  0.12907218  1
  O  O200  1  0.75871149  0.51701470  0.62792229  1
  O  O201  1  0.73907757  1.00924868  0.10804618  1
  O  O202  1  0.75086168  0.98903263  0.63124920  1
  O  O203  1  0.00996284  0.36369005  0.24327382  1
  O  O204  1  0.01075927  0.37444063  0.76043624  1
  O  O205  1  0.00979996  0.88620476  0.26180067  1
  O  O206  1  -0.00059109  0.87625207  0.76206294  1
  O  O207  1  0.50057968  0.36783669  0.25677843  1
  O  O208  1  0.50283649  0.37089238  0.75519305  1
  O  O209  1  0.51333226  0.86248303  0.24973108  1
  O  O210  1  0.50218403  0.87264444  0.75929159  1
  O  O211  1  0.50021385  0.13357619  0.23647598  1
  O  O212  1  0.49433289  0.12919186  0.74534578  1
  O  O213  1  0.49736708  0.63272723  0.23982843  1
  O  O214  1  0.48445052  0.63546725  0.74997856  1
  O  O215  1  0.99151593  0.13822262  0.24633801  1
  O  O216  1  0.98787902  0.12171385  0.74159486  1
  O  O217  1  0.98839941  0.62550764  0.24916245  1
  O  O218  1  1.00953006  0.64786791  0.73733048  1
  O  O219  1  0.36931603  0.25526047  0.00561024  1
  O  O220  1  0.36286581  0.25286070  0.50235853  1
  O  O221  1  0.37908776  0.74812965  0.01648470  1
  O  O222  1  0.37707423  0.76513064  0.49120483  1
  O  O223  1  0.86780140  0.25291936  0.00776165  1
  O  O224  1  0.85700953  0.24519548  0.51609449  1
  O  O225  1  0.87237493  0.75616699  0.00456541  1
  O  O226  1  0.87864266  0.76598631  0.50684682  1
  O  O227  1  0.13973829  0.25302930  0.49242140  1
  O  O228  1  0.12951182  0.24644182  0.99281695  1
  O  O229  1  0.13348233  0.75676907  0.48518582  1
  O  O230  1  0.12329086  0.74247767  0.99930372  1
  O  O231  1  0.62567052  0.24381190  0.49691539  1
  O  O232  1  0.63176528  0.26083492  0.99091965  1
  O  O233  1  0.64512143  0.76104315  0.50005253  1
  O  O234  1  0.63554614  0.75367056  1.00256766  1
  O  O235  1  0.49282635  0.24644310  0.13052142  1
  O  O236  1  0.49688144  0.24360797  0.63145781  1
  O  O237  1  0.49397443  0.74273930  0.13106423  1
  O  O238  1  0.49457002  0.75677407  0.64010025  1
  O  O239  1  0.99093322  0.24346933  0.12321392  1
  O  O240  1  0.98757578  0.24209564  0.61941148  1
  O  O241  1  0.98480559  0.75008959  0.11965428  1
  O  O242  1  0.99324600  0.76948614  0.63326113  1
  O  O243  1  0.02625296  0.22095138  0.37757368  1
  O  O244  1  0.00862023  0.26425866  0.88401019  1
  O  O245  1  0.00971608  0.76544544  0.37918110  1
  O  O246  1  -0.00114341  0.76492324  0.85783771  1
  O  O247  1  0.49714109  0.25460639  0.36839448  1
  O  O248  1  0.50461407  0.25297803  0.87288341  1
  O  O249  1  0.49791511  0.74913390  0.35687253  1
  O  O250  1  0.49706964  0.75908769  0.87093099  1
  O  O251  1  0.25751029  0.13132349  0.49030494  1
  O  O252  1  0.24078285  0.12881509  0.99762470  1
  O  O253  1  0.24794942  0.62253208  0.48542566  1
  O  O254  1  0.23448812  0.62070666  0.98934375  1
  O  O255  1  0.74040092  0.12890087  0.49669953  1
  O  O256  1  0.74069707  0.12616037  0.99714880  1
  O  O257  1  0.75796051  0.64550999  0.49831125  1
  O  O258  1  0.75126761  0.63007869  1.00223577  1
  O  O259  1  0.25237339  0.37028519  0.00733107  1
  O  O260  1  0.25003377  0.36793270  0.50984059  1
  O  O261  1  0.26221503  0.92407303  0.01917948  1
  O  O262  1  0.26690429  0.87913870  0.49739757  1
  O  O263  1  0.76140521  0.36352082  0.00186489  1
  O  O264  1  0.73680681  0.36476112  0.50911106  1
  O  O265  1  0.76056084  0.87020285  0.00360308  1
  O  O266  1  0.75976222  0.87588996  0.50452599  1
  O  O267  1  0.13560872  0.49115599  0.25593091  1
  O  O268  1  0.12833657  0.48999380  0.75699791  1
  O  O269  1  0.13424567  0.99120991  0.25301326  1
  O  O270  1  0.13507874  1.00828013  0.73931392  1
  O  O271  1  0.62088242  0.49744113  0.23775094  1
  O  O272  1  0.61850716  0.48966586  0.75240622  1
  O  O273  1  0.62008806  0.99483519  0.24739884  1
  O  O274  1  0.63212644  0.98674264  0.75092953  1
  O  O275  1  0.37049019  -0.00768802  0.25885683  1
  O  O276  1  0.37125158  0.00809524  0.75541866  1
  O  O277  1  0.36784491  0.50527769  0.25910295  1
  O  O278  1  0.36405060  0.50817139  0.76170713  1
  O  O279  1  0.87841704  0.01356240  0.25134731  1
  O  O280  1  0.86885112  0.00751040  0.75418784  1
  O  O281  1  0.87691196  0.51133727  0.24566584  1
  O  O282  1  0.88248515  0.49145501  0.76654953  1
  O  O283  1  0.13759915  0.35885621  0.36022043  1
  O  O284  1  0.11966730  0.36705493  0.86959637  1
  O  O285  1  0.11988922  0.87357824  0.37031399  1
  O  O286  1  0.11292681  0.88089792  0.87804623  1
  O  O287  1  0.60923474  0.36812509  0.37709362  1
  O  O288  1  0.61361903  0.36542925  0.86478790  1
  O  O289  1  0.62461010  0.87804325  0.35575762  1
  O  O290  1  0.61371195  0.87322629  0.86793741  1
  O  O291  1  0.38198117  0.13760019  0.11793275  1
  O  O292  1  0.38172151  0.12450644  0.63659586  1
  O  O293  1  0.38295484  0.63037543  0.12925137  1
  O  O294  1  0.37187391  0.61875234  0.63874588  1
  O  O295  1  0.88621592  0.13063216  0.12974501  1
  O  O296  1  0.88093503  0.13008043  0.63468410  1
  O  O297  1  0.88194111  0.63861508  0.13521292  1
  O  O298  1  0.88479616  0.64410130  0.62465941  1
  O  O299  1  0.25688120  0.25392640  0.12202126  1
  O  O300  1  0.25017149  0.25233061  0.61867263  1
  O  O301  1  0.26739542  0.74896636  0.12889357  1
  O  O302  1  0.25593948  0.75639937  0.62272257  1
  O  O303  1  0.75737683  0.24043729  0.11255328  1
  O  O304  1  0.75441212  0.24312593  0.61946225  1
  O  O305  1  0.76470014  0.75222812  0.11257676  1
  O  O306  1  0.76973602  0.76641476  0.61137251  1
  O  O307  1  0.24928620  0.24084470  0.38060944  1
  O  O308  1  0.24123469  0.24832400  0.88296300  1
  O  O309  1  0.24724790  0.74129533  0.37431779  1
  O  O310  1  0.24679053  0.73771937  0.87328159  1
  O  O311  1  0.74151645  0.24031766  0.38957441  1
  O  O312  1  0.74267696  0.24377339  0.88680339  1
  O  O313  1  0.76015454  0.75699706  0.39040489  1
  O  O314  1  0.74578188  0.75488709  0.89204697  1
  O  O315  1  0.00358087  0.12261352  0.00855044  1
  O  O316  1  -0.01313654  0.11725372  0.50932520  1
  O  O317  1  0.01633746  0.61646652  -0.00032164  1
  O  O318  1  0.00674504  0.62058240  0.50451603  1
  O  O319  1  0.50738038  0.12056593  0.01359856  1
  O  O320  1  0.50443779  0.11778187  0.50590190  1
  O  O321  1  0.49371990  0.61997011  0.00906643  1
  O  O322  1  0.48950043  0.60844585  0.49983642  1
  O  O323  1  0.49320386  0.38283963  0.49362303  1
  O  O324  1  0.49029471  0.38288863  0.99238349  1
  O  O325  1  0.49524820  0.88020638  0.49820275  1
  O  O326  1  0.50384124  0.88432320  0.99084036  1
  O  O327  1  0.99465248  0.37175411  0.49126234  1
  O  O328  1  0.99697767  0.38433677  1.00012944  1
  O  O329  1  0.99513316  0.88886913  0.48855711  1
  O  O330  1  0.99680434  0.87982702  0.99035835  1
  O  O331  1  0.49150450  0.49258774  0.37868352  1
  O  O332  1  0.48628054  0.49744979  0.88055919  1
  O  O333  1  0.49529661  0.99912145  0.38260086  1
  O  O334  1  0.49420735  0.99340805  0.87904503  1
  O  O335  1  1.00322312  0.49148007  0.38386100  1
  O  O336  1  1.00694000  0.48420569  0.89201132  1
  O  O337  1  0.99491803  1.00148103  0.38114568  1
  O  O338  1  0.99625773  0.99201531  0.87760360  1
  O  O339  1  0.00288924  0.01116722  0.11966542  1
  O  O340  1  0.00662637  0.00833856  0.61724139  1
  O  O341  1  -0.00016747  0.50531118  0.11232468  1
  O  O342  1  -0.00439370  0.48811006  0.60520838  1
  O  O343  1  0.49524233  0.00840328  0.11571548  1
  O  O344  1  0.50229798  0.00636852  0.61748200  1
  O  O345  1  0.50328182  0.50801722  0.11753850  1
  O  O346  1  0.48656563  0.49593085  0.61071795  1
  O  O347  1  0.24647324  0.38079827  0.24352258  1
  O  O348  1  0.23794583  0.38255903  0.74594623  1
  O  O349  1  0.24536228  0.88529082  0.24706294  1
  O  O350  1  0.25703010  0.89213480  0.74829611  1
  O  O351  1  0.74295447  0.36859996  0.24968228  1
  O  O352  1  0.73236226  0.37424154  0.75503257  1
  O  O353  1  0.73820634  0.88133401  0.24400882  1
  O  O354  1  0.74101493  0.86902628  0.74200879  1
  O  O355  1  0.25377590  0.12073384  0.26478557  1
  O  O356  1  0.25948771  0.11853652  0.75109022  1
  O  O357  1  0.25232648  0.61738045  0.25738877  1
  O  O358  1  0.24795337  0.62054034  0.76064272  1
  O  O359  1  0.75808563  0.13290622  0.26241282  1
  O  O360  1  0.75474255  0.11671018  0.75855188  1
  O  O361  1  0.76987311  0.62950380  0.24853929  1
  O  O362  1  0.75239859  0.65148606  0.74913055  1
  O  O363  1  0.37112284  0.10911342  0.37852499  1
  O  O364  1  0.37744990  0.11727885  0.86360946  1
  O  O365  1  0.36727393  0.61783744  0.36711882  1
  O  O366  1  0.35801809  0.61941931  0.87137903  1
  O  O367  1  0.86740019  0.12456073  0.36750919  1
  O  O368  1  0.87093499  0.11976930  0.87011881  1
  O  O369  1  0.87572344  0.63777303  0.35926350  1
  O  O370  1  0.90827343  0.61423435  0.86078562  1
  O  O371  1  0.14019654  0.36620003  0.13706895  1
  O  O372  1  0.13423513  0.36370332  0.63684413  1
  O  O373  1  0.12839665  0.87714147  0.13421302  1
  O  O374  1  0.12803324  0.89250147  0.61786265  1
  O  O375  1  0.61636522  0.39620678  0.12085505  1
  O  O376  1  0.62703383  0.37223098  0.64217996  1
  O  O377  1  0.62751766  0.87555556  0.14110069  1
  O  O378  1  0.63410455  0.87594393  0.63254888  1
  O  O379  1  0.11879732  0.25430126  0.25923960  1
  O  O380  1  0.13014348  0.25593506  0.76335981  1
  O  O381  1  0.13242410  0.76643153  0.26141747  1
  O  O382  1  0.11448967  0.76295321  0.74324936  1
  O  O383  1  0.60982657  0.25178581  0.25904114  1
  O  O384  1  0.61687404  0.25561926  0.75937212  1
  O  O385  1  0.61510253  0.74554036  0.24023503  1
  O  O386  1  0.61032282  0.76301146  0.75929792  1
  O  O387  1  0.38444439  0.25385526  0.24119122  1
  O  O388  1  0.38030478  0.24224765  0.75198532  1
  O  O389  1  0.38604291  0.74411207  0.24244369  1
  O  O390  1  0.37912317  0.74133106  0.75891264  1
  O  O391  1  0.87427713  0.23821550  0.23130794  1
  O  O392  1  0.86492705  0.23663515  0.74824124  1
  O  O393  1  0.87448732  0.75725709  0.23598961  1
  O  O394  1  0.88430023  0.76480829  0.73092220  1
  O  O395  1  0.37580554  0.49614833  0.48610083  1
  O  O396  1  0.37353109  0.49685191  0.99003986  1
  O  O397  1  0.38723785  0.99373867  0.49375992  1
  O  O398  1  0.39314805  1.01452715  0.98495283  1
  O  O399  1  0.89070986  0.49762767  0.48958281  1
  O  O400  1  0.88356060  0.49353445  1.00065117  1
  O  O401  1  0.88168452  0.99389863  0.49510851  1
  O  O402  1  0.88436378  0.99211318  0.99292605  1
  O  O403  1  0.11716059  0.01274958  0.00195577  1
  O  O404  1  0.11514253  0.00409554  0.50500693  1
  O  O405  1  0.11746329  0.50028840  0.00520933  1
  O  O406  1  0.10809154  0.49205932  0.49388714  1
  O  O407  1  0.61578580  0.00063479  -0.00791568  1
  O  O408  1  0.61393421  0.00234008  0.50003519  1
  O  O409  1  0.62499553  0.50633632  0.00007161  1
  O  O410  1  0.60499479  0.49546906  0.50013783  1
  O  O411  1  0.36538582  0.36712176  0.12055471  1
  O  O412  1  0.35827273  0.37004694  0.62838916  1
  O  O413  1  0.37791504  0.85973585  0.12912384  1
  O  O414  1  0.37482006  0.88446095  0.60708883  1
  O  O415  1  0.88177358  0.36688584  0.11463692  1
  O  O416  1  0.86242071  0.35906623  0.64039752  1
  O  O417  1  0.87546235  0.86965717  0.11434889  1
  O  O418  1  0.87113259  0.87917461  0.61473001  1
  O  O419  1  0.14376897  0.12758438  0.37260756  1
  O  O420  1  0.12125173  0.13418272  0.88015396  1
  O  O421  1  0.13243517  0.63625167  0.37213432  1
  O  O422  1  0.13021850  0.62282606  0.88472336  1
  O  O423  1  0.62956981  0.13036712  0.38045602  1
  O  O424  1  0.62798522  0.13668965  0.86974158  1
  O  O425  1  0.62742912  0.62926518  0.38442532  1
  O  O426  1  0.62163565  0.62398694  0.87931301  1
