# generated using pymatgen
data_V85Zn86O256
_symmetry_space_group_name_H-M   'P 1'
_cell_length_a   16.92216859
_cell_length_b   16.92767594
_cell_length_c   16.91708875
_cell_angle_alpha   90.07997636
_cell_angle_beta   89.97362801
_cell_angle_gamma   89.97291504
_symmetry_Int_Tables_number   1
_chemical_formula_structural   V85Zn86O256
_chemical_formula_sum   'V85 Zn86 O256'
_cell_volume   4845.94481307
_cell_formula_units_Z   1
loop_
 _symmetry_equiv_pos_site_id
 _symmetry_equiv_pos_as_xyz
  1  'x, y, z'
loop_
 _atom_site_type_symbol
 _atom_site_label
 _atom_site_symmetry_multiplicity
 _atom_site_fract_x
 _atom_site_fract_y
 _atom_site_fract_z
 _atom_site_occupancy
  V  V0  1  0.74843023  0.50327389  0.74560731  1
  V  V1  1  0.87564987  0.12729616  0.74789018  1
  V  V2  1  0.86243032  0.25661528  0.12012601  1
  V  V3  1  0.38165757  0.38054785  -0.01106977  1
  V  V4  1  0.12563487  0.87454442  0.24836101  1
  V  V5  1  0.50460956  -0.00176243  -0.00176722  1
  V  V6  1  0.62681954  0.24642452  0.37190019  1
  V  V7  1  0.37694207  0.00393054  0.37931372  1
  V  V8  1  0.12738276  0.37208336  0.74276097  1
  V  V9  1  0.49551327  0.62454657  0.12354853  1
  V  V10  1  0.25691867  0.86624247  0.12578411  1
  V  V11  1  -0.00164164  0.37271152  0.87411073  1
  V  V12  1  0.74785207  0.75253885  -0.01151976  1
  V  V13  1  0.24841068  0.37027180  0.11500690  1
  V  V14  1  0.37447110  0.26518858  0.62947462  1
  V  V15  1  0.87298744  0.50287001  0.87158327  1
  V  V16  1  0.61473928  0.12355829  0.49958930  1
  V  V17  1  0.25860885  0.74742579  0.50472692  1
  V  V18  1  0.25067110  0.12441851  0.88551120  1
  V  V19  1  0.12773129  0.24895002  0.88404256  1
  V  V20  1  0.87932752  0.00237785  0.88130910  1
  V  V21  1  0.62612169  0.13661960  -0.00292574  1
  V  V22  1  0.50681532  0.87765381  0.37335952  1
  V  V23  1  0.87327396  0.87112541  0.49876657  1
  V  V24  1  0.61607406  -0.00062361  0.62224065  1
  V  V25  1  0.24587557  -0.00471515  0.75262001  1
  V  V26  1  0.75048453  0.87017591  0.62081432  1
  V  V27  1  0.37986316  0.87777350  0.50127030  1
  V  V28  1  0.25276321  0.49848581  0.24973387  1
  V  V29  1  0.00198158  0.00070950  0.49912725  1
  V  V30  1  0.50192524  0.50620170  0.49981886  1
  V  V31  1  0.13246417  0.23938917  0.37503697  1
  V  V32  1  0.61926727  0.37504883  0.76139702  1
  V  V33  1  0.88000144  0.74330027  0.62340267  1
  V  V34  1  0.25064490  0.24909115  0.50747587  1
  V  V35  1  0.49961367  0.25627462  0.24864602  1
  V  V36  1  0.12790731  0.74957539  0.37463484  1
  V  V37  1  0.36171695  0.62957087  0.74718962  1
  V  V38  1  0.74551713  0.13829241  0.87806365  1
  V  V39  1  0.74923123  0.23928413  0.49812505  1
  V  V40  1  0.61566543  0.50304834  0.62006173  1
  V  V41  1  0.62811004  0.48989812  0.12702066  1
  V  V42  1  0.25186979  0.49743948  0.76444957  1
  V  V43  1  0.62719572  0.86894750  0.75381527  1
  V  V44  1  0.74264451  0.87474078  0.12849232  1
  V  V45  1  0.36903421  0.12772961  0.25319983  1
  V  V46  1  0.49886102  0.37497198  0.37562521  1
  V  V47  1  0.12779399  0.50365306  0.62709168  1
  V  V48  1  0.62504307  0.62815120  -0.00515820  1
  V  V49  1  0.75078734  0.63493570  0.37902846  1
  V  V50  1  0.62610315  0.63311624  0.50002956  1
  V  V51  1  0.74170893  0.00010316  0.25310724  1
  V  V52  1  0.74592876  0.37454031  0.61973911  1
  V  V53  1  -0.00040137  0.62345150  0.12263881  1
  V  V54  1  0.37571677  0.12374964  0.74701745  1
  V  V55  1  0.87019447  0.62375208  0.24760334  1
  V  V56  1  0.49825854  0.74334310  0.73168825  1
  V  V57  1  0.87562550  0.50029388  0.37573042  1
  V  V58  1  0.49916636  0.12467990  0.12377781  1
  V  V59  1  0.50606321  0.86179788  0.87514566  1
  V  V60  1  0.88377270  0.87846345  0.00143753  1
  V  V61  1  0.37578171  0.50116463  0.37522356  1
  V  V62  1  -0.00194759  0.49952357  -0.00190306  1
  V  V63  1  0.50160511  0.75691074  0.24291107  1
  V  V64  1  0.00825479  0.75279888  0.74940044  1
  V  V65  1  0.87096338  0.12701830  0.25279237  1
  V  V66  1  0.87022858  0.00490039  0.37613231  1
  V  V67  1  0.12719508  0.37352766  0.25126158  1
  V  V68  1  0.12400951  0.49843224  0.12464486  1
  V  V69  1  0.87257093  0.74925216  0.12212989  1
  V  V70  1  0.37019272  0.24888372  0.11550420  1
  V  V71  1  0.25160611  0.62336032  0.37656456  1
  V  V72  1  -0.00293381  0.12182867  0.11684271  1
  V  V73  1  0.13655075  0.75319621  0.87575622  1
  V  V74  1  0.25278178  0.87259706  0.62703017  1
  V  V75  1  0.11969564  0.62698886  0.50572116  1
  V  V76  1  0.37913643  0.86199896  0.00351839  1
  V  V77  1  0.37749962  -0.00318187  0.87538048  1
  V  V78  1  0.87437444  0.37349158  0.50024407  1
  V  V79  1  0.74865644  0.00028115  0.75175210  1
  V  V80  1  0.12428113  -0.00213933  0.62889389  1
  V  V81  1  0.24925957  0.00160924  0.25262752  1
  V  V82  1  0.00518220  0.37465392  0.37953678  1
  V  V83  1  0.00081630  0.74967243  0.24800112  1
  V  V84  1  0.50285020  0.25334105  0.76173675  1
  Zn  Zn85  1  0.85996406  0.37370638  0.00275187  1
  Zn  Zn86  1  0.11847232  -0.00438157  0.11863075  1
  Zn  Zn87  1  0.00183993  0.24762034  0.74752201  1
  Zn  Zn88  1  0.00688756  0.88094781  0.87279999  1
  Zn  Zn89  1  0.88073790  0.62385350  0.74262854  1
  Zn  Zn90  1  0.36930264  0.38208433  0.50776352  1
  Zn  Zn91  1  0.12189832  0.11844257  -0.00059960  1
  Zn  Zn92  1  0.74848727  0.48315392  0.24229511  1
  Zn  Zn93  1  -0.00020928  0.87586685  0.37264179  1
  Zn  Zn94  1  0.74882278  0.63029491  0.86951713  1
  Zn  Zn95  1  0.62944991  0.75637693  0.37181116  1
  Zn  Zn96  1  0.13228545  0.11970169  0.49632004  1
  Zn  Zn97  1  0.13153378  0.62082177  -0.01140667  1
  Zn  Zn98  1  0.62337022  -0.00063558  0.12911599  1
  Zn  Zn99  1  0.49762809  0.12585399  0.62483552  1
  Zn  Zn100  1  0.00174671  0.12714779  0.62436436  1
  Zn  Zn101  1  0.87699461  0.24867469  0.62405609  1
  Zn  Zn102  1  -0.00058320  0.24910184  0.25018075  1
  Zn  Zn103  1  0.50193793  0.50011412  -0.01312941  1
  Zn  Zn104  1  0.37336372  0.63186198  0.24452405  1
  Zn  Zn105  1  -0.00204175  0.50578963  0.51077716  1
  Zn  Zn106  1  0.25788439  0.73840000  0.00137366  1
  Zn  Zn107  1  0.18539950  0.18712280  0.18546322  1
  Zn  Zn108  1  0.18773696  0.18360999  0.68959269  1
  Zn  Zn109  1  0.18875966  0.68358979  0.18338076  1
  Zn  Zn110  1  0.18555056  0.68859663  0.68841688  1
  Zn  Zn111  1  0.68547333  0.18438268  0.18888805  1
  Zn  Zn112  1  0.68594614  0.18913489  0.68795707  1
  Zn  Zn113  1  0.68279520  0.68585851  0.18569639  1
  Zn  Zn114  1  0.68782808  0.68830665  0.68275533  1
  Zn  Zn115  1  0.31153599  0.31274128  0.31405169  1
  Zn  Zn116  1  0.30595812  0.30774237  0.81146224  1
  Zn  Zn117  1  0.31770065  0.81210701  0.31368207  1
  Zn  Zn118  1  0.31877676  0.81164214  0.81070100  1
  Zn  Zn119  1  0.81074421  0.30899072  0.31065966  1
  Zn  Zn120  1  0.80994765  0.31634461  0.81043079  1
  Zn  Zn121  1  0.81335864  0.81559510  0.31073048  1
  Zn  Zn122  1  0.82029129  0.81522104  0.80926253  1
  Zn  Zn123  1  0.18968039  0.43518217  0.44327823  1
  Zn  Zn124  1  0.18549041  0.43440167  0.93763569  1
  Zn  Zn125  1  0.19076491  0.93654002  0.43615941  1
  Zn  Zn126  1  0.18653658  0.93340339  0.94127542  1
  Zn  Zn127  1  0.69970405  0.42338218  0.40780327  1
  Zn  Zn128  1  0.68730823  0.43918515  0.94023815  1
  Zn  Zn129  1  0.68963265  0.94111271  0.43997389  1
  Zn  Zn130  1  0.69138715  0.94045603  0.93771094  1
  Zn  Zn131  1  0.31279952  0.05283019  0.06504201  1
  Zn  Zn132  1  0.30996223  0.06538474  0.56197603  1
  Zn  Zn133  1  0.31291023  0.55978182  0.05982316  1
  Zn  Zn134  1  0.31369759  0.56059422  0.57352047  1
  Zn  Zn135  1  0.81037251  0.06424780  0.06374968  1
  Zn  Zn136  1  0.80895942  0.05910172  0.56443137  1
  Zn  Zn137  1  0.80680336  0.55578970  0.05765321  1
  Zn  Zn138  1  0.80729905  0.56238347  0.55731837  1
  Zn  Zn139  1  0.43886238  0.43911789  0.18259402  1
  Zn  Zn140  1  0.43554832  0.44098185  0.81014313  1
  Zn  Zn141  1  0.43779043  0.93741821  0.18828782  1
  Zn  Zn142  1  0.43691670  0.93419710  0.68838024  1
  Zn  Zn143  1  0.93832443  0.43565058  0.19139677  1
  Zn  Zn144  1  0.93963611  0.43690913  0.68601110  1
  Zn  Zn145  1  0.93362010  0.93904410  0.18739203  1
  Zn  Zn146  1  0.93759155  0.93717432  0.68919235  1
  Zn  Zn147  1  0.05670035  0.06154079  0.30772212  1
  Zn  Zn148  1  0.06232579  0.06226775  0.81283913  1
  Zn  Zn149  1  0.06241149  0.56257292  0.31386650  1
  Zn  Zn150  1  0.06248293  0.56874474  0.80835249  1
  Zn  Zn151  1  0.55703183  0.06704538  0.31426315  1
  Zn  Zn152  1  0.56283593  0.06113019  0.81170285  1
  Zn  Zn153  1  0.56386070  0.56647370  0.30891626  1
  Zn  Zn154  1  0.56483884  0.56771631  0.81178174  1
  Zn  Zn155  1  0.43358289  0.18807461  0.43925296  1
  Zn  Zn156  1  0.43563261  0.18694293  0.93772041  1
  Zn  Zn157  1  0.43977516  0.68992348  0.43364185  1
  Zn  Zn158  1  0.43964613  0.67931729  0.92846837  1
  Zn  Zn159  1  0.94031457  0.18682301  0.43725533  1
  Zn  Zn160  1  0.93325853  0.19079513  0.93817807  1
  Zn  Zn161  1  0.93995148  0.69063061  0.43547870  1
  Zn  Zn162  1  0.94146539  0.68832201  0.93260491  1
  Zn  Zn163  1  0.05402282  0.30826090  0.06235503  1
  Zn  Zn164  1  0.06360011  0.31049248  0.56317167  1
  Zn  Zn165  1  0.06626069  0.81063491  0.06012070  1
  Zn  Zn166  1  0.06428639  0.81520697  0.56455176  1
  Zn  Zn167  1  0.56258301  0.31382053  0.06156783  1
  Zn  Zn168  1  0.55763674  0.31485676  0.56491071  1
  Zn  Zn169  1  0.56566147  0.80951936  0.06413797  1
  Zn  Zn170  1  0.56328424  0.81605533  0.55819156  1
  O  O171  1  0.10828690  0.12723471  0.12532455  1
  O  O172  1  0.12540532  0.11052164  0.62224882  1
  O  O173  1  0.11330352  0.61430971  0.12835766  1
  O  O174  1  0.12797099  0.61948602  0.61626527  1
  O  O175  1  0.61745147  0.12210686  0.11586632  1
  O  O176  1  0.62380142  0.11619474  0.61986888  1
  O  O177  1  0.61519979  0.62222399  0.11460091  1
  O  O178  1  0.63319277  0.61558799  0.61232311  1
  O  O179  1  0.38325326  0.38212733  0.37819227  1
  O  O180  1  0.36942097  0.37077722  0.88561073  1
  O  O181  1  0.38257719  0.88374084  0.38137606  1
  O  O182  1  0.38585376  0.87881811  0.88136410  1
  O  O183  1  0.88585038  0.38260554  0.38059182  1
  O  O184  1  0.88129243  0.38607299  0.87268327  1
  O  O185  1  0.87755140  0.88171810  0.38306765  1
  O  O186  1  0.87435150  0.88540228  0.88488749  1
  O  O187  1  0.25964195  -0.00595263  0.36090831  1
  O  O188  1  0.25710472  0.00158276  0.86822780  1
  O  O189  1  0.25559357  0.50296849  0.37112077  1
  O  O190  1  0.23904553  0.50364830  0.86328787  1
  O  O191  1  0.76198081  -0.00372178  0.36891686  1
  O  O192  1  0.75988576  0.00648994  0.86839377  1
  O  O193  1  0.76809768  0.51774105  0.38162424  1
  O  O194  1  0.75743957  0.50216570  0.86217796  1
  O  O195  1  0.24376948  0.48945152  0.13125691  1
  O  O196  1  0.23578007  0.50101347  0.63835827  1
  O  O197  1  0.25168634  0.98681732  0.13839103  1
  O  O198  1  0.24469055  0.99555142  0.63269174  1
  O  O199  1  0.73518223  0.50516852  0.12885350  1
  O  O200  1  0.74407489  0.49278048  0.62774688  1
  O  O201  1  0.74951401  0.99298609  0.13433300  1
  O  O202  1  0.74305779  0.98902269  0.63258782  1
  O  O203  1  0.00822441  0.37430132  0.26323909  1
  O  O204  1  0.00706727  0.37441249  0.76117282  1
  O  O205  1  0.00879651  0.87028260  0.24784474  1
  O  O206  1  -0.00881615  0.86006135  0.75381267  1
  O  O207  1  0.49212113  0.36309931  0.25656661  1
  O  O208  1  0.50685394  0.36676786  0.75017999  1
  O  O209  1  0.49895704  0.86641031  0.25591762  1
  O  O210  1  0.50637583  0.86789578  0.75583005  1
  O  O211  1  0.48755200  0.13347398  0.24375479  1
  O  O212  1  0.49197557  0.12966964  0.74868352  1
  O  O213  1  0.49757355  0.63492197  0.24145545  1
  O  O214  1  0.51208983  0.64353741  0.74271153  1
  O  O215  1  0.98653767  0.12713846  0.24236541  1
  O  O216  1  0.98917829  0.12566637  0.74839886  1
  O  O217  1  0.98918106  0.62753007  0.24499500  1
  O  O218  1  0.99669570  0.64465532  0.74985844  1
  O  O219  1  0.37712267  0.25735997  0.01028461  1
  O  O220  1  0.36678360  0.25082491  0.51055743  1
  O  O221  1  0.37889077  0.75888931  -0.00904009  1
  O  O222  1  0.36468279  0.75778484  0.49429183  1
  O  O223  1  0.87453983  0.25330174  0.01508831  1
  O  O224  1  0.86579917  0.25443879  0.49809974  1
  O  O225  1  0.86918242  0.75620847  0.00464524  1
  O  O226  1  0.88525960  0.76390726  0.50602021  1
  O  O227  1  0.13523310  0.24686212  0.49493021  1
  O  O228  1  0.11972381  0.24533419  0.98783696  1
  O  O229  1  0.13460320  0.74563339  0.49562721  1
  O  O230  1  0.12908641  0.74849341  0.98734022  1
  O  O231  1  0.62914216  0.24265014  0.49689297  1
  O  O232  1  0.61591584  0.23600002  0.99923238  1
  O  O233  1  0.61803790  0.73735208  0.49535166  1
  O  O234  1  0.63739627  0.74374951  1.00358450  1
  O  O235  1  0.49145544  0.24614177  0.13192145  1
  O  O236  1  0.48875258  0.24792457  0.63275797  1
  O  O237  1  0.50225915  0.74514011  0.13540405  1
  O  O238  1  0.49709075  0.75999161  0.63399337  1
  O  O239  1  0.98994701  0.23884068  0.12999585  1
  O  O240  1  0.99590009  0.24636838  0.62792989  1
  O  O241  1  0.99462340  0.74283133  0.12832223  1
  O  O242  1  0.99407415  0.75790767  0.63550219  1
  O  O243  1  0.01040673  0.25902439  0.37567303  1
  O  O244  1  0.00428468  0.25736317  0.87222137  1
  O  O245  1  0.00931579  0.75346414  0.36601468  1
  O  O246  1  0.00456443  0.75711627  0.86449384  1
  O  O247  1  0.49952532  0.25604640  0.36815801  1
  O  O248  1  0.49632908  0.24518488  0.86128541  1
  O  O249  1  0.50307237  0.76119647  0.36645267  1
  O  O250  1  0.50106512  0.76030410  0.86404696  1
  O  O251  1  0.25021703  0.14068249  0.49774914  1
  O  O252  1  0.25661642  0.11931809  0.98783870  1
  O  O253  1  0.24602516  0.63192341  0.49798297  1
  O  O254  1  0.24286556  0.62695672  1.00997147  1
  O  O255  1  0.74078565  0.13534455  0.50682782  1
  O  O256  1  0.74111905  0.12054278  0.98729344  1
  O  O257  1  0.74103650  0.62803789  0.49064522  1
  O  O258  1  0.74490288  0.63616110  0.99894440  1
  O  O259  1  0.25804081  0.37763035  0.00948477  1
  O  O260  1  0.25308454  0.35756684  0.49885952  1
  O  O261  1  0.26341309  0.87051288  0.00875282  1
  O  O262  1  0.25908954  0.86774368  0.50444787  1
  O  O263  1  0.75133410  0.38998183  0.01259937  1
  O  O264  1  0.75296191  0.36630286  0.50304461  1
  O  O265  1  0.75656956  0.86880444  0.00696483  1
  O  O266  1  0.76060714  0.87905264  0.50831695  1
  O  O267  1  0.13121562  0.49317126  0.24595412  1
  O  O268  1  0.13059459  0.49507251  0.74727428  1
  O  O269  1  0.13190532  0.99239058  0.24794687  1
  O  O270  1  0.13465860  1.00079299  0.74367846  1
  O  O271  1  0.62624350  0.50919526  0.23184419  1
  O  O272  1  0.63179990  0.49597899  0.73838571  1
  O  O273  1  0.63795475  1.00968614  0.25271537  1
  O  O274  1  0.62906091  0.99011363  0.74243366  1
  O  O275  1  0.36907471  0.00824506  0.25547806  1
  O  O276  1  0.37115336  0.00618331  0.75562821  1
  O  O277  1  0.36751968  0.49959937  0.25607920  1
  O  O278  1  0.35595787  0.50327089  0.75095259  1
  O  O279  1  0.86819414  0.00611494  0.25892505  1
  O  O280  1  0.86846361  0.01033131  0.75570616  1
  O  O281  1  0.87214487  0.50668600  0.25687199  1
  O  O282  1  0.86844734  0.50229604  0.75314813  1
  O  O283  1  0.12008824  0.36998148  0.37259889  1
  O  O284  1  0.11750528  0.36678602  0.86956897  1
  O  O285  1  0.12627879  0.86981033  0.36277126  1
  O  O286  1  0.12247892  0.86112898  0.87767725  1
  O  O287  1  0.60485982  0.35884017  0.38630359  1
  O  O288  1  0.63212021  0.37969438  0.85954810  1
  O  O289  1  0.61090617  0.87833282  0.38445538  1
  O  O290  1  0.61941149  0.88143845  0.86457147  1
  O  O291  1  0.37854853  0.13133841  0.12866814  1
  O  O292  1  0.37463786  0.12653429  0.63806166  1
  O  O293  1  0.39096128  0.61799503  0.12461639  1
  O  O294  1  0.38150007  0.61671610  0.64716825  1
  O  O295  1  0.88054487  0.13245393  0.13028887  1
  O  O296  1  0.87346487  0.12430067  0.63491498  1
  O  O297  1  0.87889337  0.62653694  0.13060959  1
  O  O298  1  0.87051608  0.64032488  0.61769779  1
  O  O299  1  0.25784251  0.25862150  0.12966216  1
  O  O300  1  0.25661893  0.24499574  0.61679514  1
  O  O301  1  0.24947138  0.76227170  0.12685288  1
  O  O302  1  0.24603927  0.76010576  0.61738420  1
  O  O303  1  0.76382088  0.24575498  0.13183648  1
  O  O304  1  0.75039130  0.25881498  0.61671227  1
  O  O305  1  0.75574473  0.75704467  0.12120135  1
  O  O306  1  0.76011467  0.76418015  0.63031276  1
  O  O307  1  0.24113023  0.25310603  0.38412527  1
  O  O308  1  0.24035679  0.23650994  0.87162359  1
  O  O309  1  0.24643355  0.74426973  0.38205546  1
  O  O310  1  0.23982497  0.75439130  0.87206297  1
  O  O311  1  0.73729760  0.24778097  0.38515478  1
  O  O312  1  0.75180188  0.23698286  0.87227588  1
  O  O313  1  0.75030570  0.74053653  0.36951715  1
  O  O314  1  0.75755671  0.75159970  0.88502481  1
  O  O315  1  -0.00427450  0.12675274  0.01351869  1
  O  O316  1  0.00137955  0.11099982  0.50191268  1
  O  O317  1  0.00171676  0.61617135  0.00541366  1
  O  O318  1  0.01600561  0.62566849  0.49338049  1
  O  O319  1  0.50378104  0.11581551  0.00197633  1
  O  O320  1  0.51002014  0.12902304  0.50488869  1
  O  O321  1  0.50749184  0.62745107  0.00554286  1
  O  O322  1  0.50785000  0.61360623  0.48982067  1
  O  O323  1  0.49421391  0.38702159  0.49392437  1
  O  O324  1  0.48407619  0.37393209  1.00124894  1
  O  O325  1  0.48616322  0.87242378  0.49265155  1
  O  O326  1  0.49940341  0.87807548  0.99377564  1
  O  O327  1  0.99766449  0.37715204  0.49084065  1
  O  O328  1  0.99449041  0.38077337  0.98856272  1
  O  O329  1  0.99450023  0.88643130  0.49863695  1
  O  O330  1  0.98663918  0.87193338  1.00159784  1
  O  O331  1  0.49643539  0.49332285  0.37709625  1
  O  O332  1  0.50761660  0.49638636  0.87346832  1
  O  O333  1  0.48698070  0.99214793  0.36709461  1
  O  O334  1  0.49635520  0.99130065  0.88068033  1
  O  O335  1  0.99120753  0.49517135  0.37775235  1
  O  O336  1  0.99530351  0.49469856  0.87923167  1
  O  O337  1  0.99034892  0.99714674  0.38103462  1
  O  O338  1  0.98457205  0.99997460  0.87075584  1
  O  O339  1  -0.00254866  0.01696415  0.13167685  1
  O  O340  1  0.00824309  -0.00173462  0.61842237  1
  O  O341  1  0.00186911  0.50163302  0.11702989  1
  O  O342  1  0.01751601  0.49544071  0.62608405  1
  O  O343  1  0.50138487  0.00547756  0.11736914  1
  O  O344  1  0.51280285  -0.00071398  0.62884025  1
  O  O345  1  0.50890531  0.50849487  0.12089525  1
  O  O346  1  0.51410560  0.49611958  0.61372041  1
  O  O347  1  0.24520934  0.37996674  0.24214661  1
  O  O348  1  0.24047157  0.38689993  0.75709942  1
  O  O349  1  0.24586648  0.87885327  0.24593878  1
  O  O350  1  0.26031508  0.88653639  0.74192418  1
  O  O351  1  0.73613392  0.38844205  0.30010041  1
  O  O352  1  0.74474132  0.38435885  0.73913236  1
  O  O353  1  0.75592596  0.88587570  0.24062360  1
  O  O354  1  0.74348316  0.87902029  0.74512477  1
  O  O355  1  0.26054267  0.11728854  0.24302560  1
  O  O356  1  0.25713425  0.11323398  0.75772352  1
  O  O357  1  0.25203899  0.61676240  0.25560918  1
  O  O358  1  0.25526441  0.61830918  0.74998704  1
  O  O359  1  0.76267023  0.11534680  0.24496266  1
  O  O360  1  0.75276591  0.12128653  0.75961665  1
  O  O361  1  0.76189924  0.62615011  0.25438365  1
  O  O362  1  0.75136989  0.61423673  0.74775197  1
  O  O363  1  0.37901459  0.11747162  0.36535367  1
  O  O364  1  0.36900766  0.11965284  0.86585093  1
  O  O365  1  0.36871328  0.61676773  0.37321006  1
  O  O366  1  0.39092604  0.61999594  0.84626289  1
  O  O367  1  0.87890012  0.11630091  0.36737652  1
  O  O368  1  0.86447554  0.12126849  0.87192276  1
  O  O369  1  0.87382040  0.62147405  0.36780012  1
  O  O370  1  0.87376116  0.61252655  0.87253433  1
  O  O371  1  0.12955703  0.37670551  0.12780652  1
  O  O372  1  0.12352303  0.37849360  0.63865992  1
  O  O373  1  0.13220411  0.87394640  0.13535215  1
  O  O374  1  0.13958010  0.88752178  0.61842072  1
  O  O375  1  0.61700596  0.39061128  0.12490574  1
  O  O376  1  0.63437996  0.38257467  0.62575845  1
  O  O377  1  0.63845261  0.87917069  0.12167943  1
  O  O378  1  0.63242941  0.88097717  0.62726960  1
  O  O379  1  0.12563023  0.25670660  0.25894360  1
  O  O380  1  0.12572651  0.25702830  0.75847805  1
  O  O381  1  0.12134896  0.75521597  0.25341450  1
  O  O382  1  0.11659063  0.75291585  0.75651778  1
  O  O383  1  0.61206019  0.24107813  0.25893661  1
  O  O384  1  0.61475905  0.26199919  0.74207571  1
  O  O385  1  0.60903380  0.74597576  0.25406993  1
  O  O386  1  0.61741477  0.76278348  0.74106357  1
  O  O387  1  0.37815761  0.24380955  0.24276317  1
  O  O388  1  0.37832508  0.24255668  0.74546777  1
  O  O389  1  0.39330021  0.74810008  0.25588533  1
  O  O390  1  0.38550540  0.74068526  0.74756883  1
  O  O391  1  0.87565076  0.24253015  0.24630537  1
  O  O392  1  0.87287577  0.23772584  0.74988162  1
  O  O393  1  0.88142814  0.74380277  0.24310035  1
  O  O394  1  0.88225873  0.74694343  0.74011673  1
  O  O395  1  0.38182541  0.50212487  0.49484681  1
  O  O396  1  0.37831665  0.48335996  1.00203827  1
  O  O397  1  0.36657081  0.99332389  0.48895568  1
  O  O398  1  0.38783078  0.99072953  0.99516456  1
  O  O399  1  0.87919725  0.49386670  0.49458580  1
  O  O400  1  0.88513189  0.49955473  0.99158920  1
  O  O401  1  0.87991618  0.99372272  0.49460556  1
  O  O402  1  0.86770963  0.99171329  0.99289277  1
  O  O403  1  0.13266832  0.00490992  0.00671610  1
  O  O404  1  0.11890319  -0.00027455  0.50338650  1
  O  O405  1  0.11178331  0.49765550  0.00407759  1
  O  O406  1  0.12780062  0.50943241  0.50844678  1
  O  O407  1  0.61395167  0.00497229  -0.00037731  1
  O  O408  1  0.63161631  0.01177349  0.50953417  1
  O  O409  1  0.62217827  0.51165760  0.00999026  1
  O  O410  1  0.61901445  0.50775770  0.50158594  1
  O  O411  1  0.36705227  0.36756461  0.11698988  1
  O  O412  1  0.37333737  0.36373361  0.62801327  1
  O  O413  1  0.37037949  0.87773103  0.11522836  1
  O  O414  1  0.36354068  0.88347698  0.61489054  1
  O  O415  1  0.88052422  0.35933430  0.12974455  1
  O  O416  1  0.86341090  0.37485638  0.61851635  1
  O  O417  1  0.86677822  0.87065062  0.11860821  1
  O  O418  1  0.86854873  0.87115387  0.61755301  1
  O  O419  1  0.11877383  0.13639485  0.37340900  1
  O  O420  1  0.13306060  0.13057279  0.87558305  1
  O  O421  1  0.13394716  0.62892760  0.38108866  1
  O  O422  1  0.11672850  0.64604402  0.87381658  1
  O  O423  1  0.61693099  0.13644701  0.38451708  1
  O  O424  1  0.63839106  0.11892292  0.87961724  1
  O  O425  1  0.63623542  0.62481645  0.38064981  1
  O  O426  1  0.63074871  0.62474853  0.88963983  1
