# generated using pymatgen
data_V85Zn86O256
_symmetry_space_group_name_H-M   'P 1'
_cell_length_a   16.98919274
_cell_length_b   17.00286940
_cell_length_c   16.99990483
_cell_angle_alpha   89.99264625
_cell_angle_beta   90.01656378
_cell_angle_gamma   89.98290747
_symmetry_Int_Tables_number   1
_chemical_formula_structural   V85Zn86O256
_chemical_formula_sum   'V85 Zn86 O256'
_cell_volume   4910.67747394
_cell_formula_units_Z   1
loop_
 _symmetry_equiv_pos_site_id
 _symmetry_equiv_pos_as_xyz
  1  'x, y, z'
loop_
 _atom_site_type_symbol
 _atom_site_label
 _atom_site_symmetry_multiplicity
 _atom_site_fract_x
 _atom_site_fract_y
 _atom_site_fract_z
 _atom_site_occupancy
  V  V0  1  0.29773051  -0.05568630  0.69071805  1
  V  V1  1  0.24784889  0.12599532  0.37526418  1
  V  V2  1  0.37565434  0.12593285  0.25081520  1
  V  V3  1  0.61734814  0.49756303  0.62621675  1
  V  V4  1  0.74957897  0.49918118  0.24614041  1
  V  V5  1  0.25975209  0.75572590  0.51418719  1
  V  V6  1  -0.00077205  0.12515126  0.62445515  1
  V  V7  1  0.75071970  -0.00092139  0.25932331  1
  V  V8  1  0.62194112  0.87526664  0.25502161  1
  V  V9  1  0.87041593  0.11491938  0.75634987  1
  V  V10  1  0.00029593  0.87603247  0.37127004  1
  V  V11  1  0.75210659  0.74911387  0.49842504  1
  V  V12  1  0.24565326  -0.00791276  0.25138610  1
  V  V13  1  0.74982652  0.49764505  0.75072034  1
  V  V14  1  -0.00536159  0.89020161  0.86813259  1
  V  V15  1  0.23255491  0.49504324  0.24557901  1
  V  V16  1  0.75233212  0.87887778  0.12606094  1
  V  V17  1  -0.00007750  0.50410445  0.49779729  1
  V  V18  1  0.49767420  0.74389042  0.25145933  1
  V  V19  1  0.87481358  0.11968129  0.25692637  1
  V  V20  1  0.12737734  0.12350192  0.49422270  1
  V  V21  1  0.87599939  0.37503685  0.50205518  1
  V  V22  1  0.38114861  0.49536716  0.36419288  1
  V  V23  1  -0.00479498  -0.00111085  0.49517998  1
  V  V24  1  0.36958960  0.12383371  0.75221328  1
  V  V25  1  0.25083119  0.87006680  0.12796522  1
  V  V26  1  0.74524157  0.25095948  0.49993757  1
  V  V27  1  0.87619595  0.24796070  0.12714201  1
  V  V28  1  0.87397507  0.24903557  0.63095263  1
  V  V29  1  0.25165145  0.13573721  0.88369892  1
  V  V30  1  0.74394806  0.37495809  0.12510952  1
  V  V31  1  0.37616295  0.50306527  0.88005460  1
  V  V32  1  0.19196278  0.29876990  0.44034923  1
  V  V33  1  0.00161066  0.75221665  0.75146637  1
  V  V34  1  0.01274509  0.37252142  0.86837200  1
  V  V35  1  0.74802356  0.37629359  0.62815526  1
  V  V36  1  0.62408285  0.12948045  0.49645046  1
  V  V37  1  0.10996231  0.62582305  0.00068597  1
  V  V38  1  0.37920169  0.73562599  0.12578817  1
  V  V39  1  0.51606301  0.50275359  0.00422984  1
  V  V40  1  0.75006237  0.12879383  0.37701596  1
  V  V41  1  0.13299188  0.49773981  0.63575097  1
  V  V42  1  0.36721403  -0.00437556  0.87879189  1
  V  V43  1  0.62483158  0.12819316  0.00205584  1
  V  V44  1  0.50796061  0.75043960  0.74917723  1
  V  V45  1  -0.00096073  0.11956429  0.12578415  1
  V  V46  1  0.50189331  -0.00238649  0.49776625  1
  V  V47  1  0.36436134  0.25928351  0.12497846  1
  V  V48  1  0.62531064  0.62338759  0.50073701  1
  V  V49  1  0.50091048  0.12807741  0.62650824  1
  V  V50  1  0.12573338  0.75495283  0.87044121  1
  V  V51  1  0.25258242  0.74584740  -0.00118813  1
  V  V52  1  0.12865044  0.75836460  0.37345315  1
  V  V53  1  0.87893841  0.37178952  -0.00277881  1
  V  V54  1  0.87483095  0.62476591  0.75439045  1
  V  V55  1  0.50358113  0.25506149  0.26170956  1
  V  V56  1  0.13154059  0.13237190  0.00232465  1
  V  V57  1  0.25908138  0.63473773  0.36832875  1
  V  V58  1  0.00040042  0.62505960  0.62401796  1
  V  V59  1  0.24909107  0.62127054  0.87160061  1
  V  V60  1  0.01060846  0.24501717  0.26494805  1
  V  V61  1  0.50774608  0.87507334  0.87676199  1
  V  V62  1  0.87582536  0.49853091  0.88265603  1
  V  V63  1  0.73714233  0.62476739  0.87540521  1
  V  V64  1  0.74622785  0.87280638  0.63331523  1
  V  V65  1  0.49988578  0.37357175  0.88321828  1
  V  V66  1  0.37714567  0.87231839  0.00335409  1
  V  V67  1  0.01666050  0.75793589  0.23722352  1
  V  V68  1  0.74485956  0.74204775  0.00785960  1
  V  V69  1  0.51889215  0.62140569  0.12202026  1
  V  V70  1  0.87237581  0.87622551  0.49581846  1
  V  V71  1  0.62402046  0.37325449  0.26709199  1
  V  V72  1  0.49701159  0.25196998  0.75356590  1
  V  V73  1  0.87577098  0.49360240  0.36834310  1
  V  V74  1  0.75122588  0.62253982  0.37117955  1
  V  V75  1  0.36757911  0.25143595  0.61561115  1
  V  V76  1  0.12387331  -0.00852043  0.12484655  1
  V  V77  1  0.12588610  -0.00437818  0.62789386  1
  V  V78  1  0.62818972  -0.00154575  0.63201314  1
  V  V79  1  0.87564844  0.74993685  0.62324416  1
  V  V80  1  0.49527284  0.62906546  0.62366858  1
  V  V81  1  0.37354488  -0.00506828  0.37628015  1
  V  V82  1  0.12526564  0.63016765  0.49683351  1
  V  V83  1  0.49924066  0.12771755  0.12778559  1
  V  V84  1  0.37321728  0.62777698  0.74738395  1
  Zn  Zn85  1  0.38102398  0.37330244  0.49143768  1
  Zn  Zn86  1  0.87592622  0.74503088  0.14342999  1
  Zn  Zn87  1  0.01399571  0.36852607  0.38142369  1
  Zn  Zn88  1  0.36319385  0.37068241  0.00430294  1
  Zn  Zn89  1  0.74841877  -0.00971056  0.76192669  1
  Zn  Zn90  1  0.03870032  0.46833405  0.04551645  1
  Zn  Zn91  1  0.62438976  0.74792375  0.37538844  1
  Zn  Zn92  1  0.49697663  0.49467520  0.49205750  1
  Zn  Zn93  1  0.24052732  0.36864778  0.64307866  1
  Zn  Zn94  1  0.75357722  0.12005559  0.88217291  1
  Zn  Zn95  1  -0.00361992  0.00473041  -0.00971189  1
  Zn  Zn96  1  0.01773159  0.25578255  0.75050783  1
  Zn  Zn97  1  0.62783610  0.24733378  0.87558680  1
  Zn  Zn98  1  0.62501625  0.75365491  0.87626215  1
  Zn  Zn99  1  0.75146495  0.24756418  -0.00254026  1
  Zn  Zn100  1  0.13173191  0.87822542  0.74493922  1
  Zn  Zn101  1  0.86300277  0.88788683  -0.01399859  1
  Zn  Zn102  1  0.49804591  0.86731113  0.37994967  1
  Zn  Zn103  1  0.49790727  0.00179347  0.00335159  1
  Zn  Zn104  1  0.37538388  0.87425863  0.51708110  1
  Zn  Zn105  1  0.62062756  0.37280629  0.75145928  1
  Zn  Zn106  1  0.62218631  0.00341558  0.13041594  1
  Zn  Zn107  1  0.18861731  0.18086192  0.18816669  1
  Zn  Zn108  1  0.18999890  0.18149790  0.68607391  1
  Zn  Zn109  1  0.21140027  0.65387312  0.16216325  1
  Zn  Zn110  1  0.18704873  0.68358805  0.68783223  1
  Zn  Zn111  1  0.68686818  0.19141048  0.18854516  1
  Zn  Zn112  1  0.68648256  0.18729949  0.68794225  1
  Zn  Zn113  1  0.68860766  0.68858161  0.19149316  1
  Zn  Zn114  1  0.68683364  0.68624769  0.68870393  1
  Zn  Zn115  1  0.31143448  0.32280217  0.29514606  1
  Zn  Zn116  1  0.30992631  0.31180512  0.81757216  1
  Zn  Zn117  1  0.31621154  0.81160609  0.31189458  1
  Zn  Zn118  1  0.32142043  0.80359975  0.81544514  1
  Zn  Zn119  1  0.81390799  0.30914420  0.31318703  1
  Zn  Zn120  1  0.81133120  0.30661854  0.81403570  1
  Zn  Zn121  1  0.81644997  0.81315944  0.31372359  1
  Zn  Zn122  1  0.81437031  0.80855485  0.81595053  1
  Zn  Zn123  1  0.19389085  0.46017019  0.43774289  1
  Zn  Zn124  1  0.19027486  0.43841679  0.93409765  1
  Zn  Zn125  1  0.18901911  0.93542100  0.44395588  1
  Zn  Zn126  1  0.18666272  0.93883110  0.93992870  1
  Zn  Zn127  1  0.68814048  0.43896438  0.44050642  1
  Zn  Zn128  1  0.69000921  0.43236845  0.93729633  1
  Zn  Zn129  1  0.68643947  0.93879527  0.43829866  1
  Zn  Zn130  1  0.68419598  0.94843106  0.94266654  1
  Zn  Zn131  1  0.31410893  0.06164762  0.06637699  1
  Zn  Zn132  1  0.31535243  0.07109775  0.55543408  1
  Zn  Zn133  1  0.29057873  0.52687731  0.04707715  1
  Zn  Zn134  1  0.31377475  0.56227653  0.55708211  1
  Zn  Zn135  1  0.81207784  0.05886423  0.06411322  1
  Zn  Zn136  1  0.81148300  0.05983504  0.56410252  1
  Zn  Zn137  1  0.86477637  0.54547127  0.09638698  1
  Zn  Zn138  1  0.81243115  0.56236281  0.56330065  1
  Zn  Zn139  1  0.43936088  0.44338953  0.19121646  1
  Zn  Zn140  1  0.39469834  0.41913338  0.71333121  1
  Zn  Zn141  1  0.43649387  0.93549130  0.18937774  1
  Zn  Zn142  1  0.46190475  0.94023309  0.69306811  1
  Zn  Zn143  1  0.96798839  0.41386290  0.18064903  1
  Zn  Zn144  1  0.94074239  0.43946962  0.69069559  1
  Zn  Zn145  1  0.93408857  0.93679416  0.18651028  1
  Zn  Zn146  1  0.93811308  0.93771828  0.68438492  1
  Zn  Zn147  1  0.06355177  0.05859745  0.31233254  1
  Zn  Zn148  1  0.08018766  0.08928903  0.79929522  1
  Zn  Zn149  1  0.05365238  0.56984009  0.19056615  1
  Zn  Zn150  1  0.05827058  0.56357653  0.81867267  1
  Zn  Zn151  1  0.56255593  0.06462754  0.31452424  1
  Zn  Zn152  1  0.55988375  0.06233686  0.81769452  1
  Zn  Zn153  1  0.56620290  0.56178904  0.30598010  1
  Zn  Zn154  1  0.55791564  0.55731904  0.80866113  1
  Zn  Zn155  1  0.43738913  0.18401359  0.43610891  1
  Zn  Zn156  1  0.43467567  0.18853279  0.94323363  1
  Zn  Zn157  1  0.43646053  0.68573043  0.43960768  1
  Zn  Zn158  1  0.44255982  0.68456361  0.94072703  1
  Zn  Zn159  1  0.93184739  0.18489711  0.44029557  1
  Zn  Zn160  1  0.94473888  0.18960154  0.93752921  1
  Zn  Zn161  1  0.93851691  0.67376186  0.34626834  1
  Zn  Zn162  1  0.90610473  0.67293758  0.97253515  1
  Zn  Zn163  1  0.07360656  0.30249488  0.07520233  1
  Zn  Zn164  1  0.05910490  0.31656900  0.57022251  1
  Zn  Zn165  1  0.06499546  0.81858070  0.05104494  1
  Zn  Zn166  1  0.06457786  0.81402304  0.56161809  1
  Zn  Zn167  1  0.55829000  0.31089420  0.06680550  1
  Zn  Zn168  1  0.55656820  0.31589943  0.55926477  1
  Zn  Zn169  1  0.56672167  0.81353965  0.06504525  1
  Zn  Zn170  1  0.56384099  0.81069320  0.56314475  1
  O  O171  1  0.12248435  0.11427489  0.11748837  1
  O  O172  1  0.11670796  0.11857815  0.60981422  1
  O  O173  1  0.11273645  0.63250972  0.10600650  1
  O  O174  1  0.12061629  0.61971878  0.61490169  1
  O  O175  1  0.61538645  0.12724448  0.12387860  1
  O  O176  1  0.62159441  0.11810252  0.61602998  1
  O  O177  1  0.61742532  0.62636913  0.12589394  1
  O  O178  1  0.62117657  0.61899810  0.61740160  1
  O  O179  1  0.36680810  0.39162294  0.37141036  1
  O  O180  1  0.38515165  0.38512397  0.88352690  1
  O  O181  1  0.37806437  0.88779627  0.37617427  1
  O  O182  1  0.38078059  0.87858114  0.88462245  1
  O  O183  1  0.86907461  0.37720041  0.39196473  1
  O  O184  1  0.87200656  0.38085809  0.88195463  1
  O  O185  1  0.88325260  0.87205793  0.38933420  1
  O  O186  1  0.89136621  0.88044857  0.86381174  1
  O  O187  1  0.25546339  0.00139085  0.37037237  1
  O  O188  1  0.26321288  0.00529367  0.88128532  1
  O  O189  1  0.25455587  0.51714575  0.36067943  1
  O  O190  1  0.25985901  0.51533051  0.87431001  1
  O  O191  1  0.74568173  0.00974977  0.36634145  1
  O  O192  1  0.74538162  0.00727171  0.87218882  1
  O  O193  1  0.75530075  0.50331017  0.36886358  1
  O  O194  1  0.75516008  0.50395247  0.86962837  1
  O  O195  1  0.25146956  0.54073177  0.15231952  1
  O  O196  1  0.23460429  0.50104757  0.61759696  1
  O  O197  1  0.24551054  0.99303297  0.13411752  1
  O  O198  1  0.24481020  1.00571535  0.62283400  1
  O  O199  1  0.76994221  0.48985844  0.14206630  1
  O  O200  1  0.74133335  0.49615511  0.63065644  1
  O  O201  1  0.74589500  0.99410572  0.14233190  1
  O  O202  1  0.74161408  0.99049120  0.62562388  1
  O  O203  1  -0.00995757  0.34908409  0.26962463  1
  O  O204  1  -0.00218946  0.37127154  0.76184926  1
  O  O205  1  -0.00255316  0.87436942  0.26564894  1
  O  O206  1  0.00497335  0.87053053  0.75297321  1
  O  O207  1  0.51742345  0.37163702  0.24553245  1
  O  O208  1  0.49281874  0.36560292  0.76105969  1
  O  O209  1  0.50803489  0.86793707  0.25255525  1
  O  O210  1  0.49504223  0.86198505  0.76329221  1
  O  O211  1  0.49540460  0.13248576  0.24738576  1
  O  O212  1  0.48906658  0.12856184  0.74717602  1
  O  O213  1  0.50669039  0.63284592  0.23649473  1
  O  O214  1  0.49725169  0.63151074  0.74168900  1
  O  O215  1  0.99096758  0.12708104  0.24992400  1
  O  O216  1  0.98331603  0.11593516  0.73119855  1
  O  O217  1  1.00734175  0.65338465  0.25374804  1
  O  O218  1  0.99404799  0.63390925  0.74608458  1
  O  O219  1  0.37669627  0.25246885  0.01994806  1
  O  O220  1  0.37643048  0.24237478  0.51378885  1
  O  O221  1  0.37272164  0.75386497  0.00636750  1
  O  O222  1  0.36467724  0.75297710  0.50207875  1
  O  O223  1  0.87664429  0.25327832  0.01012890  1
  O  O224  1  0.86877052  0.25595127  0.51152608  1
  O  O225  1  0.84548899  0.77240289  -0.01799654  1
  O  O226  1  0.86604536  0.76016246  0.50888674  1
  O  O227  1  0.12752647  0.24477103  0.50253445  1
  O  O228  1  0.12556837  0.23223367  1.00840368  1
  O  O229  1  0.13426446  0.74685896  0.49619563  1
  O  O230  1  0.13129838  0.74501401  0.98793478  1
  O  O231  1  0.63164586  0.23901380  0.51103074  1
  O  O232  1  0.62412086  0.23917941  1.00332831  1
  O  O233  1  0.63062846  0.73782022  0.49793555  1
  O  O234  1  0.64098966  0.75964986  0.99565750  1
  O  O235  1  0.49310509  0.24070572  0.13702679  1
  O  O236  1  0.48958113  0.24428436  0.63325781  1
  O  O237  1  0.49955649  0.74123375  0.12983796  1
  O  O238  1  0.50491445  0.73748118  0.63131330  1
  O  O239  1  0.98980088  0.23783072  0.13876742  1
  O  O240  1  0.99276543  0.24182734  0.62783015  1
  O  O241  1  1.00421838  0.77133389  0.13698557  1
  O  O242  1  0.99753865  0.74712766  0.63340734  1
  O  O243  1  0.00049943  0.24234968  0.36919174  1
  O  O244  1  -0.00524914  0.26881425  0.87146299  1
  O  O245  1  0.01270253  0.76012727  0.37306848  1
  O  O246  1  0.00963521  0.76148346  0.85845752  1
  O  O247  1  0.49460415  0.24541004  0.36068154  1
  O  O248  1  0.49562150  0.25733215  0.87050943  1
  O  O249  1  0.50145997  0.74753846  0.36675503  1
  O  O250  1  0.50383648  0.75633260  0.87021542  1
  O  O251  1  0.23986127  0.12496248  0.48953146  1
  O  O252  1  0.24081114  0.12002334  0.99948892  1
  O  O253  1  0.24562994  0.63632400  0.49238738  1
  O  O254  1  0.23731865  0.62900929  0.99099318  1
  O  O255  1  0.74367160  0.12732177  0.49486583  1
  O  O256  1  0.73853815  0.12724322  1.00691447  1
  O  O257  1  0.74256320  0.62810109  0.49527449  1
  O  O258  1  0.74430391  0.64196135  0.99007639  1
  O  O259  1  0.26184105  0.41942234  0.01524168  1
  O  O260  1  0.24848011  0.36462353  0.49571175  1
  O  O261  1  0.25743678  0.86555103  0.00543128  1
  O  O262  1  0.25550275  0.86075804  0.50109048  1
  O  O263  1  0.76073338  0.37084978  0.00851616  1
  O  O264  1  0.75590186  0.37201225  0.50904285  1
  O  O265  1  0.74338372  0.87895672  0.01579940  1
  O  O266  1  0.75633415  0.87135759  0.50431253  1
  O  O267  1  0.13431470  0.51490766  0.25323041  1
  O  O268  1  0.12030515  0.51275500  0.73276529  1
  O  O269  1  0.13630352  1.00404991  0.24072389  1
  O  O270  1  0.12555182  1.00373048  0.73192180  1
  O  O271  1  0.63669834  0.48540142  0.25275869  1
  O  O272  1  0.63083300  0.49617404  0.74162567  1
  O  O273  1  0.63064053  0.99294277  0.25253026  1
  O  O274  1  0.62150267  1.00598077  0.73494908  1
  O  O275  1  0.36908436  0.00483357  0.25852437  1
  O  O276  1  0.37163638  0.00223414  0.75374584  1
  O  O277  1  0.36515377  0.50064284  0.26058518  1
  O  O278  1  0.39244856  0.51925609  0.77009325  1
  O  O279  1  0.86619176  0.01157845  0.24851947  1
  O  O280  1  0.86924125  0.01275177  0.73907216  1
  O  O281  1  0.86994241  0.48646845  0.26751925  1
  O  O282  1  0.86839302  0.50622248  0.75687503  1
  O  O283  1  0.13389505  0.36676743  0.39035646  1
  O  O284  1  0.11187923  0.38135641  0.87601004  1
  O  O285  1  0.11711563  0.86570359  0.38558922  1
  O  O286  1  0.12353591  0.86579156  0.86993385  1
  O  O287  1  0.63083717  0.37362162  0.36529998  1
  O  O288  1  0.61238035  0.36969783  0.87326399  1
  O  O289  1  0.62249427  0.87232837  0.36680196  1
  O  O290  1  0.60966625  0.88052277  0.88065280  1
  O  O291  1  0.38022950  0.13272011  0.13348135  1
  O  O292  1  0.37916461  0.13135774  0.63305454  1
  O  O293  1  0.38701367  0.63725518  0.12052683  1
  O  O294  1  0.38564821  0.61477637  0.63296622  1
  O  O295  1  0.87890048  0.13028328  0.13510253  1
  O  O296  1  0.88023017  0.13309164  0.62473345  1
  O  O297  1  0.87532119  0.65361279  0.08140213  1
  O  O298  1  0.88130552  0.63056629  0.63052183  1
  O  O299  1  0.26565842  0.24805130  0.13727603  1
  O  O300  1  0.26292348  0.24880117  0.63083899  1
  O  O301  1  0.26075482  0.74934841  0.11932766  1
  O  O302  1  0.24775911  0.74519859  0.61169357  1
  O  O303  1  0.76350964  0.25721506  0.12861474  1
  O  O304  1  0.75642629  0.25621933  0.62130140  1
  O  O305  1  0.74786539  0.75719740  0.11842685  1
  O  O306  1  0.75259187  0.75584270  0.61941697  1
  O  O307  1  0.25059498  0.24875871  0.37088118  1
  O  O308  1  0.26205840  0.23540259  0.88304125  1
  O  O309  1  0.24811986  0.74907970  0.38386171  1
  O  O310  1  0.24466342  0.74261600  0.87938721  1
  O  O311  1  0.75320254  0.23710177  0.38365691  1
  O  O312  1  0.74615193  0.23965346  0.87863918  1
  O  O313  1  0.75078786  0.73846932  0.37900833  1
  O  O314  1  0.74230706  0.74018612  0.87298502  1
  O  O315  1  0.01224238  0.12304104  0.00584905  1
  O  O316  1  0.00253307  0.11780179  0.50660833  1
  O  O317  1  0.01465267  0.63809076  -0.02305564  1
  O  O318  1  0.00942852  0.61759463  0.50667769  1
  O  O319  1  0.50342216  0.12565850  0.01265254  1
  O  O320  1  0.50697135  0.11868792  0.50504324  1
  O  O321  1  0.50655233  0.62070899  0.01323085  1
  O  O322  1  0.50725334  0.62076504  0.50695430  1
  O  O323  1  0.49595056  0.38159449  0.49663206  1
  O  O324  1  0.49614858  0.38297742  0.99783617  1
  O  O325  1  0.49610510  0.88304401  0.50111359  1
  O  O326  1  0.49300746  0.87562507  0.99694585  1
  O  O327  1  0.99175352  0.37988895  0.50003463  1
  O  O328  1  0.98732528  0.37657118  0.98463828  1
  O  O329  1  0.99264075  0.88095348  0.49416199  1
  O  O330  1  1.00040906  0.87699388  0.97597341  1
  O  O331  1  0.48353337  0.51057576  0.36927705  1
  O  O332  1  0.49884032  0.49272548  0.88439425  1
  O  O333  1  0.49367103  1.00085338  0.38631693  1
  O  O334  1  0.48608350  0.99144659  0.87544948  1
  O  O335  1  0.99005287  0.49226212  0.39122721  1
  O  O336  1  0.98587055  0.48819688  0.86734550  1
  O  O337  1  1.00551074  0.99226021  0.38749223  1
  O  O338  1  1.01405643  0.98915131  0.86551951  1
  O  O339  1  0.01067392  0.00382493  0.13196382  1
  O  O340  1  0.00662640  0.00511481  0.61348232  1
  O  O341  1  -0.02766712  0.51670228  0.13035283  1
  O  O342  1  0.00650535  0.50357218  0.61573719  1
  O  O343  1  0.49709932  0.01579311  0.13068631  1
  O  O344  1  0.50738690  0.00854650  0.61466213  1
  O  O345  1  0.49764370  0.51496903  0.12021306  1
  O  O346  1  0.51380010  0.51152468  0.62513574  1
  O  O347  1  0.24043756  0.39559593  0.24165457  1
  O  O348  1  0.28643697  0.38828310  0.74415133  1
  O  O349  1  0.25666577  0.88529060  0.24510204  1
  O  O350  1  0.25261050  0.87462177  0.75237856  1
  O  O351  1  0.74236277  0.37727234  0.24693631  1
  O  O352  1  0.74796653  0.37846880  0.74391827  1
  O  O353  1  0.74419732  0.88212647  0.25180061  1
  O  O354  1  0.75520939  0.87267126  0.73644548  1
  O  O355  1  0.25597193  0.11294980  0.25669566  1
  O  O356  1  0.26529833  0.12366233  0.76241742  1
  O  O357  1  0.24814630  0.64377103  0.26986441  1
  O  O358  1  0.26140553  0.63230185  0.75811263  1
  O  O359  1  0.75252583  0.12009246  0.25896251  1
  O  O360  1  0.76387015  0.12414721  0.74554694  1
  O  O361  1  0.74673160  0.61402195  0.25924305  1
  O  O362  1  0.75651695  0.61929343  0.75619772  1
  O  O363  1  0.36844736  0.11351998  0.37148800  1
  O  O364  1  0.37278639  0.11528820  0.87208131  1
  O  O365  1  0.36248334  0.62009078  0.37894233  1
  O  O366  1  0.36776314  0.62496978  0.87099721  1
  O  O367  1  0.86373855  0.12443694  0.36930671  1
  O  O368  1  0.88110403  0.12852348  0.85746614  1
  O  O369  1  0.86071155  0.60750917  0.38531141  1
  O  O370  1  0.86366225  0.61506012  0.87537168  1
  O  O371  1  0.07250659  0.39640265  0.12671115  1
  O  O372  1  0.12680958  0.39039047  0.62521898  1
  O  O373  1  0.13570023  0.88384751  0.11783602  1
  O  O374  1  0.12473706  0.88768696  0.62471494  1
  O  O375  1  0.64248366  0.36949879  0.12727391  1
  O  O376  1  0.62859425  0.38330210  0.62800859  1
  O  O377  1  0.63304176  0.87709238  0.14070602  1
  O  O378  1  0.63493057  0.88445212  0.61775289  1
  O  O379  1  0.10840822  0.23768652  0.24815198  1
  O  O380  1  0.11219393  0.19664988  0.76089961  1
  O  O381  1  0.11793834  0.76088105  0.25930336  1
  O  O382  1  0.11941399  0.75281488  0.75300229  1
  O  O383  1  0.61918612  0.26405763  0.24901032  1
  O  O384  1  0.60805917  0.24840138  0.74932713  1
  O  O385  1  0.61633489  0.75735196  0.25350149  1
  O  O386  1  0.61235829  0.74596302  0.75263664  1
  O  O387  1  0.38262655  0.24673413  0.24404552  1
  O  O388  1  0.38345590  0.24029331  0.74402258  1
  O  O389  1  0.39007231  0.75611869  0.24094951  1
  O  O390  1  0.38961411  0.73482683  0.75342677  1
  O  O391  1  0.87863446  0.23633408  0.24688022  1
  O  O392  1  0.87584089  0.24049333  0.73769644  1
  O  O393  1  0.89632077  0.75221326  0.25933231  1
  O  O394  1  0.88334717  0.74396801  0.74454420  1
  O  O395  1  0.37050231  0.49790370  0.48099186  1
  O  O396  1  0.39091233  0.51358041  0.98565890  1
  O  O397  1  0.38367793  0.99954543  0.49384763  1
  O  O398  1  0.37733821  0.99174815  0.99571109  1
  O  O399  1  0.88043428  0.49101837  0.49978585  1
  O  O400  1  0.87029577  0.48854525  0.98944447  1
  O  O401  1  0.88444579  0.99029193  0.50654174  1
  O  O402  1  0.88491692  0.99461635  1.01108086  1
  O  O403  1  0.12131864  0.00506582  0.01207969  1
  O  O404  1  0.11870206  0.00677433  0.50628480  1
  O  O405  1  0.11702625  0.52191479  -0.01669206  1
  O  O406  1  0.11758348  0.51163680  0.50448914  1
  O  O407  1  0.61624656  0.01416051  0.01105336  1
  O  O408  1  0.61782063  0.00656412  0.50695588  1
  O  O409  1  0.61490100  0.49407650  -0.00180653  1
  O  O410  1  0.62629257  0.51060646  0.50731554  1
  O  O411  1  0.38243373  0.36139409  0.13052849  1
  O  O412  1  0.37419153  0.35778717  0.61510601  1
  O  O413  1  0.37105038  0.86718928  0.11877799  1
  O  O414  1  0.36997010  0.89407190  0.63475301  1
  O  O415  1  0.87411386  0.36340055  0.11784148  1
  O  O416  1  0.87205079  0.36890921  0.61912114  1
  O  O417  1  0.85900862  0.86740595  0.13349756  1
  O  O418  1  0.86828420  0.86992182  0.61642095  1
  O  O419  1  0.12870384  0.11986859  0.38673312  1
  O  O420  1  0.13918313  0.11269339  0.89626122  1
  O  O421  1  0.13657426  0.64184266  0.38962757  1
  O  O422  1  0.13226547  0.63805975  0.87220397  1
  O  O423  1  0.63131328  0.12147783  0.38928445  1
  O  O424  1  0.61907899  0.12776184  0.88942224  1
  O  O425  1  0.63547331  0.62159847  0.38285250  1
  O  O426  1  0.63547281  0.62097809  0.86802137  1
