# generated using pymatgen
data_V85Zn86O256
_symmetry_space_group_name_H-M   'P 1'
_cell_length_a   16.93618510
_cell_length_b   16.93302126
_cell_length_c   16.93125116
_cell_angle_alpha   90.01543388
_cell_angle_beta   90.04067933
_cell_angle_gamma   90.06384605
_symmetry_Int_Tables_number   1
_chemical_formula_structural   V85Zn86O256
_chemical_formula_sum   'V85 Zn86 O256'
_cell_volume   4855.55303987
_cell_formula_units_Z   1
loop_
 _symmetry_equiv_pos_site_id
 _symmetry_equiv_pos_as_xyz
  1  'x, y, z'
loop_
 _atom_site_type_symbol
 _atom_site_label
 _atom_site_symmetry_multiplicity
 _atom_site_fract_x
 _atom_site_fract_y
 _atom_site_fract_z
 _atom_site_occupancy
  V  V0  1  0.14125790  0.62189774  -0.00085115  1
  V  V1  1  0.00568935  0.25591864  0.24807728  1
  V  V2  1  0.62369278  0.49846112  0.13143062  1
  V  V3  1  0.87418967  0.37271267  0.00028140  1
  V  V4  1  0.49493972  0.37070606  0.87926756  1
  V  V5  1  0.74992951  0.75025208  0.00179202  1
  V  V6  1  -0.00838381  0.13090151  0.62301464  1
  V  V7  1  0.63280392  0.24849568  0.87944184  1
  V  V8  1  0.44015821  0.07457019  0.68865235  1
  V  V9  1  0.37136718  0.27034387  0.62727576  1
  V  V10  1  -0.00093177  0.87321844  0.36804121  1
  V  V11  1  0.24730426  0.12394149  0.37448723  1
  V  V12  1  0.24991753  0.37141296  0.14655431  1
  V  V13  1  0.25101199  0.25713703  -0.00186333  1
  V  V14  1  0.87909076  0.74928125  0.13350362  1
  V  V15  1  0.75795312  0.26147616  0.49863401  1
  V  V16  1  0.12669884  0.88160038  0.74907034  1
  V  V17  1  0.62620837  0.62342723  0.00173106  1
  V  V18  1  0.49605766  0.63411555  0.64018834  1
  V  V19  1  0.87505429  0.50001105  0.87511377  1
  V  V20  1  0.00074814  0.87582950  0.88020924  1
  V  V21  1  -0.01014513  0.50330496  0.49872665  1
  V  V22  1  0.13069087  0.49333337  0.13890292  1
  V  V23  1  0.49755996  0.75218075  0.24498541  1
  V  V24  1  0.74802900  0.62408359  0.36905855  1
  V  V25  1  0.37154957  0.49484933  0.36989392  1
  V  V26  1  0.61863086  0.62565327  0.49898908  1
  V  V27  1  0.74829485  0.75256795  0.49915522  1
  V  V28  1  0.12401144  -0.00451130  0.11619301  1
  V  V29  1  -0.00888998  0.37460349  0.37703014  1
  V  V30  1  0.61741703  0.35417129  0.25416880  1
  V  V31  1  0.50315665  0.87092246  0.87962033  1
  V  V32  1  0.25363521  0.26227138  0.50544072  1
  V  V33  1  0.00312946  0.62668285  0.13156174  1
  V  V34  1  0.12403200  0.12879244  0.49732069  1
  V  V35  1  0.62157421  0.75243634  0.37251944  1
  V  V36  1  0.50236713  0.00133543  0.00908213  1
  V  V37  1  0.49300971  0.49350215  0.49951440  1
  V  V38  1  0.13116694  0.26198884  0.37012505  1
  V  V39  1  0.87417094  0.25050562  0.12381194  1
  V  V40  1  -0.00072166  0.00124763  0.49686783  1
  V  V41  1  0.62551963  0.86827825  0.75251141  1
  V  V42  1  0.49699276  0.00238070  0.50394962  1
  V  V43  1  0.62675284  0.89146789  0.24620815  1
  V  V44  1  0.87247368  0.11997819  0.25276671  1
  V  V45  1  0.62552291  0.00950811  0.62809210  1
  V  V46  1  0.13471038  0.50524064  0.61116190  1
  V  V47  1  0.30990114  0.67260941  0.81566907  1
  V  V48  1  0.37275441  0.86894782  0.50058590  1
  V  V49  1  0.62624367  0.49975195  0.62849719  1
  V  V50  1  0.24733168  -0.00450027  0.24179557  1
  V  V51  1  0.87238373  0.62147661  0.74643297  1
  V  V52  1  0.12977900  0.37651467  0.74299439  1
  V  V53  1  0.87475716  0.87594896  0.49898264  1
  V  V54  1  0.75073069  0.61947910  0.87373599  1
  V  V55  1  0.37009899  -0.00252830  0.37427585  1
  V  V56  1  0.37104638  0.49607891  0.87516203  1
  V  V57  1  0.49759806  0.62580127  0.12554925  1
  V  V58  1  0.62015206  0.13691361  0.49556696  1
  V  V59  1  0.63019582  0.37805126  0.75024779  1
  V  V60  1  0.25585402  0.12039749  0.86232499  1
  V  V61  1  0.49400653  0.49407738  0.00277555  1
  V  V62  1  0.12649150  0.74248659  0.88062303  1
  V  V63  1  0.25680035  0.49475821  0.74636050  1
  V  V64  1  0.36282873  0.87782308  0.00504730  1
  V  V65  1  0.12605560  0.25128073  0.87239082  1
  V  V66  1  0.11846009  0.74423199  0.37643310  1
  V  V67  1  0.75417307  0.00337250  0.75236300  1
  V  V68  1  0.12464578  0.86929029  0.24556940  1
  V  V69  1  0.38220371  0.25135600  0.12071621  1
  V  V70  1  0.74942841  0.37251836  0.12254218  1
  V  V71  1  0.49896928  0.87480918  0.37490593  1
  V  V72  1  0.63431471  0.12300955  0.00695889  1
  V  V73  1  0.74753490  0.88687309  0.12866349  1
  V  V74  1  0.49845431  0.24940893  0.74604441  1
  V  V75  1  0.25030933  0.62529842  0.36999999  1
  V  V76  1  0.24391975  0.74664211  0.50152956  1
  V  V77  1  0.38059904  0.12545491  0.24735418  1
  V  V78  1  0.35891261  0.75292903  0.12144932  1
  V  V79  1  0.00480540  0.50051459  0.00173258  1
  V  V80  1  0.87840907  0.87767673  0.00173946  1
  V  V81  1  0.88115391  0.00282444  0.87753060  1
  V  V82  1  0.00335421  0.12181062  0.11847322  1
  V  V83  1  0.75022839  0.87610867  0.62488678  1
  V  V84  1  -0.00053689  0.74640308  0.75039095  1
  Zn  Zn85  1  0.86870612  0.49514193  0.37351681  1
  Zn  Zn86  1  0.37052209  0.62129912  0.24598324  1
  Zn  Zn87  1  0.86935893  0.27386501  0.62626117  1
  Zn  Zn88  1  0.75641194  0.12982793  0.87947319  1
  Zn  Zn89  1  0.74052050  0.12331969  0.37071967  1
  Zn  Zn90  1  0.12665619  0.12280437  -0.00297530  1
  Zn  Zn91  1  -0.00171037  0.25366414  0.74574769  1
  Zn  Zn92  1  0.00380023  0.37553138  0.87549644  1
  Zn  Zn93  1  0.37788884  0.00623093  0.87102207  1
  Zn  Zn94  1  0.00373193  0.62908164  0.61565736  1
  Zn  Zn95  1  0.50591900  0.12509444  0.12914598  1
  Zn  Zn96  1  0.75068583  0.49472948  0.25201539  1
  Zn  Zn97  1  0.12640963  0.00610796  0.62931654  1
  Zn  Zn98  1  0.62202587  0.74591605  0.87263284  1
  Zn  Zn99  1  0.50313744  0.35839783  0.38110702  1
  Zn  Zn100  1  0.87996007  0.62333610  0.25352634  1
  Zn  Zn101  1  0.37038681  0.74415043  0.63505821  1
  Zn  Zn102  1  0.86538143  -0.00403157  0.36834131  1
  Zn  Zn103  1  0.79255649  0.44173500  0.68618374  1
  Zn  Zn104  1  0.87565790  0.74994192  0.62432260  1
  Zn  Zn105  1  0.87672688  0.13008215  0.74941043  1
  Zn  Zn106  1  0.25080161  0.87881515  0.62873352  1
  Zn  Zn107  1  0.19064569  0.18505805  0.18718284  1
  Zn  Zn108  1  0.18715842  0.18843887  0.68370684  1
  Zn  Zn109  1  0.18281180  0.68518063  0.19048662  1
  Zn  Zn110  1  0.18108310  0.69020441  0.68307264  1
  Zn  Zn111  1  0.69311058  0.18685625  0.18310526  1
  Zn  Zn112  1  0.69020544  0.19069160  0.68499211  1
  Zn  Zn113  1  0.68539659  0.69332837  0.18650354  1
  Zn  Zn114  1  0.68909396  0.68509012  0.68614865  1
  Zn  Zn115  1  0.34458075  0.29256799  0.32824149  1
  Zn  Zn116  1  0.31274120  0.31093504  0.81004826  1
  Zn  Zn117  1  0.30871046  0.81063489  0.31069406  1
  Zn  Zn118  1  0.30828816  0.83343152  0.82245922  1
  Zn  Zn119  1  0.80658529  0.30521211  0.31299001  1
  Zn  Zn120  1  0.81638070  0.30987485  0.81353961  1
  Zn  Zn121  1  0.80975349  0.81354814  0.31171866  1
  Zn  Zn122  1  0.81207354  0.81055577  0.81405027  1
  Zn  Zn123  1  0.19040126  0.43758851  0.43116229  1
  Zn  Zn124  1  0.19073123  0.43639060  0.93807980  1
  Zn  Zn125  1  0.18500402  0.93537960  0.43773851  1
  Zn  Zn126  1  0.18695837  0.94166304  0.93175859  1
  Zn  Zn127  1  0.68055006  0.43733087  0.43523011  1
  Zn  Zn128  1  0.68566063  0.43631053  0.94027885  1
  Zn  Zn129  1  0.68649902  0.94440102  0.43576365  1
  Zn  Zn130  1  0.69014607  0.94052169  0.93978434  1
  Zn  Zn131  1  0.30946417  0.06694985  0.05791970  1
  Zn  Zn132  1  0.30271480  0.05884671  0.56146419  1
  Zn  Zn133  1  0.31453050  0.55432236  0.06814571  1
  Zn  Zn134  1  0.31433554  0.56581135  0.55958750  1
  Zn  Zn135  1  0.81673587  0.06248694  0.06262402  1
  Zn  Zn136  1  0.80892177  0.06506863  0.55600337  1
  Zn  Zn137  1  0.81378566  0.56033209  0.06541038  1
  Zn  Zn138  1  0.81200082  0.56731123  0.55664255  1
  Zn  Zn139  1  0.43481908  0.43222469  0.19027193  1
  Zn  Zn140  1  0.44389358  0.44270214  0.69137772  1
  Zn  Zn141  1  0.43579605  0.93750237  0.18491089  1
  Zn  Zn142  1  0.44095110  0.91152452  0.68879486  1
  Zn  Zn143  1  0.93850341  0.43935486  0.19185550  1
  Zn  Zn144  1  0.95500478  0.43868188  0.68516039  1
  Zn  Zn145  1  0.94141546  0.93803793  0.18501697  1
  Zn  Zn146  1  0.94067311  0.93985366  0.68614828  1
  Zn  Zn147  1  0.05951291  0.06338036  0.30884358  1
  Zn  Zn148  1  0.06041720  0.06769433  0.81389445  1
  Zn  Zn149  1  0.06295878  0.56177799  0.31494708  1
  Zn  Zn150  1  0.06542498  0.56068672  0.81137371  1
  Zn  Zn151  1  0.55818277  0.06341459  0.31728796  1
  Zn  Zn152  1  0.56935937  0.05652827  0.82456477  1
  Zn  Zn153  1  0.55669839  0.56080942  0.31252099  1
  Zn  Zn154  1  0.56168338  0.56014404  0.81549875  1
  Zn  Zn155  1  0.43671690  0.18557668  0.44489687  1
  Zn  Zn156  1  0.43831085  0.18521617  0.93892147  1
  Zn  Zn157  1  0.43450871  0.68447003  0.43681993  1
  Zn  Zn158  1  0.44066405  0.69211244  0.94702411  1
  Zn  Zn159  1  0.93537013  0.19307039  0.43662146  1
  Zn  Zn160  1  0.94183501  0.18993663  0.93733287  1
  Zn  Zn161  1  0.93559172  0.68685019  0.43687622  1
  Zn  Zn162  1  0.93983079  0.68583884  0.94215733  1
  Zn  Zn163  1  0.06664947  0.31377530  0.06219344  1
  Zn  Zn164  1  0.06248574  0.31738143  0.56063646  1
  Zn  Zn165  1  0.06579019  0.80899306  0.06132004  1
  Zn  Zn166  1  0.06014442  0.81229301  0.56112587  1
  Zn  Zn167  1  0.56417190  0.31001978  0.06129028  1
  Zn  Zn168  1  0.56113119  0.31486949  0.56884124  1
  Zn  Zn169  1  0.56310729  0.81463182  0.06363409  1
  Zn  Zn170  1  0.56200733  0.81299558  0.56563729  1
  O  O171  1  0.11910115  0.11587386  0.12471224  1
  O  O172  1  0.11572951  0.12878778  0.61061991  1
  O  O173  1  0.12085128  0.61774260  0.11842279  1
  O  O174  1  0.12173679  0.60905324  0.62890866  1
  O  O175  1  0.62399843  0.13005686  0.11171657  1
  O  O176  1  0.62519103  0.11378511  0.62007256  1
  O  O177  1  0.62013402  0.61724266  0.12118064  1
  O  O178  1  0.61427948  0.62377150  0.61850895  1
  O  O179  1  0.36718765  0.39481310  0.37690317  1
  O  O180  1  0.38664952  0.38058848  0.87074376  1
  O  O181  1  0.37871214  0.87780076  0.38092430  1
  O  O182  1  0.38478622  0.88260828  0.88704759  1
  O  O183  1  0.88760116  0.37257330  0.36777205  1
  O  O184  1  0.87674742  0.38120263  0.88428006  1
  O  O185  1  0.88245454  0.87450036  0.37843250  1
  O  O186  1  0.88196441  0.87869138  0.88191718  1
  O  O187  1  0.25168890  0.00399429  0.36826074  1
  O  O188  1  0.25414427  0.01503629  0.87427139  1
  O  O189  1  0.26088618  0.51165611  0.38145636  1
  O  O190  1  0.26422406  0.49669205  0.86841734  1
  O  O191  1  0.75350925  0.00953595  0.37713273  1
  O  O192  1  0.76388582  -0.00054444  0.86855104  1
  O  O193  1  0.74719393  0.50938638  0.37388800  1
  O  O194  1  0.75572918  0.51262270  0.88481475  1
  O  O195  1  0.24758340  0.48036518  0.12595522  1
  O  O196  1  0.24299911  0.50594599  0.62963920  1
  O  O197  1  0.24119055  1.00539706  0.13409486  1
  O  O198  1  0.23709146  0.99113684  0.61830100  1
  O  O199  1  0.74017425  0.49258760  0.12685122  1
  O  O200  1  0.73163505  0.51461104  0.62213767  1
  O  O201  1  0.75617410  0.98584200  0.12222871  1
  O  O202  1  0.74285047  0.99632069  0.63137165  1
  O  O203  1  0.00055022  0.36238919  0.25483127  1
  O  O204  1  0.01702285  0.37615047  0.75642728  1
  O  O205  1  0.00660947  0.87830279  0.26090647  1
  O  O206  1  0.00313429  0.86397756  0.76079709  1
  O  O207  1  0.51655351  0.37391098  0.24551896  1
  O  O208  1  0.50895684  0.36757505  0.75865790  1
  O  O209  1  0.50511625  0.87012598  0.25270092  1
  O  O210  1  0.51364541  0.87639846  0.76450453  1
  O  O211  1  0.48486338  0.11716131  0.24733211  1
  O  O212  1  0.50285440  0.12901064  0.75238622  1
  O  O213  1  0.49771801  0.63540010  0.24305595  1
  O  O214  1  0.50527170  0.62586970  0.73888708  1
  O  O215  1  0.99379711  0.13542568  0.23952430  1
  O  O216  1  1.00097590  0.12868321  0.73676759  1
  O  O217  1  1.00114554  0.62209152  0.23603993  1
  O  O218  1  0.99302987  0.63420147  0.75151057  1
  O  O219  1  0.36810131  0.24408944  0.01336454  1
  O  O220  1  0.36779622  0.24513488  0.52067364  1
  O  O221  1  0.37802718  0.76648974  0.00835169  1
  O  O222  1  0.36847880  0.75941508  0.49751161  1
  O  O223  1  0.88386901  0.26496262  0.00645461  1
  O  O224  1  0.86311588  0.25054935  0.50400312  1
  O  O225  1  0.86955077  0.75922496  0.00555366  1
  O  O226  1  0.86733281  0.75755249  0.50114091  1
  O  O227  1  0.13119724  0.24534780  0.49282790  1
  O  O228  1  0.13215722  0.24989375  0.98992782  1
  O  O229  1  0.13205719  0.75622433  0.49009051  1
  O  O230  1  0.12514187  0.74078150  0.98859194  1
  O  O231  1  0.62250948  0.23876360  0.50658505  1
  O  O232  1  0.61863663  0.23599886  0.99137886  1
  O  O233  1  0.62644706  0.74486498  0.49426730  1
  O  O234  1  0.63487886  0.74351136  1.00085256  1
  O  O235  1  0.48508043  0.24891793  0.12132040  1
  O  O236  1  0.48909262  0.25238526  0.63722513  1
  O  O237  1  0.49388689  0.74618041  0.13038523  1
  O  O238  1  0.49769419  0.73843440  0.62612598  1
  O  O239  1  0.99489685  0.24748151  0.13076459  1
  O  O240  1  0.99633955  0.24444757  0.62157473  1
  O  O241  1  0.99153176  0.73891354  0.11656284  1
  O  O242  1  0.99848468  0.74713940  0.63515109  1
  O  O243  1  0.00883565  0.25713544  0.36945268  1
  O  O244  1  0.01507657  0.25180306  0.87192616  1
  O  O245  1  0.00783495  0.75890102  0.38052786  1
  O  O246  1  0.00757825  0.75435083  0.87109613  1
  O  O247  1  0.45147929  0.26018729  0.36556732  1
  O  O248  1  0.50351414  0.25475513  0.86644157  1
  O  O249  1  0.50150103  0.75540775  0.36657863  1
  O  O250  1  0.50483763  0.76473804  0.88478252  1
  O  O251  1  0.24021998  0.13237208  0.49393118  1
  O  O252  1  0.24644533  0.13771017  0.99010797  1
  O  O253  1  0.25540241  0.64021362  0.48999019  1
  O  O254  1  0.24031839  0.61557903  1.00390785  1
  O  O255  1  0.73147821  0.12875108  0.50044679  1
  O  O256  1  0.73862650  0.12111692  0.99971267  1
  O  O257  1  0.73733336  0.63144148  0.49014013  1
  O  O258  1  0.74672334  0.63090946  0.99699001  1
  O  O259  1  0.25086756  0.36046392  0.00069876  1
  O  O260  1  0.24562517  0.36102189  0.49704141  1
  O  O261  1  0.26451983  0.87894597  -0.00880664  1
  O  O262  1  0.25699712  0.86443755  0.49703812  1
  O  O263  1  0.75815406  0.38003029  0.01311822  1
  O  O264  1  0.73984440  0.35968147  0.49465931  1
  O  O265  1  0.75678813  0.86737320  0.00533710  1
  O  O266  1  0.75277110  0.87207379  0.50532729  1
  O  O267  1  0.12461105  0.50200706  0.23783582  1
  O  O268  1  0.13559583  0.49537314  0.74361363  1
  O  O269  1  0.12957247  0.99176216  0.24275485  1
  O  O270  1  0.11402006  0.98353380  0.75296084  1
  O  O271  1  0.62344709  0.49810322  0.23814655  1
  O  O272  1  0.61769917  0.49126577  0.74233158  1
  O  O273  1  0.61875217  0.99071852  0.25206633  1
  O  O274  1  0.63373228  0.99311524  0.74691612  1
  O  O275  1  0.36472753  0.00245029  0.25173510  1
  O  O276  1  0.38911884  0.00548885  0.74454677  1
  O  O277  1  0.38130122  0.50346777  0.26428490  1
  O  O278  1  0.36871655  0.49993710  0.75802354  1
  O  O279  1  0.88234727  0.01675988  0.24676782  1
  O  O280  1  0.86990245  0.00143391  0.75764714  1
  O  O281  1  0.86909206  0.50504098  0.25328322  1
  O  O282  1  0.87631184  0.51020940  0.75468825  1
  O  O283  1  0.11848311  0.36508096  0.37387641  1
  O  O284  1  0.12871358  0.36809422  0.86606172  1
  O  O285  1  0.11687879  0.86748224  0.36780476  1
  O  O286  1  0.11905260  0.86768979  0.86919279  1
  O  O287  1  0.62042820  0.37406210  0.35827473  1
  O  O288  1  0.61502834  0.36870096  0.87317306  1
  O  O289  1  0.61757139  0.87083199  0.36869981  1
  O  O290  1  0.62207887  0.87512684  0.86996486  1
  O  O291  1  0.37606805  0.13248254  0.12939369  1
  O  O292  1  0.37710137  0.12438050  0.62803078  1
  O  O293  1  0.38008298  0.63273644  0.12500208  1
  O  O294  1  0.39124747  0.62728832  0.62367103  1
  O  O295  1  0.88244109  0.13249778  0.12924690  1
  O  O296  1  0.88708478  0.11991354  0.62236675  1
  O  O297  1  0.88374803  0.63238125  0.12400643  1
  O  O298  1  0.87722665  0.62714407  0.63325329  1
  O  O299  1  0.25234322  0.25744571  0.11716320  1
  O  O300  1  0.26273119  0.25044859  0.62153919  1
  O  O301  1  0.26008350  0.74637434  0.13006290  1
  O  O302  1  0.24953432  0.75359557  0.61671915  1
  O  O303  1  0.76568111  0.25688733  0.12399556  1
  O  O304  1  0.75195617  0.24541241  0.60754435  1
  O  O305  1  0.75860267  0.75378368  0.11498759  1
  O  O306  1  0.74987641  0.75763412  0.61737304  1
  O  O307  1  0.24675755  0.24314652  0.38196098  1
  O  O308  1  0.24370614  0.24469206  0.87821225  1
  O  O309  1  0.24093849  0.74579546  0.38055896  1
  O  O310  1  0.24810934  0.73767266  0.86878870  1
  O  O311  1  0.75289106  0.23949561  0.39033964  1
  O  O312  1  0.73632744  0.25023945  0.87340695  1
  O  O313  1  0.74048748  0.74570808  0.37976928  1
  O  O314  1  0.75102133  0.74043083  0.88760573  1
  O  O315  1  0.00441795  0.13050085  0.01413973  1
  O  O316  1  0.00449126  0.12056997  0.50104144  1
  O  O317  1  0.00567887  0.61326281  0.00949805  1
  O  O318  1  0.00021483  0.60963188  0.49598453  1
  O  O319  1  0.50945106  0.11673841  0.00065173  1
  O  O320  1  0.50884738  0.11736410  0.50271167  1
  O  O321  1  0.50752655  0.61674085  0.00590882  1
  O  O322  1  0.50919500  0.62104366  0.50336727  1
  O  O323  1  0.50801912  0.38923475  0.49816114  1
  O  O324  1  0.50459930  0.38212721  0.99196114  1
  O  O325  1  0.49176470  0.87976493  0.49759222  1
  O  O326  1  0.49714422  0.88357542  0.99756623  1
  O  O327  1  1.00680977  0.38986229  0.48889464  1
  O  O328  1  0.99601384  0.38626357  1.00050629  1
  O  O329  1  0.99659514  0.88325429  0.49117425  1
  O  O330  1  0.99399728  0.86873705  0.98800590  1
  O  O331  1  0.48850551  0.49964911  0.38316111  1
  O  O332  1  0.49182412  0.49258629  0.88184610  1
  O  O333  1  0.48972848  0.99249011  0.38239234  1
  O  O334  1  0.49818237  0.99090036  0.88749842  1
  O  O335  1  1.00019785  0.49295646  0.38284235  1
  O  O336  1  0.99445994  0.50000762  0.88458065  1
  O  O337  1  0.99683198  0.99149622  0.37958460  1
  O  O338  1  0.98958700  0.99176234  0.87175897  1
  O  O339  1  0.01061542  0.00979887  0.12842274  1
  O  O340  1  0.00619822  0.00708961  0.61456629  1
  O  O341  1  0.00979743  0.50268939  0.11950230  1
  O  O342  1  0.01311826  0.50468605  0.60998550  1
  O  O343  1  0.49930972  0.00173034  0.11324950  1
  O  O344  1  0.50074964  0.00498876  0.63013427  1
  O  O345  1  0.50225081  0.50213431  0.11928550  1
  O  O346  1  0.50684162  0.51140960  0.61829070  1
  O  O347  1  0.25333746  0.36309271  0.24293420  1
  O  O348  1  0.24520245  0.38696602  0.75109933  1
  O  O349  1  0.23936657  0.88573741  0.25515539  1
  O  O350  1  0.23103877  0.87333356  0.75142105  1
  O  O351  1  0.73827390  0.37238708  0.24034375  1
  O  O352  1  0.73504288  0.37721801  0.76213342  1
  O  O353  1  0.73894243  0.86921204  0.24058579  1
  O  O354  1  0.74783830  0.88542282  0.74659713  1
  O  O355  1  0.25529592  0.11374629  0.25570266  1
  O  O356  1  0.24596721  0.12945299  0.76352809  1
  O  O357  1  0.25225460  0.63103720  0.26420945  1
  O  O358  1  0.24997920  0.61771986  0.75152468  1
  O  O359  1  0.76868438  0.13157454  0.24881221  1
  O  O360  1  0.75067531  0.11303663  0.75244736  1
  O  O361  1  0.74406596  0.62779489  0.26206316  1
  O  O362  1  0.75935470  0.63070131  0.76135909  1
  O  O363  1  0.36676153  0.11475730  0.36763026  1
  O  O364  1  0.36187692  0.12590348  0.87494074  1
  O  O365  1  0.36662041  0.61985156  0.37025069  1
  O  O366  1  0.37612602  0.62091507  0.87686689  1
  O  O367  1  0.88312629  0.12552081  0.35756846  1
  O  O368  1  0.87582969  0.11737462  0.87586085  1
  O  O369  1  0.86186522  0.62560932  0.37276802  1
  O  O370  1  0.86968031  0.62018073  0.87104757  1
  O  O371  1  0.14000343  0.37899736  0.12511907  1
  O  O372  1  0.12298155  0.39065068  0.63283418  1
  O  O373  1  0.11716139  0.88095267  0.13389785  1
  O  O374  1  0.11788290  0.87142839  0.64363888  1
  O  O375  1  0.63149659  0.37783162  0.13036936  1
  O  O376  1  0.62101154  0.38652144  0.63677780  1
  O  O377  1  0.63533048  0.87104014  0.13389909  1
  O  O378  1  0.62735351  0.88601837  0.63351460  1
  O  O379  1  0.11831160  0.24083438  0.25948834  1
  O  O380  1  0.12737613  0.26058504  0.75333080  1
  O  O381  1  0.12741209  0.76258324  0.25754106  1
  O  O382  1  0.11730466  0.75403535  0.76116679  1
  O  O383  1  0.62432662  0.25513616  0.24599584  1
  O  O384  1  0.61729587  0.25507768  0.75480003  1
  O  O385  1  0.61193151  0.75678818  0.25308318  1
  O  O386  1  0.63636778  0.76448428  0.75285715  1
  O  O387  1  0.35973644  0.23447687  0.22965827  1
  O  O388  1  0.38155900  0.25197326  0.73771396  1
  O  O389  1  0.38481089  0.75473020  0.24106082  1
  O  O390  1  0.36126356  0.74218795  0.76036485  1
  O  O391  1  0.88396429  0.24322230  0.24126820  1
  O  O392  1  0.87850379  0.24751621  0.74431683  1
  O  O393  1  0.87112208  0.74743874  0.23645025  1
  O  O394  1  0.88231574  0.74065308  0.75151579  1
  O  O395  1  0.38495528  0.50947159  0.48896285  1
  O  O396  1  0.38701826  0.50232753  0.99342277  1
  O  O397  1  0.37720003  0.98800294  0.49697122  1
  O  O398  1  0.38190436  0.99163527  1.00150595  1
  O  O399  1  0.88635063  0.50153578  0.49560383  1
  O  O400  1  0.88397286  0.49080516  0.99956960  1
  O  O401  1  0.88590802  0.99586816  0.49720559  1
  O  O402  1  0.87332513  0.98630763  0.99339432  1
  O  O403  1  0.12881823  -0.00112340  0.01211666  1
  O  O404  1  0.11256582  0.00892261  0.49425483  1
  O  O405  1  0.12072464  0.50343142  0.00637519  1
  O  O406  1  0.12573117  0.49823269  0.50918064  1
  O  O407  1  0.61936540  0.01417671  -0.00486981  1
  O  O408  1  0.61488243  0.00322804  0.51212395  1
  O  O409  1  0.61534988  0.50180412  0.01158591  1
  O  O410  1  0.61653259  0.50937057  0.50526568  1
  O  O411  1  0.36462249  0.36118999  0.12931108  1
  O  O412  1  0.37882385  0.36895536  0.62716605  1
  O  O413  1  0.37433763  0.86965372  0.11303680  1
  O  O414  1  0.37161269  0.86330619  0.61692622  1
  O  O415  1  0.86966778  0.37029502  0.12120848  1
  O  O416  1  0.87257048  0.38784682  0.63171399  1
  O  O417  1  0.87284591  0.86856124  0.11919844  1
  O  O418  1  0.86931695  0.87509678  0.61832469  1
  O  O419  1  0.12530545  0.13315372  0.38276111  1
  O  O420  1  0.13361651  0.13245847  0.87565018  1
  O  O421  1  0.13057999  0.63755754  0.36985494  1
  O  O422  1  0.12075999  0.63064792  0.88509253  1
  O  O423  1  0.61934004  0.12463592  0.39122359  1
  O  O424  1  0.62998715  0.13240778  0.88524183  1
  O  O425  1  0.62563460  0.63092212  0.38158052  1
  O  O426  1  0.63279039  0.62467741  0.88149198  1
