# generated using pymatgen
data_V85Zn86O256
_symmetry_space_group_name_H-M   'P 1'
_cell_length_a   16.94207155
_cell_length_b   16.94110041
_cell_length_c   16.95363964
_cell_angle_alpha   89.95243977
_cell_angle_beta   89.90294974
_cell_angle_gamma   90.02491820
_symmetry_Int_Tables_number   1
_chemical_formula_structural   V85Zn86O256
_chemical_formula_sum   'V85 Zn86 O256'
_cell_volume   4865.97935378
_cell_formula_units_Z   1
loop_
 _symmetry_equiv_pos_site_id
 _symmetry_equiv_pos_as_xyz
  1  'x, y, z'
loop_
 _atom_site_type_symbol
 _atom_site_label
 _atom_site_symmetry_multiplicity
 _atom_site_fract_x
 _atom_site_fract_y
 _atom_site_fract_z
 _atom_site_occupancy
  V  V0  1  0.76555808  0.37149069  0.12133538  1
  V  V1  1  0.75432154  0.50621633  0.24765827  1
  V  V2  1  0.50252988  0.49932443  0.00118236  1
  V  V3  1  0.14021783  0.87893782  0.74514535  1
  V  V4  1  -0.00530965  0.48361090  0.50500031  1
  V  V5  1  0.62494849  0.75254762  0.87252012  1
  V  V6  1  0.00148022  0.12418052  0.61718174  1
  V  V7  1  0.74915651  -0.00249909  0.74875190  1
  V  V8  1  0.49729441  0.12216414  0.62309477  1
  V  V9  1  0.57086758  0.31007271  0.42163364  1
  V  V10  1  0.44371516  -0.06011734  0.53914865  1
  V  V11  1  0.24438490  0.62495440  0.37550490  1
  V  V12  1  0.12179166  0.49902998  0.62993573  1
  V  V13  1  -0.00949226  -0.00478908  0.50325009  1
  V  V14  1  0.62160377  0.37027646  0.24188563  1
  V  V15  1  0.37449941  0.25642929  0.61926571  1
  V  V16  1  0.24840563  0.75277986  0.00279290  1
  V  V17  1  0.37383552  0.37290395  -0.00042611  1
  V  V18  1  0.87123973  0.25972887  0.62122020  1
  V  V19  1  0.24426233  0.12859395  0.38138291  1
  V  V20  1  0.50106521  0.12090124  0.12727611  1
  V  V21  1  0.75040578  0.13317240  0.37478638  1
  V  V22  1  0.75109687  0.88353215  0.11862861  1
  V  V23  1  -0.00429621  0.74671777  0.25290297  1
  V  V24  1  0.75175446  0.12519003  0.87559176  1
  V  V25  1  0.87693380  0.49347040  0.87794135  1
  V  V26  1  0.12062792  0.12480754  0.02460801  1
  V  V27  1  0.37341693  0.62453216  0.25040804  1
  V  V28  1  0.11767855  0.37357311  0.25790236  1
  V  V29  1  0.88039591  0.75696041  0.61954491  1
  V  V30  1  0.62106970  0.12042721  0.49265116  1
  V  V31  1  0.11816424  0.88115696  0.24697129  1
  V  V32  1  0.37666945  0.49980579  0.87706064  1
  V  V33  1  0.37144189  0.88204823  -0.00719303  1
  V  V34  1  0.11247799  0.24931173  0.38747851  1
  V  V35  1  0.50521548  0.62113842  0.62350845  1
  V  V36  1  0.13657021  -0.00156577  0.61794830  1
  V  V37  1  0.88492672  0.49568011  0.36957086  1
  V  V38  1  0.62802713  0.62171173  0.49528442  1
  V  V39  1  0.75271964  0.26156140  0.49918707  1
  V  V40  1  0.50313398  0.37488466  0.87548574  1
  V  V41  1  0.49771339  0.00254783  -0.00565476  1
  V  V42  1  0.00469673  0.74985319  0.74604061  1
  V  V43  1  0.87552082  0.75485825  0.12470803  1
  V  V44  1  0.24686285  0.49097124  0.75075539  1
  V  V45  1  0.50049274  0.62516978  0.12440893  1
  V  V46  1  0.62625663  0.74829173  0.37140356  1
  V  V47  1  0.12298662  0.49997786  0.12905678  1
  V  V48  1  0.88099522  0.62657561  0.74231634  1
  V  V49  1  0.22948275  0.12027932  0.87008772  1
  V  V50  1  0.63064201  0.24738102  0.87749114  1
  V  V51  1  0.37277982  0.24854314  0.12461540  1
  V  V52  1  0.25448471  0.38285377  0.61571762  1
  V  V53  1  0.87688031  0.12325588  0.74642735  1
  V  V54  1  0.24661186  0.87984664  0.12809558  1
  V  V55  1  0.49948863  0.87910556  0.37129063  1
  V  V56  1  0.49769816  0.75051420  0.24802783  1
  V  V57  1  0.75572290  0.62507113  0.87248319  1
  V  V58  1  0.24149982  0.00511297  0.24762458  1
  V  V59  1  -0.00674106  0.62516158  0.12756011  1
  V  V60  1  0.62521812  -0.00328582  0.61952957  1
  V  V61  1  0.00116468  -0.00193064  0.01573395  1
  V  V62  1  0.37719917  0.62518968  0.74869759  1
  V  V63  1  0.49431475  0.25066509  0.75344544  1
  V  V64  1  0.62780590  0.12060947  0.00696538  1
  V  V65  1  -0.00225048  0.48874201  -0.00016641  1
  V  V66  1  0.11699922  0.62609046  0.50535332  1
  V  V67  1  0.87599688  0.12927954  0.24122833  1
  V  V68  1  0.24966067  0.62490385  0.87558734  1
  V  V69  1  0.12270929  0.62789037  0.00110194  1
  V  V70  1  -0.00563443  0.24860327  0.23956132  1
  V  V71  1  0.74649469  0.00354380  0.24986278  1
  V  V72  1  0.62427010  0.87906860  0.24015416  1
  V  V73  1  -0.00935500  0.87408498  0.37979949  1
  V  V74  1  0.75752632  0.75498058  -0.00156387  1
  V  V75  1  0.36922806  0.11482314  0.76051507  1
  V  V76  1  0.38073008  0.48985183  0.38236057  1
  V  V77  1  -0.00374736  0.87935939  0.87488111  1
  V  V78  1  0.76550025  0.25015274  0.00285919  1
  V  V79  1  0.37730903  0.00163639  0.37134788  1
  V  V80  1  0.24999329  0.49668054  0.25038441  1
  V  V81  1  0.64505093  0.37562524  0.75173042  1
  V  V82  1  0.37317107  0.75231638  0.12717693  1
  V  V83  1  0.62707206  0.62495070  -0.00089384  1
  V  V84  1  0.75599557  0.75488143  0.49668893  1
  Zn  Zn85  1  0.37819439  0.75983658  0.61744244  1
  Zn  Zn86  1  0.87095323  -0.00062190  0.37961076  1
  Zn  Zn87  1  0.62912594  0.49940169  0.12288833  1
  Zn  Zn88  1  0.75399317  0.87790377  0.61615760  1
  Zn  Zn89  1  0.50084346  0.49175951  0.49758947  1
  Zn  Zn90  1  0.37364304  0.12973597  0.24987351  1
  Zn  Zn91  1  0.76172771  0.62883213  0.36698689  1
  Zn  Zn92  1  0.24736156  0.37148944  0.12513216  1
  Zn  Zn93  1  0.24986437  0.77666600  0.52135695  1
  Zn  Zn94  1  0.12334846  0.75227024  0.37995457  1
  Zn  Zn95  1  0.63371455  0.49248228  0.61897290  1
  Zn  Zn96  1  0.12611528  0.75428007  0.87413398  1
  Zn  Zn97  1  0.02648909  0.36639661  0.87014992  1
  Zn  Zn98  1  0.25153128  0.25628809  0.49679490  1
  Zn  Zn99  1  0.62513462  0.87234516  0.74726019  1
  Zn  Zn100  1  0.23904319  0.25297008  -0.00883427  1
  Zn  Zn101  1  0.75979661  0.49770874  0.73864254  1
  Zn  Zn102  1  0.02158205  0.24780463  0.75552013  1
  Zn  Zn103  1  0.50370012  0.74848451  0.74868698  1
  Zn  Zn104  1  0.49972367  0.25130109  0.25255338  1
  Zn  Zn105  1  0.49943206  0.87666863  0.87517356  1
  Zn  Zn106  1  0.87320753  -0.00348011  0.88071384  1
  Zn  Zn107  1  0.18812471  0.19193608  0.19318114  1
  Zn  Zn108  1  0.19256152  0.18070310  0.67833796  1
  Zn  Zn109  1  0.18285575  0.68998862  0.19072646  1
  Zn  Zn110  1  0.19250351  0.68720869  0.68469810  1
  Zn  Zn111  1  0.68807713  0.19161654  0.18589106  1
  Zn  Zn112  1  0.68926972  0.18752279  0.68686638  1
  Zn  Zn113  1  0.68707205  0.68947615  0.18406531  1
  Zn  Zn114  1  0.69302732  0.68468712  0.68395002  1
  Zn  Zn115  1  0.31006880  0.31235987  0.31158284  1
  Zn  Zn116  1  0.19641563  0.30317915  0.81079740  1
  Zn  Zn117  1  0.29329716  0.82941356  0.34400678  1
  Zn  Zn118  1  0.31335261  0.80691802  0.81239538  1
  Zn  Zn119  1  0.81368070  0.31813838  0.31386708  1
  Zn  Zn120  1  0.87984963  0.30864833  0.81624103  1
  Zn  Zn121  1  0.81328105  0.81287447  0.30885104  1
  Zn  Zn122  1  0.81484876  0.81356467  0.80897396  1
  Zn  Zn123  1  0.18425861  0.44006430  0.43822178  1
  Zn  Zn124  1  0.19011244  0.44193768  0.94368671  1
  Zn  Zn125  1  0.17933885  0.94013393  0.43561769  1
  Zn  Zn126  1  0.18439561  0.94539251  0.93378921  1
  Zn  Zn127  1  0.69883763  0.44527519  0.43394094  1
  Zn  Zn128  1  0.69397407  0.43603588  0.93705062  1
  Zn  Zn129  1  0.68564751  0.93784895  0.43291455  1
  Zn  Zn130  1  0.68490565  0.94026145  0.93802578  1
  Zn  Zn131  1  0.30834536  0.06432346  0.05867054  1
  Zn  Zn132  1  0.31043711  0.07133247  0.56258336  1
  Zn  Zn133  1  0.31119206  0.56148092  0.06483851  1
  Zn  Zn134  1  0.32659317  0.59949424  0.54432149  1
  Zn  Zn135  1  0.81861131  0.06196991  0.06096704  1
  Zn  Zn136  1  0.81064106  0.06714161  0.56090325  1
  Zn  Zn137  1  0.81443616  0.56321211  0.06283810  1
  Zn  Zn138  1  0.81413562  0.56468796  0.56045322  1
  Zn  Zn139  1  0.43797830  0.43772081  0.18698878  1
  Zn  Zn140  1  0.44090781  0.43979938  0.68675005  1
  Zn  Zn141  1  0.43323333  0.94187678  0.18391660  1
  Zn  Zn142  1  0.43840246  0.93469634  0.70379173  1
  Zn  Zn143  1  0.93992665  0.43509779  0.19118140  1
  Zn  Zn144  1  0.94060267  0.43753647  0.68877002  1
  Zn  Zn145  1  0.92965759  0.93681944  0.19202617  1
  Zn  Zn146  1  0.93943248  0.93563071  0.68853795  1
  Zn  Zn147  1  0.05884556  0.06623804  0.31590139  1
  Zn  Zn148  1  0.06035158  0.05679860  0.80285135  1
  Zn  Zn149  1  0.05715739  0.56257215  0.31619247  1
  Zn  Zn150  1  0.06177474  0.56225844  0.81488329  1
  Zn  Zn151  1  0.56271406  0.06314288  0.30934107  1
  Zn  Zn152  1  0.56373639  0.06246299  0.81198566  1
  Zn  Zn153  1  0.56430846  0.55822260  0.31101618  1
  Zn  Zn154  1  0.56694753  0.56123973  0.81228488  1
  Zn  Zn155  1  0.43242042  0.18053765  0.44097448  1
  Zn  Zn156  1  0.43669364  0.18946958  0.93847054  1
  Zn  Zn157  1  0.43794368  0.68745670  0.43516152  1
  Zn  Zn158  1  0.43662986  0.68962315  0.93917812  1
  Zn  Zn159  1  0.93488802  0.18550224  0.43832948  1
  Zn  Zn160  1  0.94417771  0.17851309  0.93866158  1
  Zn  Zn161  1  0.93700368  0.68073193  0.43685848  1
  Zn  Zn162  1  0.93963256  0.68966272  0.93528701  1
  Zn  Zn163  1  0.06313714  0.31055172  0.06570403  1
  Zn  Zn164  1  0.06558936  0.31226169  0.57706553  1
  Zn  Zn165  1  0.06190246  0.81730653  0.06308896  1
  Zn  Zn166  1  0.06346213  0.81330197  0.56340917  1
  Zn  Zn167  1  0.56463535  0.30771377  0.06394572  1
  Zn  Zn168  1  0.57014626  0.30804333  0.58180252  1
  Zn  Zn169  1  0.56352534  0.81354129  0.05878642  1
  Zn  Zn170  1  0.56934969  0.80314329  0.56536074  1
  O  O171  1  0.12768105  0.12117589  0.12258574  1
  O  O172  1  0.11700893  0.10688574  0.62803709  1
  O  O173  1  0.11484481  0.62165132  0.11987011  1
  O  O174  1  0.13102207  0.61467223  0.61226858  1
  O  O175  1  0.61599959  0.13140012  0.11772676  1
  O  O176  1  0.61695020  0.11817765  0.61657385  1
  O  O177  1  0.61992495  0.62426629  0.11569589  1
  O  O178  1  0.61755525  0.62654800  0.61596894  1
  O  O179  1  0.36897708  0.39134509  0.37202559  1
  O  O180  1  0.38532302  0.38181410  0.89061959  1
  O  O181  1  0.39285530  0.88370603  0.36723433  1
  O  O182  1  0.37700155  0.86661003  0.88988937  1
  O  O183  1  0.86228867  0.39650695  0.38151702  1
  O  O184  1  0.85544558  0.39589183  0.88447676  1
  O  O185  1  0.88616390  0.87974664  0.36717768  1
  O  O186  1  0.89151673  0.87619502  0.86984307  1
  O  O187  1  0.25342287  0.00953169  0.36593190  1
  O  O188  1  0.25291861  0.02135608  0.88081447  1
  O  O189  1  0.25472627  0.50550022  0.36688779  1
  O  O190  1  0.25726533  0.50708915  0.87047511  1
  O  O191  1  0.74911591  0.01042664  0.36708640  1
  O  O192  1  0.75101793  0.00525775  0.86717756  1
  O  O193  1  0.75959193  0.50799647  0.36317626  1
  O  O194  1  0.75645869  0.51608638  0.87679923  1
  O  O195  1  0.24140221  0.49835842  0.13397506  1
  O  O196  1  0.24486049  0.49655864  0.63401000  1
  O  O197  1  0.25589627  0.99642640  0.14055796  1
  O  O198  1  0.23585364  1.00074863  0.61336669  1
  O  O199  1  0.75169475  0.48975699  0.12757934  1
  O  O200  1  0.74579712  0.50813416  0.62707710  1
  O  O201  1  0.75515635  0.98919506  0.12964072  1
  O  O202  1  0.74211772  0.99953137  0.62935330  1
  O  O203  1  0.00540821  0.36269869  0.25246950  1
  O  O204  1  -0.02349127  0.36255567  0.76265504  1
  O  O205  1  0.00217315  0.86935221  0.25386003  1
  O  O206  1  0.00735208  0.86755427  0.75803029  1
  O  O207  1  0.51702611  0.37535477  0.24405884  1
  O  O208  1  0.50388446  0.36608796  0.75849565  1
  O  O209  1  0.50765924  0.87416076  0.25001776  1
  O  O210  1  0.50656630  0.86723227  0.75868177  1
  O  O211  1  0.49809049  0.12852055  0.24103495  1
  O  O212  1  0.49735431  0.12857567  0.74041721  1
  O  O213  1  0.49596875  0.62881973  0.24309306  1
  O  O214  1  0.49702682  0.62227970  0.74306228  1
  O  O215  1  0.99022655  0.13761390  0.25563486  1
  O  O216  1  0.99106093  0.12527137  0.73806920  1
  O  O217  1  1.00537022  0.63352348  0.23926592  1
  O  O218  1  0.99541767  0.64106360  0.75931694  1
  O  O219  1  0.37416421  0.25789672  0.00670008  1
  O  O220  1  0.37675364  0.24785198  0.51502574  1
  O  O221  1  0.36757850  0.75611386  0.00861283  1
  O  O222  1  0.35751136  0.71385103  0.50812989  1
  O  O223  1  0.86360527  0.23757030  0.00121991  1
  O  O224  1  0.86684175  0.24519222  0.51149749  1
  O  O225  1  0.86445327  0.74814608  0.00511555  1
  O  O226  1  0.86947877  0.74288706  0.50775743  1
  O  O227  1  0.12516010  0.25762634  0.48942257  1
  O  O228  1  0.12149376  0.23089290  1.00775155  1
  O  O229  1  0.12816417  0.73804769  0.50091284  1
  O  O230  1  0.13035630  0.74407886  1.00135782  1
  O  O231  1  0.62442018  0.24615959  0.49150650  1
  O  O232  1  0.63044702  0.23832092  0.99531595  1
  O  O233  1  0.63285266  0.74039109  0.49081511  1
  O  O234  1  0.63671936  0.74502411  0.99356530  1
  O  O235  1  0.48979308  0.23941345  0.12374717  1
  O  O236  1  0.49658025  0.24012329  0.63396531  1
  O  O237  1  0.49497890  0.74553990  0.12819666  1
  O  O238  1  0.49629777  0.73803221  0.62692816  1
  O  O239  1  0.99879559  0.25032225  0.14099738  1
  O  O240  1  0.98798351  0.24044202  0.62399837  1
  O  O241  1  0.99235417  0.74674804  0.12837906  1
  O  O242  1  0.99459773  0.75312762  0.63434058  1
  O  O243  1  0.01037257  0.24706749  0.37314638  1
  O  O244  1  -0.02359354  0.25669795  0.86630924  1
  O  O245  1  -0.00200347  0.75494053  0.36798118  1
  O  O246  1  0.00479233  0.76298982  0.87081130  1
  O  O247  1  0.50065613  0.25179992  0.37467684  1
  O  O248  1  0.50881677  0.25290294  0.86911463  1
  O  O249  1  0.50404867  0.75738654  0.36708435  1
  O  O250  1  0.51511945  0.74753487  0.87792125  1
  O  O251  1  0.25150257  0.13138721  0.48552115  1
  O  O252  1  0.23057917  0.12345568  0.99436623  1
  O  O253  1  0.22947730  0.61116358  0.48594130  1
  O  O254  1  0.23917264  0.62873647  0.99924136  1
  O  O255  1  0.73950527  0.13296940  0.49239727  1
  O  O256  1  0.74372373  0.12769045  0.99873040  1
  O  O257  1  0.74320625  0.63642023  0.49477668  1
  O  O258  1  0.74696326  0.63435140  0.99424301  1
  O  O259  1  0.26081793  0.37252736  0.00584098  1
  O  O260  1  0.25002474  0.37905314  0.51203434  1
  O  O261  1  0.25337992  0.87525138  0.00545161  1
  O  O262  1  0.25451458  0.86021491  0.44980041  1
  O  O263  1  0.74626163  0.36639126  0.01383375  1
  O  O264  1  0.73673154  0.36017546  0.49832335  1
  O  O265  1  0.74506791  0.86873557  0.00809640  1
  O  O266  1  0.74455608  0.85973317  0.49457332  1
  O  O267  1  0.12779075  0.49240107  0.25022726  1
  O  O268  1  0.13360468  0.50982916  0.74137998  1
  O  O269  1  0.12947544  0.99437018  0.25592679  1
  O  O270  1  0.12353815  0.98625167  0.73510599  1
  O  O271  1  0.63499632  0.48824533  0.24790140  1
  O  O272  1  0.63194712  0.48309443  0.75794937  1
  O  O273  1  0.63693853  0.99371178  0.25010549  1
  O  O274  1  0.63051651  1.00089504  0.73667604  1
  O  O275  1  0.36601870  0.00198577  0.26031247  1
  O  O276  1  0.37666487  0.01635945  0.74765860  1
  O  O277  1  0.36633161  0.50365802  0.25359701  1
  O  O278  1  0.37102112  0.50694081  0.75859220  1
  O  O279  1  0.86198029  0.00813841  0.25304250  1
  O  O280  1  0.86650400  0.00828672  0.74677710  1
  O  O281  1  0.87144978  0.49675132  0.25971792  1
  O  O282  1  0.87822684  0.51134181  0.75861426  1
  O  O283  1  0.13030011  0.36344462  0.36549563  1
  O  O284  1  0.13708451  0.37048381  0.87930310  1
  O  O285  1  0.10831051  0.87248594  0.36192597  1
  O  O286  1  0.11825148  0.87756753  0.86129427  1
  O  O287  1  0.62886078  0.37411249  0.36393187  1
  O  O288  1  0.62310941  0.36721104  0.86972903  1
  O  O289  1  0.61662183  0.87204897  0.36125968  1
  O  O290  1  0.62623927  0.86314621  0.87558007  1
  O  O291  1  0.38002118  0.13281670  0.12433071  1
  O  O292  1  0.38072097  0.13100297  0.63283353  1
  O  O293  1  0.37912174  0.63066130  0.13040469  1
  O  O294  1  0.39179470  0.61218578  0.63737307  1
  O  O295  1  0.86593170  0.12632198  0.14220789  1
  O  O296  1  0.88313410  0.12675948  0.62894347  1
  O  O297  1  0.88644115  0.63668409  0.11984180  1
  O  O298  1  0.87419712  0.63616857  0.63829934  1
  O  O299  1  0.26132410  0.25057039  0.12284508  1
  O  O300  1  0.25998404  0.26015353  0.62065719  1
  O  O301  1  0.25284705  0.75756506  0.12240923  1
  O  O302  1  0.26347200  0.75201500  0.62915716  1
  O  O303  1  0.74891894  0.26346499  0.11886718  1
  O  O304  1  0.76074221  0.24136426  0.61330290  1
  O  O305  1  0.75684497  0.75796404  0.11816739  1
  O  O306  1  0.75907864  0.75250243  0.61427315  1
  O  O307  1  0.23987755  0.24524894  0.37513316  1
  O  O308  1  0.25507600  0.22638496  0.87863295  1
  O  O309  1  0.24094975  0.72714622  0.35505962  1
  O  O310  1  0.24741314  0.74221037  0.88471595  1
  O  O311  1  0.75423938  0.24051840  0.38093771  1
  O  O312  1  0.74537546  0.24113102  0.88623469  1
  O  O313  1  0.74631553  0.74712852  0.37584833  1
  O  O314  1  0.74830363  0.74466390  0.88092127  1
  O  O315  1  0.01154023  0.11184585  0.00258264  1
  O  O316  1  -0.00304504  0.11572829  0.51070078  1
  O  O317  1  0.01044318  0.62360006  0.00574324  1
  O  O318  1  0.01458842  0.61712027  0.49739947  1
  O  O319  1  0.50632530  0.12052526  0.00528482  1
  O  O320  1  0.50747152  0.12820748  0.51266312  1
  O  O321  1  0.50585196  0.62046683  0.00506305  1
  O  O322  1  0.51115973  0.62318051  0.50610739  1
  O  O323  1  0.52217828  0.36822835  0.49039880  1
  O  O324  1  0.49822363  0.37930413  0.99629934  1
  O  O325  1  0.50892957  0.87291413  0.48826522  1
  O  O326  1  0.49168612  0.88495281  1.00234863  1
  O  O327  1  1.00260408  0.38558863  0.50568266  1
  O  O328  1  1.00503047  0.38668827  1.00148590  1
  O  O329  1  1.00215148  0.87987799  0.49060518  1
  O  O330  1  1.01002438  0.88673277  0.98602851  1
  O  O331  1  0.48516131  0.50153552  0.37437465  1
  O  O332  1  0.49664073  0.49616363  0.88201516  1
  O  O333  1  0.49114912  0.99436661  0.37165020  1
  O  O334  1  0.50570537  0.99909891  0.88968972  1
  O  O335  1  0.99237021  0.49540734  0.38464153  1
  O  O336  1  0.99449384  0.49637733  0.88367000  1
  O  O337  1  0.99829964  0.99340341  0.38547118  1
  O  O338  1  0.99862204  0.98808310  0.87366940  1
  O  O339  1  -0.00165303  -0.01303802  0.11378658  1
  O  O340  1  0.00430742  0.00348775  0.61922378  1
  O  O341  1  0.00172648  0.50819641  0.12022007  1
  O  O342  1  0.00668549  0.49794927  0.61595122  1
  O  O343  1  0.49507978  0.01407505  0.11596639  1
  O  O344  1  0.50217634  0.00114294  0.61625401  1
  O  O345  1  0.50304171  0.50731069  0.11835892  1
  O  O346  1  0.51173892  0.50340407  0.61856543  1
  O  O347  1  0.24177484  0.38437161  0.24751299  1
  O  O348  1  0.25439812  0.38900817  0.74367218  1
  O  O349  1  0.23816550  0.88475208  0.25136774  1
  O  O350  1  0.23848867  0.87333425  0.75598138  1
  O  O351  1  0.74429925  0.38106546  0.23822257  1
  O  O352  1  0.74321814  0.37298615  0.75959039  1
  O  O353  1  0.74348935  0.88341680  0.24313833  1
  O  O354  1  0.74858814  0.88829778  0.74919514  1
  O  O355  1  0.25033605  0.12050480  0.26025507  1
  O  O356  1  0.26109219  0.12572209  0.75829953  1
  O  O357  1  0.24967161  0.61106716  0.25070298  1
  O  O358  1  0.25948551  0.61635036  0.75608344  1
  O  O359  1  0.75017497  0.12201545  0.25681213  1
  O  O360  1  0.75256941  0.11349608  0.75311105  1
  O  O361  1  0.74643336  0.61031456  0.24240193  1
  O  O362  1  0.76193420  0.62694001  0.75890300  1
  O  O363  1  0.36768510  0.11808404  0.37100652  1
  O  O364  1  0.38082145  0.12692416  0.86048674  1
  O  O365  1  0.36485068  0.61538120  0.36515398  1
  O  O366  1  0.37105299  0.61926045  0.87125158  1
  O  O367  1  0.86419575  0.12154582  0.36847530  1
  O  O368  1  0.86847386  0.11924277  0.86367097  1
  O  O369  1  0.87626049  0.60619745  0.37620715  1
  O  O370  1  0.87090798  0.62381225  0.86652093  1
  O  O371  1  0.12441190  0.38122105  0.13814363  1
  O  O372  1  0.13568178  0.39143097  0.62318282  1
  O  O373  1  0.13044280  0.87234915  0.13876379  1
  O  O374  1  0.12353220  0.88360009  0.63544059  1
  O  O375  1  0.63257794  0.37670925  0.13237687  1
  O  O376  1  0.63002703  0.37445002  0.64685239  1
  O  O377  1  0.63369858  0.86958515  0.13400275  1
  O  O378  1  0.62860770  0.88349134  0.62452209  1
  O  O379  1  0.11311299  0.25572800  0.25774966  1
  O  O380  1  0.13058111  0.25455964  0.73337828  1
  O  O381  1  0.10932245  0.75832026  0.25021182  1
  O  O382  1  0.12056277  0.75993021  0.74862347  1
  O  O383  1  0.62430488  0.26542362  0.25016337  1
  O  O384  1  0.61987004  0.25647412  0.75570716  1
  O  O385  1  0.61952123  0.75819668  0.25266528  1
  O  O386  1  0.62922069  0.74882962  0.75965536  1
  O  O387  1  0.37866323  0.25212870  0.24018095  1
  O  O388  1  0.39045472  0.23933531  0.74038307  1
  O  O389  1  0.38147910  0.74347872  0.24399901  1
  O  O390  1  0.38019557  0.73365883  0.75270260  1
  O  O391  1  0.88752174  0.24637765  0.25918909  1
  O  O392  1  0.86029006  0.23169024  0.73339540  1
  O  O393  1  0.88611857  0.75184408  0.24050505  1
  O  O394  1  0.88424145  0.74603196  0.74397361  1
  O  O395  1  0.37838158  0.50687174  0.48544614  1
  O  O396  1  0.38066998  0.49375766  0.99811745  1
  O  O397  1  0.37512598  1.00399790  0.48851674  1
  O  O398  1  0.38249108  0.99259404  1.00452880  1
  O  O399  1  0.89112866  0.50529950  0.49573716  1
  O  O400  1  0.88912664  0.51384797  0.99099000  1
  O  O401  1  0.88501729  1.00045155  0.50096786  1
  O  O402  1  0.89483923  1.00564350  0.99672415  1
  O  O403  1  0.11228771  0.01125808  -0.00073216  1
  O  O404  1  0.11239497  -0.00707607  0.51251468  1
  O  O405  1  0.11820155  0.50978464  0.00907278  1
  O  O406  1  0.11228462  0.50491774  0.50488207  1
  O  O407  1  0.61827846  0.01314615  0.00079597  1
  O  O408  1  0.63034170  0.00748126  0.50935249  1
  O  O409  1  0.62168934  0.50745709  -0.00129520  1
  O  O410  1  0.62506637  0.51205051  0.49378315  1
  O  O411  1  0.37756684  0.36859248  0.11482494  1
  O  O412  1  0.36869867  0.36834746  0.63145322  1
  O  O413  1  0.36693551  0.87056732  0.11755064  1
  O  O414  1  0.39254822  0.88152795  0.61030317  1
  O  O415  1  0.86421450  0.37637782  0.12591176  1
  O  O416  1  0.87412494  0.35777119  0.62838106  1
  O  O417  1  0.86541787  0.86344537  0.12707675  1
  O  O418  1  0.87248538  0.86150307  0.62923203  1
  O  O419  1  0.12971021  0.14093830  0.37227575  1
  O  O420  1  0.12804126  0.12287713  0.86812308  1
  O  O421  1  0.12711647  0.62437410  0.38405097  1
  O  O422  1  0.13049572  0.62706287  0.88583769  1
  O  O423  1  0.62908798  0.12003055  0.38618042  1
  O  O424  1  0.63201527  0.12889990  0.88160019  1
  O  O425  1  0.62574712  0.63199824  0.37878817  1
  O  O426  1  0.63592859  0.63259628  0.87916552  1
