# generated using pymatgen
data_V85Zn86O256
_symmetry_space_group_name_H-M   'P 1'
_cell_length_a   16.93117765
_cell_length_b   16.93804376
_cell_length_c   16.93187955
_cell_angle_alpha   90.00565458
_cell_angle_beta   90.10333752
_cell_angle_gamma   89.97617877
_symmetry_Int_Tables_number   1
_chemical_formula_structural   V85Zn86O256
_chemical_formula_sum   'V85 Zn86 O256'
_cell_volume   4855.73348306
_cell_formula_units_Z   1
loop_
 _symmetry_equiv_pos_site_id
 _symmetry_equiv_pos_as_xyz
  1  'x, y, z'
loop_
 _atom_site_type_symbol
 _atom_site_label
 _atom_site_symmetry_multiplicity
 _atom_site_fract_x
 _atom_site_fract_y
 _atom_site_fract_z
 _atom_site_occupancy
  V  V0  1  0.24134582  0.74791070  0.49816206  1
  V  V1  1  0.34835076  0.34281939  0.00697876  1
  V  V2  1  0.36673686  0.49687049  0.37063858  1
  V  V3  1  -0.00274020  0.12796242  0.12176278  1
  V  V4  1  0.62672517  -0.00279854  0.63938083  1
  V  V5  1  0.37140200  0.00542006  0.37131033  1
  V  V6  1  0.88205314  0.87780348  -0.00320522  1
  V  V7  1  0.75867578  -0.00080415  0.25608202  1
  V  V8  1  0.25132765  0.38087128  0.63686096  1
  V  V9  1  0.00610254  0.62105738  0.13186084  1
  V  V10  1  0.75562224  0.36466155  0.12967280  1
  V  V11  1  0.75066643  0.87469239  0.12762599  1
  V  V12  1  0.62755683  0.12545645  0.49997519  1
  V  V13  1  0.00151362  0.12293449  0.62446766  1
  V  V14  1  0.49524448  0.12720468  0.12782944  1
  V  V15  1  0.62718976  0.62163753  0.00389926  1
  V  V16  1  0.62711792  0.12467843  0.00139479  1
  V  V17  1  0.12355095  0.11272741  0.50566343  1
  V  V18  1  0.49990744  0.00117637  0.49897233  1
  V  V19  1  0.37528272  0.62134668  0.24489132  1
  V  V20  1  0.75247980  0.62572300  0.37773830  1
  V  V21  1  0.12400064  -0.00276873  0.12500531  1
  V  V22  1  0.49603794  0.87559973  0.37341771  1
  V  V23  1  0.87947290  0.62937785  0.74997968  1
  V  V24  1  0.50610492  0.48746609  -0.01075588  1
  V  V25  1  0.12823155  0.24748107  0.87670632  1
  V  V26  1  0.10376959  0.75569131  0.86828561  1
  V  V27  1  0.23688150  0.25533780  0.49813285  1
  V  V28  1  0.37754080  0.74640725  0.11829469  1
  V  V29  1  0.87716481  0.49766394  0.87636382  1
  V  V30  1  0.50248073  0.75349698  0.74768924  1
  V  V31  1  0.36884089  0.87367750  0.50035829  1
  V  V32  1  0.49771262  0.75013108  0.24733121  1
  V  V33  1  0.50550400  0.87574014  0.86959171  1
  V  V34  1  -0.00141388  0.62139200  0.62454090  1
  V  V35  1  0.49847689  -0.00249628  0.00259781  1
  V  V36  1  0.88136711  0.74951104  0.13432674  1
  V  V37  1  0.62355135  -0.00064248  0.12844852  1
  V  V38  1  0.37223650  0.37407077  0.49694731  1
  V  V39  1  0.87757687  0.13039181  0.24865716  1
  V  V40  1  0.11658602  0.62256679  0.49242043  1
  V  V41  1  0.62764797  0.49939984  0.62281202  1
  V  V42  1  0.00487053  0.84638800  0.34348121  1
  V  V43  1  0.10855463  0.88180580  0.74696909  1
  V  V44  1  -0.01854501  -0.01068201  0.49143330  1
  V  V45  1  0.62472726  0.75112460  0.37515343  1
  V  V46  1  0.35394034  0.15159201  0.23762546  1
  V  V47  1  0.50392403  0.61389033  0.12279871  1
  V  V48  1  0.88168134  0.49977089  0.38083832  1
  V  V49  1  0.75305962  0.76481253  0.49852201  1
  V  V50  1  0.12857524  0.50557207  0.63400954  1
  V  V51  1  0.23485566  0.85327555  0.15379218  1
  V  V52  1  0.75158158  0.50406838  0.24422317  1
  V  V53  1  0.75974304  0.12390865  0.37852999  1
  V  V54  1  0.88188392  0.37026589  0.50216612  1
  V  V55  1  -0.00794359  0.25571836  0.74462266  1
  V  V56  1  0.74860668  0.62452071  0.87313714  1
  V  V57  1  0.62352890  0.25228933  0.87758723  1
  V  V58  1  0.75240505  0.11664193  0.87320938  1
  V  V59  1  0.62189261  0.37514948  0.75395671  1
  V  V60  1  0.12719108  0.37550623  0.23025788  1
  V  V61  1  0.75418244  0.36682762  0.62350482  1
  V  V62  1  0.01382884  0.37695679  0.38008230  1
  V  V63  1  0.87577296  0.36776067  0.00428657  1
  V  V64  1  0.50001738  0.12686490  0.62448432  1
  V  V65  1  0.86894267  0.12044400  0.74188175  1
  V  V66  1  0.50664405  0.24974500  0.25042136  1
  V  V67  1  0.00219126  0.25228701  0.25211201  1
  V  V68  1  0.37379191  0.25145568  0.62343963  1
  V  V69  1  0.24693913  0.49814455  0.22236238  1
  V  V70  1  0.36934559  0.12661726  0.74901764  1
  V  V71  1  0.74773668  0.87740602  0.64518835  1
  V  V72  1  0.87986878  0.75638891  0.62427550  1
  V  V73  1  0.50027290  0.37452598  0.37277343  1
  V  V74  1  0.49984936  0.50098582  0.49618215  1
  V  V75  1  0.12275875  0.61772489  -0.00359741  1
  V  V76  1  0.74944337  0.75047810  0.00256315  1
  V  V77  1  0.62326434  0.87715810  0.25110119  1
  V  V78  1  0.62706046  0.38267017  0.24802992  1
  V  V79  1  0.24077302  0.13068721  0.37907006  1
  V  V80  1  0.36882939  -0.00128709  0.87206032  1
  V  V81  1  0.24480053  -0.00171382  0.25225710  1
  V  V82  1  0.24813570  0.74928808  -0.01611142  1
  V  V83  1  0.36897448  0.87366003  -0.00034546  1
  V  V84  1  0.49828468  0.62651921  0.62458866  1
  Zn  Zn85  1  0.12512761  0.37899177  0.75397924  1
  Zn  Zn86  1  0.24511752  0.60691345  0.85648259  1
  Zn  Zn87  1  0.36942928  0.61492625  0.75312745  1
  Zn  Zn88  1  0.37111661  0.74897813  0.62548230  1
  Zn  Zn89  1  0.87852387  -0.00932152  0.86248681  1
  Zn  Zn90  1  0.63119265  0.25267389  0.38010418  1
  Zn  Zn91  1  0.24484940  0.62489313  0.37105924  1
  Zn  Zn92  1  0.62799755  0.75532638  0.86834402  1
  Zn  Zn93  1  0.25543048  0.13252975  0.88725207  1
  Zn  Zn94  1  0.23792275  0.87993996  0.62514924  1
  Zn  Zn95  1  -0.00085200  0.37353030  0.87648140  1
  Zn  Zn96  1  0.75045741  0.49985690  0.74820256  1
  Zn  Zn97  1  0.75533088  0.24580872  0.00318087  1
  Zn  Zn98  1  0.37384810  0.48805751  0.87174264  1
  Zn  Zn99  1  0.24131049  -0.00122873  0.74229191  1
  Zn  Zn100  1  0.13121755  0.12714674  0.00179826  1
  Zn  Zn101  1  0.62516768  0.62747996  0.49966845  1
  Zn  Zn102  1  0.49692465  0.25348114  0.75620519  1
  Zn  Zn103  1  0.00360515  -0.00165832  -0.00441017  1
  Zn  Zn104  1  0.88519356  0.63011201  0.25744253  1
  Zn  Zn105  1  0.75832670  0.24587490  0.50351507  1
  Zn  Zn106  1  0.00113626  0.49643872  0.00580038  1
  Zn  Zn107  1  0.18223237  0.18861612  0.18712356  1
  Zn  Zn108  1  0.18429620  0.19008838  0.69018462  1
  Zn  Zn109  1  0.19175174  0.68387628  0.18019974  1
  Zn  Zn110  1  0.18663832  0.69615095  0.68833467  1
  Zn  Zn111  1  0.68668194  0.18692271  0.19089716  1
  Zn  Zn112  1  0.68663730  0.18858619  0.68862789  1
  Zn  Zn113  1  0.68842594  0.68747266  0.18954908  1
  Zn  Zn114  1  0.68631006  0.68960995  0.68707868  1
  Zn  Zn115  1  0.30323892  0.30809595  0.29842444  1
  Zn  Zn116  1  0.31658265  0.31611049  0.81902037  1
  Zn  Zn117  1  0.29898002  0.80194196  0.30978791  1
  Zn  Zn118  1  0.31170027  0.81227256  0.80260979  1
  Zn  Zn119  1  0.81660525  0.31128279  0.31753810  1
  Zn  Zn120  1  0.80823719  0.30948533  0.81343381  1
  Zn  Zn121  1  0.82033244  0.81821784  0.31897802  1
  Zn  Zn122  1  0.81713060  0.80783523  0.81388951  1
  Zn  Zn123  1  0.18537275  0.44468141  0.44320069  1
  Zn  Zn124  1  0.18676563  0.42579228  0.94319047  1
  Zn  Zn125  1  0.17796619  0.93288981  0.43458737  1
  Zn  Zn126  1  0.18324572  0.93710041  0.93390119  1
  Zn  Zn127  1  0.69139962  0.43817119  0.43727080  1
  Zn  Zn128  1  0.68937218  0.43793265  0.94129725  1
  Zn  Zn129  1  0.68700949  0.94193877  0.43836073  1
  Zn  Zn130  1  0.69007725  0.93902426  0.93763845  1
  Zn  Zn131  1  0.30767541  0.06018147  0.06342337  1
  Zn  Zn132  1  0.30896978  0.06093757  0.56338839  1
  Zn  Zn133  1  0.30092385  0.54485047  0.02111801  1
  Zn  Zn134  1  0.30982551  0.56369030  0.56377717  1
  Zn  Zn135  1  0.81282094  0.06253891  0.06664485  1
  Zn  Zn136  1  0.81302985  0.05849302  0.56879870  1
  Zn  Zn137  1  0.81810224  0.56087510  0.06431638  1
  Zn  Zn138  1  0.81298654  0.56258907  0.55901388  1
  Zn  Zn139  1  0.43512301  0.43355958  0.17764762  1
  Zn  Zn140  1  0.43971889  0.43933770  0.68867168  1
  Zn  Zn141  1  0.42662681  0.94010709  0.18890103  1
  Zn  Zn142  1  0.43552331  0.93915518  0.68623488  1
  Zn  Zn143  1  0.93597622  0.43997170  0.19046561  1
  Zn  Zn144  1  0.93628968  0.44288000  0.68665732  1
  Zn  Zn145  1  0.93919693  0.93799633  0.19026314  1
  Zn  Zn146  1  0.94005834  0.94049316  0.68003004  1
  Zn  Zn147  1  0.06359768  0.05718559  0.31429541  1
  Zn  Zn148  1  0.05638313  0.06257041  0.81645007  1
  Zn  Zn149  1  0.06503340  0.55705652  0.30832909  1
  Zn  Zn150  1  0.06007228  0.56630658  0.81286875  1
  Zn  Zn151  1  0.56438140  0.06527795  0.31412525  1
  Zn  Zn152  1  0.55603693  0.06713950  0.81507770  1
  Zn  Zn153  1  0.56347470  0.56276687  0.31233103  1
  Zn  Zn154  1  0.56187743  0.56497596  0.80998601  1
  Zn  Zn155  1  0.43512791  0.19072771  0.43381925  1
  Zn  Zn156  1  0.43903139  0.18714506  0.93799496  1
  Zn  Zn157  1  0.43321384  0.68647119  0.43608112  1
  Zn  Zn158  1  0.43743697  0.68258492  0.92949548  1
  Zn  Zn159  1  0.94267327  0.19052403  0.43541315  1
  Zn  Zn160  1  0.93946421  0.18458542  0.93094863  1
  Zn  Zn161  1  0.93873505  0.69585774  0.43827460  1
  Zn  Zn162  1  0.93455808  0.68579055  0.94426700  1
  Zn  Zn163  1  0.05701091  0.30776253  0.05997560  1
  Zn  Zn164  1  0.06291395  0.31440095  0.56736863  1
  Zn  Zn165  1  0.06335084  0.80646652  0.06425430  1
  Zn  Zn166  1  0.05989566  0.81128495  0.56136010  1
  Zn  Zn167  1  0.56831870  0.30974560  0.06940090  1
  Zn  Zn168  1  0.56278324  0.31261178  0.56306861  1
  Zn  Zn169  1  0.56262779  0.81064801  0.05983562  1
  Zn  Zn170  1  0.56436565  0.81453227  0.56223934  1
  O  O171  1  0.11650412  0.11704461  0.12683971  1
  O  O172  1  0.11421593  0.13047283  0.61837057  1
  O  O173  1  0.11242496  0.63379417  0.11540031  1
  O  O174  1  0.11561976  0.62338227  0.62124555  1
  O  O175  1  0.61700572  0.11905578  0.12310086  1
  O  O176  1  0.62212483  0.11836003  0.61930957  1
  O  O177  1  0.61747629  0.63385852  0.11583220  1
  O  O178  1  0.61739495  0.61735756  0.62226639  1
  O  O179  1  0.37835669  0.38085097  0.37560361  1
  O  O180  1  0.37205911  0.36995436  0.90215852  1
  O  O181  1  0.37747464  0.88426959  0.38272333  1
  O  O182  1  0.38282751  0.88134579  0.88032172  1
  O  O183  1  0.88490748  0.38234649  0.38148383  1
  O  O184  1  0.87102364  0.38344253  0.88092731  1
  O  O185  1  0.90541805  0.87115715  0.36783841  1
  O  O186  1  0.86602811  0.87445975  0.89238045  1
  O  O187  1  0.25388082  0.00531406  0.37301465  1
  O  O188  1  0.26232340  0.00075360  0.87332113  1
  O  O189  1  0.26048945  0.50076982  0.37191380  1
  O  O190  1  0.26098602  0.50516276  0.91301293  1
  O  O191  1  0.74646677  0.00738358  0.36392098  1
  O  O192  1  0.75468229  0.01189629  0.87689365  1
  O  O193  1  0.75682321  0.50932380  0.36922556  1
  O  O194  1  0.75865259  0.51130259  0.87649723  1
  O  O195  1  0.25601402  0.50440340  0.12473103  1
  O  O196  1  0.24192917  0.49101254  0.62027674  1
  O  O197  1  0.24260787  0.98896519  0.13624441  1
  O  O198  1  0.25360707  0.99299280  0.62805843  1
  O  O199  1  0.75713228  0.49549879  0.14076542  1
  O  O200  1  0.73804872  0.49617086  0.62186964  1
  O  O201  1  0.74330582  0.99563699  0.13700765  1
  O  O202  1  0.74294723  0.98495183  0.62530524  1
  O  O203  1  0.01054127  0.37243545  0.25348309  1
  O  O204  1  -0.00369577  0.36463916  0.74903681  1
  O  O205  1  0.00499696  0.86263162  0.24229049  1
  O  O206  1  0.00780689  0.87912912  0.74987849  1
  O  O207  1  0.50874365  0.37163323  0.25099789  1
  O  O208  1  0.51826135  0.37053541  0.74070276  1
  O  O209  1  0.49987524  0.87173647  0.25456058  1
  O  O210  1  0.49569043  0.86975392  0.75871729  1
  O  O211  1  0.49859344  0.13344419  0.24466907  1
  O  O212  1  0.48767443  0.12836588  0.74177993  1
  O  O213  1  0.49743950  0.62919676  0.24141263  1
  O  O214  1  0.49867578  0.63214466  0.73961186  1
  O  O215  1  0.99565608  0.13144672  0.24762309  1
  O  O216  1  0.98957242  0.13279482  0.74203019  1
  O  O217  1  1.00380603  0.62432821  0.23670873  1
  O  O218  1  0.98650350  0.62468213  0.74262722  1
  O  O219  1  0.36969065  0.24398330  0.00466689  1
  O  O220  1  0.36587717  0.25621024  0.50405412  1
  O  O221  1  0.37131955  0.75633272  -0.00077617  1
  O  O222  1  0.36862283  0.75914215  0.50030757  1
  O  O223  1  0.87353396  0.26358633  -0.00821865  1
  O  O224  1  0.87622667  0.26529339  0.49626585  1
  O  O225  1  0.86475548  0.75743286  0.00835873  1
  O  O226  1  0.86332263  0.74462855  0.51159402  1
  O  O227  1  0.13476226  0.24443067  0.50403641  1
  O  O228  1  0.11252757  0.24651680  0.98081242  1
  O  O229  1  0.12905909  0.73565573  0.50473788  1
  O  O230  1  0.12997160  0.74710398  0.98637517  1
  O  O231  1  0.62807819  0.23559276  0.50313984  1
  O  O232  1  0.63000543  0.24137265  0.99616903  1
  O  O233  1  0.63329342  0.74992734  0.49190218  1
  O  O234  1  0.63700155  0.74353819  0.99796409  1
  O  O235  1  0.50563679  0.23862958  0.13641921  1
  O  O236  1  0.49110450  0.24352377  0.62329134  1
  O  O237  1  0.49483810  0.74542228  0.12938460  1
  O  O238  1  0.50125536  0.74249343  0.62766722  1
  O  O239  1  1.00459442  0.24092946  0.13984671  1
  O  O240  1  1.00153483  0.24319612  0.63779201  1
  O  O241  1  0.99039328  0.73724707  0.11993520  1
  O  O242  1  0.98550003  0.74012286  0.61930755  1
  O  O243  1  -0.00064411  0.26157136  0.36160130  1
  O  O244  1  0.00576647  0.24978564  0.85987721  1
  O  O245  1  0.00436143  0.74555202  0.36155661  1
  O  O246  1  0.00561406  0.74862823  0.87797957  1
  O  O247  1  0.51102042  0.25910770  0.37500677  1
  O  O248  1  0.51792795  0.24176107  0.87458685  1
  O  O249  1  0.50298811  0.75482450  0.36727142  1
  O  O250  1  0.50184168  0.75914985  0.86720170  1
  O  O251  1  0.24292875  0.13352586  0.49638261  1
  O  O252  1  0.24543007  0.12424948  1.00049672  1
  O  O253  1  0.23753692  0.63099348  0.50090114  1
  O  O254  1  0.23529199  0.63795765  1.00324280  1
  O  O255  1  0.74567410  0.12302039  0.49523300  1
  O  O256  1  0.74594558  0.12480569  0.99451509  1
  O  O257  1  0.74763412  0.63244662  0.48859495  1
  O  O258  1  0.74751620  0.63114561  0.99662490  1
  O  O259  1  0.24830757  0.35614533  0.01233765  1
  O  O260  1  0.25300973  0.36972992  0.50466722  1
  O  O261  1  0.26057449  0.86947341  -0.00431165  1
  O  O262  1  0.25313998  0.86811312  0.49681007  1
  O  O263  1  0.75489485  0.37448959  0.01426066  1
  O  O264  1  0.75851031  0.37272400  0.50623954  1
  O  O265  1  0.75335724  0.86713705  0.00809205  1
  O  O266  1  0.74899459  0.86675496  0.49892688  1
  O  O267  1  0.13829670  0.49090375  0.24520739  1
  O  O268  1  0.11961996  0.49944908  0.73934991  1
  O  O269  1  0.13302385  0.99840344  0.23991925  1
  O  O270  1  0.12321015  0.98571468  0.75995470  1
  O  O271  1  0.63689880  0.49334134  0.25607597  1
  O  O272  1  0.62817949  0.49397968  0.74142162  1
  O  O273  1  0.63177857  0.99533234  0.24682779  1
  O  O274  1  0.61757057  1.00649220  0.73814125  1
  O  O275  1  0.37049411  0.02041363  0.26037113  1
  O  O276  1  0.37618121  0.00824947  0.75825625  1
  O  O277  1  0.36424137  0.49856285  0.24988136  1
  O  O278  1  0.38026349  0.49816467  0.75797152  1
  O  O279  1  0.86639736  0.01080199  0.24655685  1
  O  O280  1  0.87647303  0.01642792  0.74543676  1
  O  O281  1  0.86779675  0.50372021  0.26297230  1
  O  O282  1  0.86976205  0.50894247  0.75778270  1
  O  O283  1  0.11576558  0.38503430  0.37143334  1
  O  O284  1  0.11939306  0.36486612  0.87166309  1
  O  O285  1  0.09828800  0.88002556  0.37647270  1
  O  O286  1  0.12236116  0.86176020  0.86925173  1
  O  O287  1  0.62145010  0.37628794  0.36516349  1
  O  O288  1  0.63770434  0.36595305  0.86572317  1
  O  O289  1  0.61694029  0.87212650  0.36977012  1
  O  O290  1  0.60959071  0.87618391  0.88439706  1
  O  O291  1  0.38698218  0.11415753  0.13536270  1
  O  O292  1  0.37919199  0.13216297  0.62907878  1
  O  O293  1  0.38684017  0.63135519  0.12751730  1
  O  O294  1  0.39025121  0.62420949  0.61998662  1
  O  O295  1  0.88358044  0.12236731  0.13622808  1
  O  O296  1  0.87731845  0.12977953  0.63582934  1
  O  O297  1  0.88549760  0.63288817  0.12729628  1
  O  O298  1  0.87824761  0.62877454  0.63091320  1
  O  O299  1  0.28847312  0.22767102  0.19589502  1
  O  O300  1  0.25470370  0.25885537  0.61756877  1
  O  O301  1  0.25991553  0.75299778  0.10353619  1
  O  O302  1  0.25261707  0.75764979  0.61103488  1
  O  O303  1  0.75020043  0.26083908  0.12819597  1
  O  O304  1  0.74763289  0.26329688  0.62307779  1
  O  O305  1  0.75561660  0.75365012  0.11873692  1
  O  O306  1  0.75193188  0.76173334  0.61831985  1
  O  O307  1  0.25319581  0.24184441  0.38408949  1
  O  O308  1  0.23184815  0.24897587  0.86312720  1
  O  O309  1  0.25444643  0.74042928  0.39202555  1
  O  O310  1  0.24931704  0.74984450  0.88055015  1
  O  O311  1  0.74886559  0.23963783  0.37934301  1
  O  O312  1  0.74004174  0.23712136  0.87743283  1
  O  O313  1  0.74833233  0.74603088  0.38025356  1
  O  O314  1  0.75001504  0.74022033  0.88372290  1
  O  O315  1  -0.00253400  0.12748867  0.01456075  1
  O  O316  1  0.00745242  0.12737028  0.50690059  1
  O  O317  1  0.00588932  0.62342094  0.00946163  1
  O  O318  1  0.01025375  0.62877817  0.50641038  1
  O  O319  1  0.50487509  0.11720563  0.01031788  1
  O  O320  1  0.50622524  0.12061024  0.50254280  1
  O  O321  1  0.51198434  0.62428724  0.00577290  1
  O  O322  1  0.50260079  0.61881333  0.50399539  1
  O  O323  1  0.49421906  0.38079099  0.49301805  1
  O  O324  1  0.52337319  0.38986192  1.00256626  1
  O  O325  1  0.49377462  0.88157292  0.49166266  1
  O  O326  1  0.48837813  0.87832730  0.99650313  1
  O  O327  1  0.99634463  0.37213383  0.49233831  1
  O  O328  1  0.99046606  0.37851619  0.99827655  1
  O  O329  1  0.99770936  0.89018466  0.50778600  1
  O  O330  1  0.98381957  0.87268004  1.00780152  1
  O  O331  1  0.48970723  0.49401053  0.37511591  1
  O  O332  1  0.50794925  0.49939530  0.88700133  1
  O  O333  1  0.49090252  0.99840139  0.37792640  1
  O  O334  1  0.48979013  0.99498956  0.88186747  1
  O  O335  1  0.99172357  0.49113091  0.36900319  1
  O  O336  1  0.98610693  0.49979521  0.87562150  1
  O  O337  1  0.99881661  1.00797286  0.39222082  1
  O  O338  1  0.98758677  1.00982165  0.88542420  1
  O  O339  1  0.00819545  0.00736880  0.12407597  1
  O  O340  1  -0.00635467  0.01647313  0.61123735  1
  O  O341  1  -0.00622743  0.51688695  0.12414900  1
  O  O342  1  0.00570764  0.51452981  0.62620827  1
  O  O343  1  0.50396431  0.00432488  0.12381462  1
  O  O344  1  0.50616335  0.00595291  0.61722148  1
  O  O345  1  0.50536244  0.51156173  0.12216289  1
  O  O346  1  0.51129872  0.50513836  0.61758922  1
  O  O347  1  0.23704591  0.38605942  0.24572362  1
  O  O348  1  0.25011130  0.37125835  0.73907272  1
  O  O349  1  0.28498285  0.89840257  0.24794057  1
  O  O350  1  0.23568181  0.87609110  0.74818582  1
  O  O351  1  0.74762210  0.38180104  0.24858376  1
  O  O352  1  0.74331965  0.37736829  0.74027979  1
  O  O353  1  0.74715015  0.88292448  0.24875566  1
  O  O354  1  0.74526074  0.86966016  0.74356696  1
  O  O355  1  0.24401390  0.11087206  0.26253324  1
  O  O356  1  0.26164909  0.12396451  0.74962731  1
  O  O357  1  0.25375444  0.60997106  0.24783258  1
  O  O358  1  0.25420837  0.62946830  0.74569572  1
  O  O359  1  0.75787305  0.12018240  0.25677818  1
  O  O360  1  0.76214318  0.13084630  0.75447078  1
  O  O361  1  0.75147393  0.62000002  0.26134941  1
  O  O362  1  0.75597597  0.62472035  0.75800330  1
  O  O363  1  0.36133063  0.12253109  0.36863334  1
  O  O364  1  0.37634302  0.11739079  0.86584666  1
  O  O365  1  0.37535573  0.61361621  0.36313386  1
  O  O366  1  0.36886536  0.61534781  0.87491327  1
  O  O367  1  0.86553360  0.12846358  0.36935903  1
  O  O368  1  0.86621801  0.12630918  0.86202870  1
  O  O369  1  0.86959765  0.61950686  0.37633342  1
  O  O370  1  0.86867338  0.62179229  0.86948181  1
  O  O371  1  0.11836867  0.37637955  0.13220730  1
  O  O372  1  0.13339554  0.38621836  0.62677896  1
  O  O373  1  0.13655176  0.87899816  0.11830674  1
  O  O374  1  0.11917953  0.86673217  0.64300852  1
  O  O375  1  0.63696145  0.37341848  0.14102382  1
  O  O376  1  0.63343094  0.38220263  0.62773274  1
  O  O377  1  0.63036625  0.87843122  0.13149423  1
  O  O378  1  0.63791178  0.88329053  0.62113584  1
  O  O379  1  0.12023776  0.26783485  0.24888487  1
  O  O380  1  0.11059212  0.25316239  0.75581905  1
  O  O381  1  0.20061939  0.78466663  0.23236602  1
  O  O382  1  0.12024758  0.75822417  0.76373499  1
  O  O383  1  0.61914261  0.25746675  0.25526386  1
  O  O384  1  0.62446215  0.25693485  0.75831321  1
  O  O385  1  0.61931721  0.75817890  0.25533598  1
  O  O386  1  0.61031444  0.74666101  0.75125696  1
  O  O387  1  0.40179331  0.24754343  0.27543698  1
  O  O388  1  0.37654671  0.24488489  0.74480162  1
  O  O389  1  0.37886568  0.74093856  0.24218762  1
  O  O390  1  0.38891505  0.74833714  0.74356297  1
  O  O391  1  0.88349647  0.23884838  0.25381505  1
  O  O392  1  0.88622487  0.24236852  0.75392634  1
  O  O393  1  0.86447662  0.74712670  0.23670194  1
  O  O394  1  0.86796667  0.74023639  0.73830101  1
  O  O395  1  0.37891227  0.49461182  0.48954366  1
  O  O396  1  0.40407648  0.49956731  1.00227351  1
  O  O397  1  0.37845547  0.99828917  0.48649109  1
  O  O398  1  0.37945046  0.99110088  0.99537611  1
  O  O399  1  0.87015965  0.49110397  0.48729134  1
  O  O400  1  0.87448877  0.49015612  0.99211455  1
  O  O401  1  0.88241672  1.00288988  0.49848144  1
  O  O402  1  0.87120627  0.98179493  1.00743271  1
  O  O403  1  0.12400730  0.00017845  0.01269100  1
  O  O404  1  0.12086101  0.01136251  0.50145674  1
  O  O405  1  0.11974261  0.51451835  -0.00717308  1
  O  O406  1  0.12666050  0.51637139  0.51414425  1
  O  O407  1  0.61922711  0.00459760  0.00840273  1
  O  O408  1  0.62026931  0.01063786  0.50654648  1
  O  O409  1  0.62255863  0.51447108  -0.00034042  1
  O  O410  1  0.61853719  0.50084238  0.50506494  1
  O  O411  1  0.38531235  0.37231383  0.09881913  1
  O  O412  1  0.36901473  0.37121156  0.61694554  1
  O  O413  1  0.36506116  0.86619036  0.11733050  1
  O  O414  1  0.37943283  0.87659765  0.60646059  1
  O  O415  1  0.86770712  0.37949216  0.11849674  1
  O  O416  1  0.86572660  0.38629090  0.61489557  1
  O  O417  1  0.86813088  0.86716983  0.11948009  1
  O  O418  1  0.86028688  0.86793093  0.63176015  1
  O  O419  1  0.13482608  0.12251224  0.38439487  1
  O  O420  1  0.12680526  0.13716991  0.87252557  1
  O  O421  1  0.12507794  0.61447581  0.38920121  1
  O  O422  1  0.12454822  0.63739649  0.87913070  1
  O  O423  1  0.63709161  0.12461126  0.38402475  1
  O  O424  1  0.63171738  0.12730379  0.88149539  1
  O  O425  1  0.63345837  0.63357071  0.37466524  1
  O  O426  1  0.63480794  0.62823256  0.88207420  1
