# generated using pymatgen
data_V85Zn86O256
_symmetry_space_group_name_H-M   'P 1'
_cell_length_a   16.92473471
_cell_length_b   16.92305494
_cell_length_c   16.92359714
_cell_angle_alpha   89.94160861
_cell_angle_beta   90.03292711
_cell_angle_gamma   90.05244957
_symmetry_Int_Tables_number   1
_chemical_formula_structural   V85Zn86O256
_chemical_formula_sum   'V85 Zn86 O256'
_cell_volume   4847.22114374
_cell_formula_units_Z   1
loop_
 _symmetry_equiv_pos_site_id
 _symmetry_equiv_pos_as_xyz
  1  'x, y, z'
loop_
 _atom_site_type_symbol
 _atom_site_label
 _atom_site_symmetry_multiplicity
 _atom_site_fract_x
 _atom_site_fract_y
 _atom_site_fract_z
 _atom_site_occupancy
  V  V0  1  0.75002995  0.74894291  0.00034812  1
  V  V1  1  0.11931867  0.36200816  0.75761551  1
  V  V2  1  0.24798478  0.75024787  -0.00267008  1
  V  V3  1  0.50243527  0.88270038  0.37896324  1
  V  V4  1  0.37861878  0.75171448  0.62109911  1
  V  V5  1  0.12712396  0.76009167  0.37394542  1
  V  V6  1  0.12310890  0.75295921  0.86159292  1
  V  V7  1  0.12759286  0.50398757  0.63583536  1
  V  V8  1  0.37355174  0.49503008  0.37885773  1
  V  V9  1  0.87754932  0.25217347  0.63458928  1
  V  V10  1  0.87833319  0.50023379  0.37524462  1
  V  V11  1  0.25657733  0.12532289  0.87537131  1
  V  V12  1  0.00989841  0.50450767  0.50056881  1
  V  V13  1  0.74529827  0.24733714  0.49936128  1
  V  V14  1  0.61497384  0.25301773  0.37009558  1
  V  V15  1  0.00752729  0.37439103  0.36949831  1
  V  V16  1  0.25578456  0.24910099  0.01572145  1
  V  V17  1  0.49272205  0.13658182  0.13400085  1
  V  V18  1  0.37407250  0.75009519  0.12416758  1
  V  V19  1  0.37092617  0.48758258  0.86959517  1
  V  V20  1  0.75107990  0.62392167  0.37486128  1
  V  V21  1  0.87387399  -0.00064064  0.87403423  1
  V  V22  1  0.24915626  0.74955271  0.49883275  1
  V  V23  1  0.00919819  0.75402090  0.24885463  1
  V  V24  1  0.00509347  0.63405466  0.62300091  1
  V  V25  1  0.87936120  0.12107962  0.25148297  1
  V  V26  1  0.00416839  0.13017627  0.63405772  1
  V  V27  1  0.88064314  0.49980363  0.87190679  1
  V  V28  1  0.11847897  0.13134118  -0.01143029  1
  V  V29  1  0.50503849  0.75260003  0.74914958  1
  V  V30  1  0.24244813  0.62608700  0.37682686  1
  V  V31  1  0.12148257  0.00836005  0.12808562  1
  V  V32  1  0.61715017  0.61393195  0.00255513  1
  V  V33  1  0.49777208  -0.00161785  0.00371300  1
  V  V34  1  0.50262580  0.75637450  0.24767681  1
  V  V35  1  0.00307160  0.87364411  0.85795883  1
  V  V36  1  0.24404041  0.25068658  0.50173360  1
  V  V37  1  0.24321240  0.48636587  0.24751781  1
  V  V38  1  0.62269760  0.00248079  0.60763998  1
  V  V39  1  0.24430357  0.87849600  0.63015913  1
  V  V40  1  0.49801797  0.24988974  0.75026527  1
  V  V41  1  0.75036099  0.62542024  0.87406278  1
  V  V42  1  0.37705968  0.11078886  0.75200663  1
  V  V43  1  0.50039340  0.49302857  0.49751677  1
  V  V44  1  0.75055757  0.50191876  0.74851835  1
  V  V45  1  0.75336463  0.75274237  0.50020885  1
  V  V46  1  0.74652892  0.87563235  0.63037199  1
  V  V47  1  0.00057241  -0.00015229  0.00324026  1
  V  V48  1  0.50255439  0.12208862  0.61150935  1
  V  V49  1  0.62251842  0.25123379  0.87551185  1
  V  V50  1  -0.00583844  0.88441573  0.37419202  1
  V  V51  1  0.62416825  0.75386735  0.87439304  1
  V  V52  1  0.87629834  0.24507739  0.12612866  1
  V  V53  1  0.88230840  0.63389955  0.74822099  1
  V  V54  1  0.12841420  0.48103386  0.12326619  1
  V  V55  1  0.36973314  0.62034576  0.75117326  1
  V  V56  1  0.73697921  -0.00127135  0.75323880  1
  V  V57  1  0.37838632  0.36945643  0.01627111  1
  V  V58  1  0.74858546  -0.00196295  0.25393856  1
  V  V59  1  0.75204287  0.12401671  0.37880209  1
  V  V60  1  0.23975805  0.87563626  0.12951527  1
  V  V61  1  0.00561066  0.25235828  0.24397635  1
  V  V62  1  0.37323984  0.62349711  0.24930534  1
  V  V63  1  0.87218797  0.38029907  0.00302633  1
  V  V64  1  0.13477750  0.62425384  0.00113475  1
  V  V65  1  0.61147691  0.38161498  0.24985262  1
  V  V66  1  0.49706561  0.88002669  0.87075053  1
  V  V67  1  0.75096357  0.37649183  0.62460680  1
  V  V68  1  0.74816162  0.12417291  0.87709174  1
  V  V69  1  0.87726498  0.37554963  0.49981391  1
  V  V70  1  0.00496482  0.50209393  -0.00312546  1
  V  V71  1  0.87835578  0.75027208  0.12443136  1
  V  V72  1  0.74691922  0.25100105  0.00498951  1
  V  V73  1  0.37160474  0.87916644  -0.00417957  1
  V  V74  1  0.37383585  0.24781739  0.62622495  1
  V  V75  1  0.62639734  0.75384345  0.36828748  1
  V  V76  1  0.62254817  0.12374772  0.00579234  1
  V  V77  1  0.50160315  0.62474082  0.62394143  1
  V  V78  1  0.25042746  -0.00115319  0.25386159  1
  V  V79  1  0.24967165  0.37898062  0.63293759  1
  V  V80  1  0.87606862  0.87393485  -0.00045530  1
  V  V81  1  0.62574983  0.50076413  0.62459888  1
  V  V82  1  0.87867619  0.62289714  0.24802498  1
  V  V83  1  0.24831041  0.12583660  0.37537874  1
  V  V84  1  0.74211019  0.87386723  0.13003002  1
  Zn  Zn85  1  0.62143120  -0.00387600  0.13075998  1
  Zn  Zn86  1  0.51113590  0.61044469  0.12918447  1
  Zn  Zn87  1  0.12693051  0.25369887  0.36874609  1
  Zn  Zn88  1  0.11611712  -0.00778926  0.62957146  1
  Zn  Zn89  1  0.24332138  -0.00851687  0.76218142  1
  Zn  Zn90  1  0.74280718  0.49949376  0.24505350  1
  Zn  Zn91  1  0.37915673  0.88333137  0.50024186  1
  Zn  Zn92  1  0.74146333  0.38174009  0.12958211  1
  Zn  Zn93  1  0.62452351  0.62430549  0.49734638  1
  Zn  Zn94  1  0.87510884  0.12946354  0.75407999  1
  Zn  Zn95  1  0.38098270  0.00603020  0.37809088  1
  Zn  Zn96  1  0.37253239  0.14103575  0.24590987  1
  Zn  Zn97  1  0.37547380  0.37310468  0.50134676  1
  Zn  Zn98  1  0.87075785  0.88683622  0.49642697  1
  Zn  Zn99  1  0.50159731  0.38067456  0.88170296  1
  Zn  Zn100  1  0.00646583  0.62450920  0.12600930  1
  Zn  Zn101  1  0.24831907  0.62018317  0.86951519  1
  Zn  Zn102  1  0.00116079  0.34906448  0.87126120  1
  Zn  Zn103  1  -0.00619572  0.00907108  0.49848826  1
  Zn  Zn104  1  0.12167373  0.12100651  0.50051619  1
  Zn  Zn105  1  0.62374410  0.37634404  0.75128463  1
  Zn  Zn106  1  0.88211410  0.75790179  0.62637365  1
  Zn  Zn107  1  0.18756608  0.18519736  0.18406422  1
  Zn  Zn108  1  0.18884153  0.18584275  0.69238659  1
  Zn  Zn109  1  0.18884718  0.68249763  0.18542722  1
  Zn  Zn110  1  0.18825672  0.68909220  0.68319684  1
  Zn  Zn111  1  0.68568116  0.18940396  0.19153776  1
  Zn  Zn112  1  0.68686786  0.18450223  0.68711290  1
  Zn  Zn113  1  0.68861907  0.68423193  0.18619269  1
  Zn  Zn114  1  0.68821586  0.68745261  0.68735977  1
  Zn  Zn115  1  0.31878642  0.30951486  0.31063133  1
  Zn  Zn116  1  0.30535286  0.30383936  0.81323373  1
  Zn  Zn117  1  0.31544412  0.81650727  0.31105582  1
  Zn  Zn118  1  0.31493183  0.80799047  0.81133210  1
  Zn  Zn119  1  0.81060205  0.31448070  0.31037256  1
  Zn  Zn120  1  0.80889226  0.31585395  0.81631643  1
  Zn  Zn121  1  0.81624811  0.81095943  0.30946826  1
  Zn  Zn122  1  0.81245919  0.81513471  0.81077404  1
  Zn  Zn123  1  0.18850806  0.43669364  0.44169945  1
  Zn  Zn124  1  0.19658112  0.43372222  0.93611325  1
  Zn  Zn125  1  0.18349921  0.94002558  0.44452752  1
  Zn  Zn126  1  0.18475266  0.93974649  0.93483465  1
  Zn  Zn127  1  0.68693898  0.43501950  0.43333552  1
  Zn  Zn128  1  0.68899767  0.43757012  0.93603561  1
  Zn  Zn129  1  0.68952311  0.93608208  0.43303753  1
  Zn  Zn130  1  0.68387137  0.93542789  0.94109271  1
  Zn  Zn131  1  0.31109842  0.06144312  0.06205401  1
  Zn  Zn132  1  0.31696633  0.06081952  0.55713738  1
  Zn  Zn133  1  0.34364630  0.53945123  0.07981125  1
  Zn  Zn134  1  0.31043922  0.56461171  0.56340539  1
  Zn  Zn135  1  0.81249763  0.06107254  0.06617222  1
  Zn  Zn136  1  0.81743531  0.06396443  0.56197712  1
  Zn  Zn137  1  0.80990196  0.56343242  0.06351496  1
  Zn  Zn138  1  0.81804881  0.56472505  0.56138979  1
  Zn  Zn139  1  0.43626206  0.43029453  0.19368209  1
  Zn  Zn140  1  0.43771718  0.43570997  0.68907504  1
  Zn  Zn141  1  0.43233322  0.93853743  0.18952322  1
  Zn  Zn142  1  0.44061720  0.93581043  0.68346228  1
  Zn  Zn143  1  0.93946054  0.43770794  0.18331635  1
  Zn  Zn144  1  0.94316558  0.43896447  0.68946630  1
  Zn  Zn145  1  0.93632310  0.93677191  0.18963221  1
  Zn  Zn146  1  0.92868263  0.94588371  0.68494577  1
  Zn  Zn147  1  0.06692569  0.06708962  0.30888556  1
  Zn  Zn148  1  0.06423329  0.06028851  0.80767717  1
  Zn  Zn149  1  0.06590756  0.56396818  0.31103150  1
  Zn  Zn150  1  0.06499213  0.56427070  0.81099842  1
  Zn  Zn151  1  0.57171522  0.06699193  0.31205312  1
  Zn  Zn152  1  0.55897978  0.06387711  0.81451827  1
  Zn  Zn153  1  0.55873555  0.56418172  0.31418131  1
  Zn  Zn154  1  0.55734642  0.56222159  0.81551366  1
  Zn  Zn155  1  0.43021915  0.18844891  0.43518383  1
  Zn  Zn156  1  0.43657451  0.18601045  0.93806160  1
  Zn  Zn157  1  0.43780562  0.68518890  0.43617113  1
  Zn  Zn158  1  0.43571551  0.68479953  0.93577499  1
  Zn  Zn159  1  0.93581002  0.18851498  0.43897884  1
  Zn  Zn160  1  0.93425844  0.18418810  0.94131797  1
  Zn  Zn161  1  0.93967121  0.69094116  0.43831094  1
  Zn  Zn162  1  0.94301815  0.68728208  0.93515845  1
  Zn  Zn163  1  0.05189730  0.30069822  0.03875794  1
  Zn  Zn164  1  0.06242518  0.31378936  0.56526654  1
  Zn  Zn165  1  0.06278802  0.81394624  0.05680537  1
  Zn  Zn166  1  0.06589726  0.81255484  0.55397710  1
  Zn  Zn167  1  0.55949021  0.31494530  0.06633099  1
  Zn  Zn168  1  0.56408205  0.31186186  0.56225197  1
  Zn  Zn169  1  0.56048919  0.80712075  0.05981356  1
  Zn  Zn170  1  0.57013901  0.81399723  0.55921208  1
  O  O171  1  0.12821250  0.11214065  0.11225349  1
  O  O172  1  0.11049839  0.13301656  0.62553727  1
  O  O173  1  0.12615649  0.61644665  0.11396626  1
  O  O174  1  0.11818988  0.61732401  0.62847352  1
  O  O175  1  0.61515843  0.12377414  0.11976282  1
  O  O176  1  0.61815027  0.11185619  0.62744188  1
  O  O177  1  0.62571644  0.62603076  0.10916629  1
  O  O178  1  0.62089933  0.61719733  0.62222344  1
  O  O179  1  0.36346537  0.39207958  0.38254625  1
  O  O180  1  0.37524916  0.38114101  0.86573143  1
  O  O181  1  0.39290102  0.87327419  0.37504277  1
  O  O182  1  0.38476933  0.86729000  0.88428201  1
  O  O183  1  0.88391324  0.38146670  0.38035520  1
  O  O184  1  0.87926207  0.37808818  0.88654266  1
  O  O185  1  0.89060805  0.86936073  0.37500247  1
  O  O186  1  0.87986326  0.87953976  0.88133462  1
  O  O187  1  0.24501555  0.00665291  0.36851713  1
  O  O188  1  0.24846439  0.01530199  0.87805177  1
  O  O189  1  0.24949928  0.50958787  0.37077764  1
  O  O190  1  0.26450699  0.50262806  0.87092860  1
  O  O191  1  0.74673554  0.00983065  0.36713569  1
  O  O192  1  0.75149667  0.00250523  0.87211412  1
  O  O193  1  0.75868294  0.50958362  0.37363122  1
  O  O194  1  0.75907813  0.50546247  0.86845392  1
  O  O195  1  0.24643994  0.49928335  0.14043769  1
  O  O196  1  0.23996401  0.49241680  0.61952296  1
  O  O197  1  0.24306765  0.99397363  0.13108911  1
  O  O198  1  0.25340553  0.98219907  0.62147890  1
  O  O199  1  0.75776600  0.49566423  0.13198324  1
  O  O200  1  0.74578777  0.49852979  0.62848946  1
  O  O201  1  0.74828474  0.98929338  0.13076975  1
  O  O202  1  0.73911310  0.99755328  0.63253388  1
  O  O203  1  -0.00760010  0.36621142  0.25796776  1
  O  O204  1  0.01151774  0.37373481  0.75561204  1
  O  O205  1  -0.00395523  0.86406212  0.25991335  1
  O  O206  1  -0.01018682  0.87912398  0.75921983  1
  O  O207  1  0.51142801  0.37821943  0.25834006  1
  O  O208  1  0.50333057  0.35984900  0.74953281  1
  O  O209  1  0.49573411  0.86191873  0.25584741  1
  O  O210  1  0.49558231  0.86745198  0.76071233  1
  O  O211  1  0.50003687  0.11578961  0.23594948  1
  O  O212  1  0.49431619  0.13277825  0.74524719  1
  O  O213  1  0.48726967  0.63403620  0.24982959  1
  O  O214  1  0.49212140  0.63250848  0.74325495  1
  O  O215  1  0.98701702  0.13425699  0.25663569  1
  O  O216  1  0.99448206  0.12915804  0.73965362  1
  O  O217  1  0.99512580  0.63459040  0.24925823  1
  O  O218  1  0.99204255  0.62023782  0.73843591  1
  O  O219  1  0.36744381  0.25911259  -0.00548953  1
  O  O220  1  0.36324593  0.25234599  0.50746836  1
  O  O221  1  0.36968699  0.75658640  0.00609988  1
  O  O222  1  0.37190804  0.75212162  0.50709224  1
  O  O223  1  0.86498169  0.25698071  0.00816153  1
  O  O224  1  0.86549865  0.25925281  0.50919944  1
  O  O225  1  0.87047258  0.75213994  0.00378895  1
  O  O226  1  0.86200527  0.75186407  0.50158218  1
  O  O227  1  0.13608696  0.25155181  0.50011089  1
  O  O228  1  0.14499922  0.23651508  1.01593461  1
  O  O229  1  0.13668657  0.74911487  0.48724170  1
  O  O230  1  0.13020439  0.74153934  0.99469409  1
  O  O231  1  0.63902508  0.25953410  0.49170534  1
  O  O232  1  0.62750404  0.24577209  0.99533124  1
  O  O233  1  0.63746941  0.74585618  0.49045140  1
  O  O234  1  0.63181466  0.74241251  0.99194780  1
  O  O235  1  0.49912582  0.23438242  0.12292764  1
  O  O236  1  0.49751089  0.24241306  0.63129058  1
  O  O237  1  0.48987259  0.74687284  0.13089208  1
  O  O238  1  0.49832023  0.74838402  0.62948774  1
  O  O239  1  0.98563426  0.25557083  0.12936291  1
  O  O240  1  0.98865002  0.24385377  0.62294364  1
  O  O241  1  0.99729040  0.75118892  0.13152827  1
  O  O242  1  1.00108538  0.73852349  0.61601262  1
  O  O243  1  0.00015620  0.25922208  0.36581849  1
  O  O244  1  0.01820074  0.25472930  0.93057706  1
  O  O245  1  0.00944766  0.75499045  0.36824160  1
  O  O246  1  0.01046777  0.76062524  0.87805061  1
  O  O247  1  0.51750567  0.24479138  0.38606467  1
  O  O248  1  0.50758406  0.24967139  0.86786290  1
  O  O249  1  0.50856695  0.75335777  0.36733287  1
  O  O250  1  0.50510897  0.75530517  0.86774466  1
  O  O251  1  0.24643157  0.13294355  0.49497856  1
  O  O252  1  0.24823658  0.13100816  0.99475819  1
  O  O253  1  0.25761770  0.63915617  0.49092478  1
  O  O254  1  0.24136170  0.62897197  0.99715512  1
  O  O255  1  0.75504076  0.13686887  0.49276212  1
  O  O256  1  0.74213694  0.12934363  0.99737923  1
  O  O257  1  0.75215053  0.63095254  0.48815732  1
  O  O258  1  0.74358751  0.63107990  0.99177071  1
  O  O259  1  0.25860135  0.35590338  -0.00369016  1
  O  O260  1  0.24955076  0.36855147  0.51360552  1
  O  O261  1  0.25637292  0.87177398  0.00464041  1
  O  O262  1  0.25455686  0.86386314  0.50741497  1
  O  O263  1  0.75645743  0.37018923  0.00135621  1
  O  O264  1  0.75821038  0.37242151  0.50571930  1
  O  O265  1  0.75672322  0.86793080  0.00588484  1
  O  O266  1  0.74969918  0.86771849  0.50548996  1
  O  O267  1  0.13558177  0.50401512  0.24027974  1
  O  O268  1  0.12244025  0.49291339  0.73897114  1
  O  O269  1  0.13558516  1.00505389  0.23906903  1
  O  O270  1  0.13200309  1.00276512  0.74133407  1
  O  O271  1  0.62345289  0.48731050  0.25985041  1
  O  O272  1  0.63169642  0.50176668  0.74497881  1
  O  O273  1  0.64287152  1.00222472  0.24640481  1
  O  O274  1  0.63413918  1.00291254  0.75066723  1
  O  O275  1  0.36100722  0.00241236  0.25505134  1
  O  O276  1  0.37342214  0.00859951  0.74536074  1
  O  O277  1  0.36084371  0.50601115  0.26066564  1
  O  O278  1  0.37698428  0.50761155  0.75627860  1
  O  O279  1  0.86648133  0.01227864  0.24288311  1
  O  O280  1  0.85962014  0.00419254  0.75967797  1
  O  O281  1  0.88265960  0.51321523  0.25554330  1
  O  O282  1  0.87059391  0.50800256  0.75398267  1
  O  O283  1  0.11117909  0.37575873  0.37876061  1
  O  O284  1  0.12607660  0.38182730  0.85955502  1
  O  O285  1  0.11770830  0.86496159  0.37547283  1
  O  O286  1  0.11531389  0.86573236  0.87871865  1
  O  O287  1  0.62787721  0.36207845  0.36709100  1
  O  O288  1  0.62266174  0.36375833  0.87458083  1
  O  O289  1  0.61789035  0.86228605  0.37398667  1
  O  O290  1  0.61465684  0.86100798  0.88236753  1
  O  O291  1  0.38994223  0.11567335  0.12565572  1
  O  O292  1  0.38220873  0.12911577  0.63246619  1
  O  O293  1  0.35761594  0.64343997  0.13460036  1
  O  O294  1  0.38080736  0.63485816  0.62988889  1
  O  O295  1  0.86932108  0.13577469  0.13440472  1
  O  O296  1  0.88074101  0.13722561  0.62980762  1
  O  O297  1  0.88016903  0.63269815  0.13195783  1
  O  O298  1  0.88437460  0.62797176  0.63238700  1
  O  O299  1  0.26246732  0.23871618  0.11456204  1
  O  O300  1  0.25448836  0.25502809  0.62064471  1
  O  O301  1  0.25100932  0.75947161  0.11881954  1
  O  O302  1  0.25942074  0.75495925  0.61720789  1
  O  O303  1  0.75634154  0.25447558  0.12040614  1
  O  O304  1  0.75308258  0.25568010  0.61869731  1
  O  O305  1  0.75796056  0.75476350  0.12206901  1
  O  O306  1  0.74660184  0.75909012  0.61739329  1
  O  O307  1  0.24691928  0.24593951  0.38379827  1
  O  O308  1  0.25057525  0.23287655  0.88550813  1
  O  O309  1  0.24593905  0.74847011  0.37851977  1
  O  O310  1  0.24254099  0.74948277  0.88165381  1
  O  O311  1  0.74650072  0.24565737  0.38370531  1
  O  O312  1  0.74140329  0.24546923  0.88269453  1
  O  O313  1  0.74545715  0.74569315  0.37824218  1
  O  O314  1  0.74160771  0.74625527  0.87718256  1
  O  O315  1  0.00526410  0.10775160  -0.00080346  1
  O  O316  1  0.00080820  0.13070612  0.51307297  1
  O  O317  1  0.01046813  0.61564179  -0.00014283  1
  O  O318  1  -0.00590831  0.61490220  0.50772617  1
  O  O319  1  0.50250572  0.11539071  0.00754406  1
  O  O320  1  0.49596097  0.13034148  0.51290653  1
  O  O321  1  0.51460359  0.63198063  0.00108020  1
  O  O322  1  0.50152817  0.61714633  0.50808055  1
  O  O323  1  0.49624688  0.38890008  0.50727635  1
  O  O324  1  0.48327012  0.36768817  0.99856646  1
  O  O325  1  0.50307440  0.86819260  0.48222133  1
  O  O326  1  0.49251827  0.87839882  0.99377099  1
  O  O327  1  0.99447732  0.38233843  0.49466923  1
  O  O328  1  0.99108950  0.39402003  0.99983375  1
  O  O329  1  0.99705127  0.87288032  0.48368240  1
  O  O330  1  0.99344937  0.88350347  0.99247634  1
  O  O331  1  0.48632013  0.50956203  0.38597147  1
  O  O332  1  0.48077642  0.49785838  0.87234247  1
  O  O333  1  0.50746218  0.98446489  0.36459035  1
  O  O334  1  0.50560624  0.98926517  0.88742988  1
  O  O335  1  0.99858600  0.49720085  0.38149506  1
  O  O336  1  0.99290991  0.50294668  0.88065050  1
  O  O337  1  1.00745329  0.98560010  0.36823176  1
  O  O338  1  0.99348422  0.99307242  0.88059403  1
  O  O339  1  0.01009522  -0.01076697  0.11678152  1
  O  O340  1  -0.00445983  0.01840740  0.62644928  1
  O  O341  1  0.01091187  0.50372919  0.11740762  1
  O  O342  1  0.00754183  0.50809477  0.61833526  1
  O  O343  1  0.50232754  -0.00530539  0.11410775  1
  O  O344  1  0.51561949  0.00502947  0.62869860  1
  O  O345  1  0.45016046  0.51779237  0.12504469  1
  O  O346  1  0.50666639  0.50485671  0.62076778  1
  O  O347  1  0.24487329  0.38895398  0.26145480  1
  O  O348  1  0.23985717  0.36931525  0.73915036  1
  O  O349  1  0.25209953  0.88207325  0.23959688  1
  O  O350  1  0.25967592  0.87300719  0.73385309  1
  O  O351  1  0.73792898  0.37837090  0.25161946  1
  O  O352  1  0.74854296  0.38551485  0.74420183  1
  O  O353  1  0.75924497  0.88311510  0.24120471  1
  O  O354  1  0.74945675  0.88284175  0.74116834  1
  O  O355  1  0.25019972  0.11824331  0.25717980  1
  O  O356  1  0.26159175  0.12506264  0.75745549  1
  O  O357  1  0.25792170  0.62135460  0.25845716  1
  O  O358  1  0.26652949  0.63297790  0.74799122  1
  O  O359  1  0.75820626  0.11943451  0.25580076  1
  O  O360  1  0.74957863  0.11853298  0.76080855  1
  O  O361  1  0.75948820  0.62584952  0.26028856  1
  O  O362  1  0.75709984  0.61962751  0.75481401  1
  O  O363  1  0.36078507  0.12473607  0.37108371  1
  O  O364  1  0.37096677  0.12522385  0.86466624  1
  O  O365  1  0.36441004  0.62043669  0.36728413  1
  O  O366  1  0.37365606  0.61627553  0.86711313  1
  O  O367  1  0.86197946  0.13447305  0.36472820  1
  O  O368  1  0.86655970  0.11875256  0.87689923  1
  O  O369  1  0.87077183  0.62296281  0.36775644  1
  O  O370  1  0.87202799  0.62103939  0.86724000  1
  O  O371  1  0.11849975  0.38375304  0.10960205  1
  O  O372  1  0.12875514  0.38201361  0.63536951  1
  O  O373  1  0.13592914  0.88496730  0.11471170  1
  O  O374  1  0.14138979  0.86823250  0.62269631  1
  O  O375  1  0.62181385  0.36972902  0.14393699  1
  O  O376  1  0.63253793  0.38420909  0.62714699  1
  O  O377  1  0.63902034  0.87047773  0.11872335  1
  O  O378  1  0.63355589  0.88888836  0.62164730  1
  O  O379  1  0.10954811  0.24462305  0.24484935  1
  O  O380  1  0.12443855  0.26307297  0.75001278  1
  O  O381  1  0.11660542  0.74533896  0.25459610  1
  O  O382  1  0.12888799  0.74620884  0.76248784  1
  O  O383  1  0.62593217  0.25878708  0.26362560  1
  O  O384  1  0.61840382  0.24833276  0.75915894  1
  O  O385  1  0.61567026  0.74278052  0.25563843  1
  O  O386  1  0.61312054  0.74413845  0.75745774  1
  O  O387  1  0.38469640  0.25185856  0.24995688  1
  O  O388  1  0.38254318  0.24202595  0.74414713  1
  O  O389  1  0.37998742  0.74392222  0.24413159  1
  O  O390  1  0.38778087  0.74360327  0.74272637  1
  O  O391  1  0.88045346  0.24499612  0.24224085  1
  O  O392  1  0.86593948  0.25300852  0.73846266  1
  O  O393  1  0.88498790  0.73949077  0.24553033  1
  O  O394  1  0.86966288  0.73758259  0.74696345  1
  O  O395  1  0.38128752  0.50209240  0.49542964  1
  O  O396  1  0.36262427  0.47487884  0.98492538  1
  O  O397  1  0.37873269  0.99636098  0.49164252  1
  O  O398  1  0.38069265  0.98575489  1.00406651  1
  O  O399  1  0.88499090  0.49426438  0.49497668  1
  O  O400  1  0.88164095  0.49696935  0.99348424  1
  O  O401  1  0.87955697  0.99987278  0.49729038  1
  O  O402  1  0.88059194  0.99523016  0.99517418  1
  O  O403  1  0.11714381  0.00746405  0.00458331  1
  O  O404  1  0.11421660  0.00199410  0.51089490  1
  O  O405  1  0.12288070  0.50482426  0.00152979  1
  O  O406  1  0.11393887  0.49563076  0.51008874  1
  O  O407  1  0.61671025  0.00653509  0.00413078  1
  O  O408  1  0.62880696  0.00173202  0.50934489  1
  O  O409  1  0.62517672  0.51529144  -0.00994260  1
  O  O410  1  0.61848302  0.50161679  0.50385007  1
  O  O411  1  0.37151675  0.37249708  0.11427852  1
  O  O412  1  0.36590325  0.36812576  0.62683070  1
  O  O413  1  0.36582411  0.86539544  0.11893183  1
  O  O414  1  0.37239045  0.86290757  0.62242368  1
  O  O415  1  0.87515594  0.36968281  0.11201958  1
  O  O416  1  0.87197099  0.37164030  0.62061721  1
  O  O417  1  0.86826677  0.86811796  0.11835536  1
  O  O418  1  0.86073564  0.87494945  0.62214507  1
  O  O419  1  0.13548321  0.13102618  0.37749487  1
  O  O420  1  0.13031933  0.12199673  0.88566125  1
  O  O421  1  0.13748966  0.63534067  0.37034729  1
  O  O422  1  0.12707615  0.63264317  0.88134889  1
  O  O423  1  0.63982531  0.13968951  0.37009113  1
  O  O424  1  0.62623806  0.13437095  0.88453797  1
  O  O425  1  0.63429354  0.63430629  0.37425071  1
  O  O426  1  0.62773379  0.63467911  0.88146604  1
