# generated using pymatgen
data_V85Zn86O256
_symmetry_space_group_name_H-M   'P 1'
_cell_length_a   16.93719273
_cell_length_b   16.93706919
_cell_length_c   16.93547147
_cell_angle_alpha   90.08469403
_cell_angle_beta   90.05642802
_cell_angle_gamma   89.97528677
_symmetry_Int_Tables_number   1
_chemical_formula_structural   V85Zn86O256
_chemical_formula_sum   'V85 Zn86 O256'
_cell_volume   4858.20970781
_cell_formula_units_Z   1
loop_
 _symmetry_equiv_pos_site_id
 _symmetry_equiv_pos_as_xyz
  1  'x, y, z'
loop_
 _atom_site_type_symbol
 _atom_site_label
 _atom_site_symmetry_multiplicity
 _atom_site_fract_x
 _atom_site_fract_y
 _atom_site_fract_z
 _atom_site_occupancy
  V  V0  1  0.49824686  0.12885362  0.61976047  1
  V  V1  1  0.85291027  0.12040138  0.24838865  1
  V  V2  1  0.25875491  0.73943635  0.49763051  1
  V  V3  1  0.00101788  0.62961556  0.12883246  1
  V  V4  1  0.25836563  0.24773442  0.00093291  1
  V  V5  1  0.13027814  0.24357897  0.87387523  1
  V  V6  1  0.75742699  0.24138783  0.50440919  1
  V  V7  1  0.37818802  0.36977138  0.50852519  1
  V  V8  1  0.24672611  -0.00739176  0.74866061  1
  V  V9  1  0.88176924  0.62611089  0.25376991  1
  V  V10  1  0.12648903  0.37513209  0.25127431  1
  V  V11  1  0.49981703  0.75873467  0.24923610  1
  V  V12  1  -0.00378417  0.25034933  0.74047641  1
  V  V13  1  0.49752313  0.87137174  0.86967856  1
  V  V14  1  0.88317939  0.63002500  0.74269530  1
  V  V15  1  0.25214666  0.62549731  0.87213933  1
  V  V16  1  0.74859122  0.49963472  0.74614237  1
  V  V17  1  0.75140776  0.62427492  0.37635827  1
  V  V18  1  0.38102114  -0.00677783  0.38618476  1
  V  V19  1  0.62477204  0.75205907  0.37485682  1
  V  V20  1  0.87253687  0.25443417  0.11829125  1
  V  V21  1  0.75299148  0.75907258  0.00514116  1
  V  V22  1  0.11697278  0.00050338  0.12459463  1
  V  V23  1  0.00197443  0.50320465  0.00092074  1
  V  V24  1  0.23814329  0.87401665  0.12716451  1
  V  V25  1  0.37306207  0.87404817  0.00118765  1
  V  V26  1  0.25512321  0.24887425  0.50931359  1
  V  V27  1  0.37598704  0.62977544  0.25535760  1
  V  V28  1  -0.00184693  0.37069680  0.37850795  1
  V  V29  1  0.36879626  0.00449142  0.87456720  1
  V  V30  1  0.62535009  0.11746542  0.49896709  1
  V  V31  1  0.24774997  0.87021503  0.62025812  1
  V  V32  1  0.56473552  0.45798046  0.06625382  1
  V  V33  1  0.87249570  0.12881292  0.74139366  1
  V  V34  1  0.49993635  0.50433932  0.50833669  1
  V  V35  1  0.49778316  0.11768319  0.12713783  1
  V  V36  1  0.25827339  0.37037336  0.12482369  1
  V  V37  1  0.24809693  0.74892634  0.00089536  1
  V  V38  1  0.87456286  0.49562799  0.37653044  1
  V  V39  1  0.37162529  0.12485630  0.24615731  1
  V  V40  1  0.13130711  0.76190132  0.37517248  1
  V  V41  1  0.49891250  -0.00245433  0.00226149  1
  V  V42  1  0.62030766  0.62795790  0.00659041  1
  V  V43  1  0.88061003  0.00117168  0.87666358  1
  V  V44  1  0.50003967  0.37402844  0.37815346  1
  V  V45  1  -0.00103146  0.12514351  0.11712335  1
  V  V46  1  0.36943133  0.12890211  0.74750974  1
  V  V47  1  0.12330471  0.11921565  0.50763251  1
  V  V48  1  0.38990295  0.75198416  0.62602286  1
  V  V49  1  0.24426563  -0.00505139  0.25253143  1
  V  V50  1  0.90134726  0.88620358  0.50238470  1
  V  V51  1  0.74506059  0.50183255  0.24914667  1
  V  V52  1  0.87802550  0.50328035  0.87392399  1
  V  V53  1  0.00429539  0.87122222  0.87715648  1
  V  V54  1  0.12764533  0.12205462  -0.00461174  1
  V  V55  1  0.62196741  0.75047670  0.86968654  1
  V  V56  1  0.00455384  0.76997305  0.25956920  1
  V  V57  1  0.12682509  0.49997713  0.12662650  1
  V  V58  1  0.38938170  0.62686371  0.74515424  1
  V  V59  1  0.11721891  0.62202823  0.49553530  1
  V  V60  1  0.37104718  0.50400300  0.38022048  1
  V  V61  1  0.74764433  0.38389309  0.12236685  1
  V  V62  1  0.25448381  0.49885890  0.74948419  1
  V  V63  1  0.49687525  0.25125451  0.76324801  1
  V  V64  1  0.24926010  0.50742806  0.25413976  1
  V  V65  1  0.75062302  0.62739284  0.87569162  1
  V  V66  1  0.49342524  0.24765621  0.25087142  1
  V  V67  1  0.75417193  0.76064345  0.50155287  1
  V  V68  1  0.00026936  0.24975700  0.24567716  1
  V  V69  1  0.63047847  0.24418067  0.37516692  1
  V  V70  1  0.87411725  0.36781154  0.51026753  1
  V  V71  1  0.38745113  0.49430696  0.88372876  1
  V  V72  1  0.87623828  0.37853143  -0.00140555  1
  V  V73  1  0.00283963  0.37483317  0.87521355  1
  V  V74  1  0.62211251  0.87686291  0.74433996  1
  V  V75  1  0.24888406  0.12569008  0.37723437  1
  V  V76  1  0.62338674  0.36584055  0.75938534  1
  V  V77  1  0.74432533  0.13121466  0.87175660  1
  V  V78  1  0.12687898  0.37550338  0.74709310  1
  V  V79  1  0.62297061  0.37927109  0.25011863  1
  V  V80  1  0.74476735  0.00081450  0.74401674  1
  V  V81  1  0.12791895  0.62533784  0.00095188  1
  V  V82  1  0.64624183  0.87887330  0.24367845  1
  V  V83  1  0.62718352  0.62294054  0.51001721  1
  V  V84  1  0.62256835  0.12568576  -0.00590831  1
  Zn  Zn85  1  0.88271950  0.75039632  0.62232794  1
  Zn  Zn86  1  0.25519611  0.37226569  0.62793344  1
  Zn  Zn87  1  0.50164900  0.62550756  0.12706908  1
  Zn  Zn88  1  0.12702861  0.24853145  0.37640350  1
  Zn  Zn89  1  0.88116732  -0.00833467  0.36824376  1
  Zn  Zn90  1  0.01805287  0.75725385  0.73984612  1
  Zn  Zn91  1  0.86837506  0.89357659  0.00936435  1
  Zn  Zn92  1  0.55986487  -0.03986946  0.56029460  1
  Zn  Zn93  1  -0.01062720  0.11898867  0.61772127  1
  Zn  Zn94  1  -0.00475599  0.50200354  0.50827708  1
  Zn  Zn95  1  0.74108819  0.25667545  -0.00863118  1
  Zn  Zn96  1  0.86816227  0.75638651  0.13308710  1
  Zn  Zn97  1  0.37371688  0.75022960  0.12675861  1
  Zn  Zn98  1  0.75035748  0.87768612  0.62325058  1
  Zn  Zn99  1  0.50285386  0.87970583  0.38950784  1
  Zn  Zn100  1  0.12998524  0.75823381  0.87037547  1
  Zn  Zn101  1  0.62028096  0.49748226  0.62930441  1
  Zn  Zn102  1  0.12206420  0.50924815  0.62782285  1
  Zn  Zn103  1  0.64648606  -0.00068287  0.12676278  1
  Zn  Zn104  1  0.11428848  -0.01245729  0.62521795  1
  Zn  Zn105  1  0.74646312  0.36954865  0.62635852  1
  Zn  Zn106  1  0.38801732  0.37453311  0.00102637  1
  Zn  Zn107  1  0.18725182  0.18787639  0.18571118  1
  Zn  Zn108  1  0.19048791  0.18786359  0.68829469  1
  Zn  Zn109  1  0.18554614  0.68926557  0.19185340  1
  Zn  Zn110  1  0.18972800  0.68746866  0.68356327  1
  Zn  Zn111  1  0.67952863  0.19511191  0.17717288  1
  Zn  Zn112  1  0.68165736  0.18629269  0.68281829  1
  Zn  Zn113  1  0.68756685  0.68800423  0.18696462  1
  Zn  Zn114  1  0.69266291  0.68991715  0.68802967  1
  Zn  Zn115  1  0.31258997  0.31372894  0.31817855  1
  Zn  Zn116  1  0.31456584  0.31247002  0.81727573  1
  Zn  Zn117  1  0.31033907  0.81618158  0.31462469  1
  Zn  Zn118  1  0.31334100  0.81098579  0.80833215  1
  Zn  Zn119  1  0.81312291  0.30491380  0.31279766  1
  Zn  Zn120  1  0.81315377  0.31317361  0.81119004  1
  Zn  Zn121  1  0.81999344  0.81413607  0.32502448  1
  Zn  Zn122  1  0.81127364  0.81527485  0.81448226  1
  Zn  Zn123  1  0.18895494  0.43544242  0.43820572  1
  Zn  Zn124  1  0.19239413  0.43652447  0.93596007  1
  Zn  Zn125  1  0.19408547  0.93603872  0.44461123  1
  Zn  Zn126  1  0.18530908  0.93852708  0.93863489  1
  Zn  Zn127  1  0.68802708  0.43324053  0.43841085  1
  Zn  Zn128  1  0.69100543  0.43785086  0.92977258  1
  Zn  Zn129  1  0.70423509  0.94529526  0.42000128  1
  Zn  Zn130  1  0.68685203  0.94288240  0.93425964  1
  Zn  Zn131  1  0.30851357  0.06144084  0.06370022  1
  Zn  Zn132  1  0.31373263  0.06245412  0.56719007  1
  Zn  Zn133  1  0.31639536  0.56253926  0.06690500  1
  Zn  Zn134  1  0.31044489  0.56419952  0.56639607  1
  Zn  Zn135  1  0.81021631  0.07027339  0.05863066  1
  Zn  Zn136  1  0.80924278  0.05964020  0.56071496  1
  Zn  Zn137  1  0.81199505  0.56954368  0.06365814  1
  Zn  Zn138  1  0.81239361  0.55956764  0.56288656  1
  Zn  Zn139  1  0.43077947  0.43479877  0.19464334  1
  Zn  Zn140  1  0.44035804  0.43583447  0.69093156  1
  Zn  Zn141  1  0.43100959  0.93580429  0.19099868  1
  Zn  Zn142  1  0.43437811  0.93861950  0.68795236  1
  Zn  Zn143  1  0.93701982  0.44022124  0.18855860  1
  Zn  Zn144  1  0.94009929  0.44116343  0.68588862  1
  Zn  Zn145  1  0.82639324  0.93668248  0.18462629  1
  Zn  Zn146  1  0.93652588  0.93540167  0.68856374  1
  Zn  Zn147  1  0.05803449  0.05399029  0.30888035  1
  Zn  Zn148  1  0.05867038  0.06007898  0.80327180  1
  Zn  Zn149  1  0.06483675  0.56365248  0.32362423  1
  Zn  Zn150  1  0.06666795  0.56575699  0.81150272  1
  Zn  Zn151  1  0.56703321  0.05817886  0.31237175  1
  Zn  Zn152  1  0.55740897  0.06060588  0.81025854  1
  Zn  Zn153  1  0.55924603  0.56515799  0.31656559  1
  Zn  Zn154  1  0.56634159  0.56020075  0.81615161  1
  Zn  Zn155  1  0.43779234  0.18357978  0.43580562  1
  Zn  Zn156  1  0.43504230  0.18439568  0.93590188  1
  Zn  Zn157  1  0.44166577  0.68828315  0.43873950  1
  Zn  Zn158  1  0.43708529  0.68667910  0.93723318  1
  Zn  Zn159  1  0.95087324  0.15501186  0.41457933  1
  Zn  Zn160  1  0.93848232  0.18683404  0.93164488  1
  Zn  Zn161  1  0.93982863  0.69412344  0.43752207  1
  Zn  Zn162  1  0.93843199  0.69164801  0.93595547  1
  Zn  Zn163  1  0.06784925  0.31301048  0.06046405  1
  Zn  Zn164  1  0.06687743  0.30927126  0.56187960  1
  Zn  Zn165  1  0.01457350  0.85229520  0.09455578  1
  Zn  Zn166  1  0.06604384  0.80348944  0.56529104  1
  Zn  Zn167  1  0.55726702  0.29377559  0.06522529  1
  Zn  Zn168  1  0.56505335  0.30813661  0.56847652  1
  Zn  Zn169  1  0.56243544  0.81113440  0.06362440  1
  Zn  Zn170  1  0.56270770  0.79868427  0.56292520  1
  O  O171  1  0.11807828  0.12335028  0.11628054  1
  O  O172  1  0.13151235  0.12431085  0.61220557  1
  O  O173  1  0.12153537  0.61909664  0.12129122  1
  O  O174  1  0.13767717  0.62495491  0.60110974  1
  O  O175  1  0.61460929  0.11797913  0.11805449  1
  O  O176  1  0.61383926  0.12532806  0.61287770  1
  O  O177  1  0.62383503  0.62532648  0.11511818  1
  O  O178  1  0.63120856  0.62222823  0.61325253  1
  O  O179  1  0.38161465  0.38387015  0.38456203  1
  O  O180  1  0.37491659  0.38989005  0.87947297  1
  O  O181  1  0.37599793  0.88979577  0.37387434  1
  O  O182  1  0.38182089  0.87775175  0.88007725  1
  O  O183  1  0.88127701  0.37484970  0.38049345  1
  O  O184  1  0.88079620  0.38272235  0.88020909  1
  O  O185  1  0.88460963  0.87387965  0.39611859  1
  O  O186  1  0.87300685  0.89134248  0.87808623  1
  O  O187  1  0.25563517  0.00457036  0.36903703  1
  O  O188  1  0.26244915  -0.01135221  0.86741620  1
  O  O189  1  0.26324374  0.49366329  0.36842187  1
  O  O190  1  0.25978474  0.50568492  0.86656248  1
  O  O191  1  0.77077514  -0.00306326  0.35271253  1
  O  O192  1  0.75727361  0.01091373  0.86663946  1
  O  O193  1  0.75566141  0.50374404  0.36985780  1
  O  O194  1  0.75731508  0.50613629  0.86374986  1
  O  O195  1  0.24575168  0.49414674  0.13465434  1
  O  O196  1  0.24895186  0.49653181  0.63897978  1
  O  O197  1  0.23995323  0.99387769  0.13247076  1
  O  O198  1  0.25562634  0.98393455  0.62953459  1
  O  O199  1  0.75555645  0.49102024  0.13066833  1
  O  O200  1  0.74860777  0.49586859  0.63748022  1
  O  O201  1  0.75790041  0.98882510  0.11174682  1
  O  O202  1  0.74843223  0.99894560  0.63951115  1
  O  O203  1  0.00303018  0.36710815  0.25407045  1
  O  O204  1  0.00715768  0.36936993  0.75612187  1
  O  O205  1  0.00293390  0.86519841  0.25341480  1
  O  O206  1  -0.01557386  0.86850219  0.77077041  1
  O  O207  1  0.50205000  0.36540707  0.25499925  1
  O  O208  1  0.50707467  0.36003274  0.74760771  1
  O  O209  1  0.49929536  0.86494212  0.25492452  1
  O  O210  1  0.50541373  0.87991897  0.76212586  1
  O  O211  1  0.49303590  0.12660869  0.24598157  1
  O  O212  1  0.49387497  0.13488843  0.74556341  1
  O  O213  1  0.49394960  0.63864542  0.25255088  1
  O  O214  1  0.48764116  0.62100913  0.75477424  1
  O  O215  1  0.99813567  0.14094658  0.23401474  1
  O  O216  1  0.98790249  0.13675990  0.75437141  1
  O  O217  1  0.99033941  0.61892400  0.25044300  1
  O  O218  1  0.98425209  0.62446869  0.75813906  1
  O  O219  1  0.36310570  0.25380609  -0.00681685  1
  O  O220  1  0.36954468  0.25926625  0.49142504  1
  O  O221  1  0.36454360  0.75387687  0.00327369  1
  O  O222  1  0.37319816  0.73957445  0.51590268  1
  O  O223  1  0.87489467  0.25709854  0.00659436  1
  O  O224  1  0.85949314  0.25158437  0.49025423  1
  O  O225  1  0.85776703  0.74538610  -0.00023998  1
  O  O226  1  0.86940540  0.76060268  0.49988170  1
  O  O227  1  0.13876460  0.24235916  0.49725540  1
  O  O228  1  0.13254419  0.24261634  0.99260864  1
  O  O229  1  0.13443628  0.74189773  0.49059372  1
  O  O230  1  0.14140571  0.74144245  0.99222610  1
  O  O231  1  0.63204535  0.24221322  0.49232247  1
  O  O232  1  0.62466010  0.23244708  1.00072373  1
  O  O233  1  0.63410219  0.74004845  0.49219514  1
  O  O234  1  0.63382864  0.74643795  0.99305979  1
  O  O235  1  0.49902710  0.23237939  0.13983920  1
  O  O236  1  0.50260931  0.23493385  0.63668003  1
  O  O237  1  0.49535121  0.74923961  0.13470688  1
  O  O238  1  0.48859129  0.74262817  0.62911243  1
  O  O239  1  0.99313302  0.24997400  0.12660395  1
  O  O240  1  1.00557793  0.24611498  0.63857231  1
  O  O241  1  1.00783584  0.74383362  0.14751734  1
  O  O242  1  0.99596665  0.74838956  0.62985299  1
  O  O243  1  0.00152916  0.25560483  0.36249614  1
  O  O244  1  0.01131862  0.25794699  0.87050561  1
  O  O245  1  0.01424041  0.74806915  0.36650388  1
  O  O246  1  0.00360910  0.76094408  0.87388153  1
  O  O247  1  0.50707273  0.25282993  0.36733405  1
  O  O248  1  0.50170766  0.24478020  0.86246257  1
  O  O249  1  0.51073890  0.75401258  0.37067619  1
  O  O250  1  0.50892279  0.75988157  0.88112856  1
  O  O251  1  0.24778294  0.13116573  0.49531011  1
  O  O252  1  0.24163698  0.13574709  1.00575504  1
  O  O253  1  0.24972803  0.63574316  0.49755843  1
  O  O254  1  0.25101493  0.63037821  0.99518939  1
  O  O255  1  0.74329431  0.13484776  0.50100808  1
  O  O256  1  0.73914757  0.12945829  0.98961401  1
  O  O257  1  0.74596069  0.62926457  0.49368498  1
  O  O258  1  0.74051659  0.63229561  0.99436693  1
  O  O259  1  0.24859247  0.36673494  0.00951223  1
  O  O260  1  0.25934127  0.36666398  0.50052527  1
  O  O261  1  0.25180045  0.86741630  0.00630875  1
  O  O262  1  0.25568300  0.86320167  0.51325570  1
  O  O263  1  0.75592979  0.37712189  0.00434216  1
  O  O264  1  0.75675090  0.36339024  0.50138848  1
  O  O265  1  0.75009891  0.86190938  -0.00788578  1
  O  O266  1  0.74076144  0.86446914  0.49900717  1
  O  O267  1  0.13323960  0.49644196  0.24993498  1
  O  O268  1  0.13553466  0.49250368  0.75184466  1
  O  O269  1  0.13593063  1.00920240  0.24182746  1
  O  O270  1  0.14472582  1.00835202  0.74892479  1
  O  O271  1  0.63146807  0.49290058  0.25896986  1
  O  O272  1  0.63153639  0.49146623  0.75030475  1
  O  O273  1  0.62604333  0.98189404  0.24835740  1
  O  O274  1  0.63223439  0.98854445  0.75986004  1
  O  O275  1  0.36079223  0.00658088  0.25624762  1
  O  O276  1  0.36782533  0.00727362  0.75675258  1
  O  O277  1  0.36897700  0.50709854  0.26053070  1
  O  O278  1  0.37262134  0.50677297  0.75714089  1
  O  O279  1  0.88168132  0.02085669  0.24212540  1
  O  O280  1  0.86369192  0.00936662  0.75882629  1
  O  O281  1  0.86791655  0.50705872  0.25606594  1
  O  O282  1  0.86864881  0.50663780  0.75465395  1
  O  O283  1  0.11649247  0.37203086  0.36963521  1
  O  O284  1  0.12296769  0.36917290  0.86514807  1
  O  O285  1  0.13014568  0.86152765  0.38252875  1
  O  O286  1  0.10914923  0.87903868  0.87764657  1
  O  O287  1  0.61696688  0.36694335  0.37079556  1
  O  O288  1  0.62563579  0.37640122  0.85943358  1
  O  O289  1  0.62850792  0.86488065  0.36084535  1
  O  O290  1  0.61700829  0.86924480  0.86917602  1
  O  O291  1  0.37807457  0.11912084  0.13903229  1
  O  O292  1  0.38642450  0.12443339  0.63290349  1
  O  O293  1  0.37735229  0.62653844  0.14146969  1
  O  O294  1  0.37276495  0.63090797  0.63925202  1
  O  O295  1  0.88166388  0.13715737  0.12562710  1
  O  O296  1  0.87067895  0.12465508  0.63719466  1
  O  O297  1  0.88185445  0.63187636  0.13585978  1
  O  O298  1  0.87027753  0.62350208  0.64012290  1
  O  O299  1  0.24492848  0.25953457  0.11586782  1
  O  O300  1  0.25375812  0.25125520  0.61360537  1
  O  O301  1  0.24712738  0.75817777  0.12030194  1
  O  O302  1  0.26055694  0.75549905  0.61801324  1
  O  O303  1  0.75488297  0.26600948  0.11840715  1
  O  O304  1  0.74533781  0.25060833  0.60837807  1
  O  O305  1  0.74995101  0.74800267  0.10961943  1
  O  O306  1  0.75475269  0.75274363  0.61401975  1
  O  O307  1  0.25012299  0.24076698  0.38293130  1
  O  O308  1  0.23743613  0.25435933  0.88324212  1
  O  O309  1  0.24248975  0.75333964  0.38268035  1
  O  O310  1  0.25552103  0.74112382  0.88244986  1
  O  O311  1  0.73531337  0.25725825  0.38371176  1
  O  O312  1  0.75434990  0.23612273  0.87417308  1
  O  O313  1  0.74496683  0.74402973  0.38241582  1
  O  O314  1  0.74213352  0.74588462  0.88367108  1
  O  O315  1  0.00839607  0.13467063  0.01027489  1
  O  O316  1  0.02051627  0.14093625  0.50588184  1
  O  O317  1  0.00674853  0.62356142  0.00624894  1
  O  O318  1  0.01279438  0.62270678  0.49318584  1
  O  O319  1  0.50150268  0.11923082  0.00793550  1
  O  O320  1  0.50598745  0.12809791  0.51092731  1
  O  O321  1  0.51387176  0.63066109  0.00251547  1
  O  O322  1  0.51396482  0.61508760  0.49229617  1
  O  O323  1  0.49619047  0.37909071  0.49675037  1
  O  O324  1  0.50573501  0.38301115  1.01718243  1
  O  O325  1  0.51249428  0.87743880  0.50223946  1
  O  O326  1  0.49436813  0.87959637  0.99446732  1
  O  O327  1  0.99202861  0.36549478  0.49155524  1
  O  O328  1  0.99697160  0.38226952  0.99576799  1
  O  O329  1  0.99994130  0.88169035  0.50759945  1
  O  O330  1  0.98770202  0.87531720  0.98229467  1
  O  O331  1  0.48965323  0.49469788  0.38377958  1
  O  O332  1  0.48592970  0.50387473  0.87587762  1
  O  O333  1  0.48439758  0.99976822  0.36906837  1
  O  O334  1  0.48839133  0.99171662  0.88094677  1
  O  O335  1  0.99391763  0.48435381  0.37844619  1
  O  O336  1  0.99815800  0.49527524  0.88111079  1
  O  O337  1  0.97883517  1.04609922  0.38136313  1
  O  O338  1  0.98596431  0.99409826  0.86621252  1
  O  O339  1  0.01390632  0.01203141  0.12574984  1
  O  O340  1  0.00688840  0.01091653  0.64760328  1
  O  O341  1  0.00610432  0.50786782  0.12086458  1
  O  O342  1  0.01027533  0.49338858  0.61955677  1
  O  O343  1  0.49611925  0.00744075  0.12314781  1
  O  O344  1  0.50032713  0.01889622  0.63650333  1
  O  O345  1  0.50094081  0.50431639  0.13372366  1
  O  O346  1  0.49969008  0.49867723  0.61229803  1
  O  O347  1  0.24812812  0.38277744  0.24499162  1
  O  O348  1  0.24562815  0.38084988  0.75162688  1
  O  O349  1  0.24934018  0.88310284  0.23977354  1
  O  O350  1  0.25724909  0.88070905  0.73668587  1
  O  O351  1  0.74258708  0.37806787  0.24071771  1
  O  O352  1  0.74120454  0.37931110  0.74952340  1
  O  O353  1  0.74983078  0.86416657  0.24495312  1
  O  O354  1  0.74075699  0.88340858  0.75033833  1
  O  O355  1  0.25487832  0.12143537  0.25668490  1
  O  O356  1  0.26444819  0.11827785  0.74265604  1
  O  O357  1  0.25663589  0.61384600  0.24812884  1
  O  O358  1  0.26004709  0.61594847  0.75751155  1
  O  O359  1  0.75546641  0.12804687  0.22895826  1
  O  O360  1  0.75109292  0.12183346  0.75360079  1
  O  O361  1  0.76181727  0.62430766  0.25498071  1
  O  O362  1  0.75492188  0.61626023  0.75628635  1
  O  O363  1  0.36621518  0.11688137  0.36621829  1
  O  O364  1  0.37854108  0.11347346  0.86478688  1
  O  O365  1  0.37969147  0.61787962  0.36545579  1
  O  O366  1  0.36877725  0.61821967  0.86782960  1
  O  O367  1  0.85937232  0.15359258  0.34436705  1
  O  O368  1  0.86845258  0.11875590  0.86560482  1
  O  O369  1  0.87228113  0.61911508  0.37124591  1
  O  O370  1  0.86943731  0.61960291  0.86913964  1
  O  O371  1  0.13338116  0.38179076  0.13203467  1
  O  O372  1  0.13056345  0.37121958  0.63946994  1
  O  O373  1  0.12799034  0.88636638  0.11698249  1
  O  O374  1  0.14325931  0.87216929  0.62246868  1
  O  O375  1  0.62742119  0.38203330  0.12413698  1
  O  O376  1  0.62636838  0.37749868  0.63818401  1
  O  O377  1  0.62230165  0.87296711  0.14264304  1
  O  O378  1  0.62224426  0.87252683  0.63751299  1
  O  O379  1  0.11716930  0.25701538  0.24985673  1
  O  O380  1  0.12162537  0.25396507  0.75737860  1
  O  O381  1  0.11860635  0.74600971  0.26618060  1
  O  O382  1  0.12758811  0.73347610  0.76097588  1
  O  O383  1  0.61666424  0.25643821  0.25568121  1
  O  O384  1  0.61595606  0.25805020  0.74924303  1
  O  O385  1  0.62085484  0.75774515  0.25568016  1
  O  O386  1  0.63165975  0.75742197  0.76252763  1
  O  O387  1  0.38374401  0.24088317  0.25905019  1
  O  O388  1  0.38583854  0.24399227  0.75627991  1
  O  O389  1  0.38056642  0.74491362  0.25295383  1
  O  O390  1  0.37272112  0.73507693  0.74115426  1
  O  O391  1  0.88029231  0.25280280  0.23112632  1
  O  O392  1  0.88465351  0.24339266  0.75491082  1
  O  O393  1  0.89001264  0.74405391  0.25725228  1
  O  O394  1  0.86733623  0.73408222  0.75183774  1
  O  O395  1  0.38005078  0.49746558  0.49588580  1
  O  O396  1  0.37225109  0.49978987  0.98769832  1
  O  O397  1  0.37102875  1.00681243  0.48403089  1
  O  O398  1  0.37711931  0.99560655  0.99314776  1
  O  O399  1  0.87387114  0.48735791  0.49351936  1
  O  O400  1  0.88161722  0.49950435  0.99512735  1
  O  O401  1  0.87548531  0.98689999  0.50364115  1
  O  O402  1  0.87399663  1.01064586  0.97983690  1
  O  O403  1  0.13280324  0.01498483  0.00755456  1
  O  O404  1  0.13387177  0.01543731  0.50417832  1
  O  O405  1  0.12239793  0.50442020  0.00613172  1
  O  O406  1  0.12721248  0.51276170  0.49481136  1
  O  O407  1  0.61582619  0.00681670  0.00254363  1
  O  O408  1  0.63565680  0.01300167  0.49087061  1
  O  O409  1  0.62728087  0.50859925  -0.00252789  1
  O  O410  1  0.61849438  0.50582941  0.49936740  1
  O  O411  1  0.36233316  0.37908296  0.12185980  1
  O  O412  1  0.37591988  0.37907594  0.61228429  1
  O  O413  1  0.35914992  0.87544839  0.11828312  1
  O  O414  1  0.37242139  0.85693439  0.63213532  1
  O  O415  1  0.86812981  0.37323462  0.11842350  1
  O  O416  1  0.87324876  0.37400580  0.61269694  1
  O  O417  1  0.89590042  0.86794457  0.11917381  1
  O  O418  1  0.87104797  0.87298645  0.61293536  1
  O  O419  1  0.13906130  0.12438010  0.38357375  1
  O  O420  1  0.11738143  0.13254612  0.88236185  1
  O  O421  1  0.12948217  0.63434398  0.38767453  1
  O  O422  1  0.14223717  0.61741313  0.88386776  1
  O  O423  1  0.61596019  0.13489528  0.38211766  1
  O  O424  1  0.63142205  0.11697513  0.88176873  1
  O  O425  1  0.63207848  0.63624446  0.37842021  1
  O  O426  1  0.63010719  0.63350360  0.88068596  1
