# generated using pymatgen
data_V85Zn86O256
_symmetry_space_group_name_H-M   'P 1'
_cell_length_a   16.95247318
_cell_length_b   16.94388255
_cell_length_c   16.95484492
_cell_angle_alpha   89.96890482
_cell_angle_beta   90.01051240
_cell_angle_gamma   90.00237949
_symmetry_Int_Tables_number   1
_chemical_formula_structural   V85Zn86O256
_chemical_formula_sum   'V85 Zn86 O256'
_cell_volume   4870.12096341
_cell_formula_units_Z   1
loop_
 _symmetry_equiv_pos_site_id
 _symmetry_equiv_pos_as_xyz
  1  'x, y, z'
loop_
 _atom_site_type_symbol
 _atom_site_label
 _atom_site_symmetry_multiplicity
 _atom_site_fract_x
 _atom_site_fract_y
 _atom_site_fract_z
 _atom_site_occupancy
  V  V0  1  0.23648888  0.37720270  0.12728884  1
  V  V1  1  0.12682978  0.49733871  0.62227271  1
  V  V2  1  0.87098015  -0.00371219  0.87740668  1
  V  V3  1  0.86896675  0.37400401  0.50075111  1
  V  V4  1  0.50412207  0.00086104  0.51192593  1
  V  V5  1  0.37862119  0.00113676  0.87341013  1
  V  V6  1  0.74448143  0.49835180  0.25200173  1
  V  V7  1  0.87369427  0.25164877  0.12878149  1
  V  V8  1  0.00282397  0.00034086  0.50100392  1
  V  V9  1  0.49719133  0.36571681  0.37767760  1
  V  V10  1  0.25032367  0.62251764  0.37410018  1
  V  V11  1  0.86671260  0.86846639  0.49830565  1
  V  V12  1  0.25061625  0.87307799  0.62521047  1
  V  V13  1  0.12609846  0.75199300  0.37341762  1
  V  V14  1  0.12593867  0.74753290  0.87638243  1
  V  V15  1  0.62672452  0.86281427  0.74804802  1
  V  V16  1  0.38269512  0.74321873  0.62666378  1
  V  V17  1  0.37524533  0.13143304  0.23633939  1
  V  V18  1  0.74069932  -0.00222926  0.74190801  1
  V  V19  1  0.25096766  0.74814048  0.00049429  1
  V  V20  1  0.12592362  0.00195150  0.12523705  1
  V  V21  1  0.17998128  0.18219467  0.54733021  1
  V  V22  1  0.37571824  0.61910441  0.24755376  1
  V  V23  1  0.25033405  0.13019119  0.87642564  1
  V  V24  1  0.25234276  0.49519773  0.74547757  1
  V  V25  1  0.87859655  0.37865049  0.00135021  1
  V  V26  1  0.00240415  0.37474230  0.87409005  1
  V  V27  1  -0.00066773  0.00267222  0.00034674  1
  V  V28  1  0.74981404  0.25023541  0.00237934  1
  V  V29  1  0.69967037  0.42999561  0.07761123  1
  V  V30  1  -0.00001499  0.87645440  0.37489867  1
  V  V31  1  0.76848798  0.49658098  0.74368819  1
  V  V32  1  0.13101914  0.24725017  0.36964279  1
  V  V33  1  0.37715057  0.00625660  0.37478750  1
  V  V34  1  0.74978805  0.62914250  0.38212406  1
  V  V35  1  0.87468491  0.50069287  0.37332884  1
  V  V36  1  0.38445546  0.37620192  0.00977566  1
  V  V37  1  0.25335021  -0.00064342  0.75099031  1
  V  V38  1  0.24958336  0.75032910  0.50113242  1
  V  V39  1  0.37838956  0.74802265  0.12421359  1
  V  V40  1  0.00190148  0.25519709  0.24934731  1
  V  V41  1  0.62985526  0.12481458  0.48979856  1
  V  V42  1  -0.00221045  0.24817102  0.75464943  1
  V  V43  1  0.62842965  0.75110981  0.38241291  1
  V  V44  1  0.49967402  0.87727132  0.37489098  1
  V  V45  1  0.62063840  0.12669917  0.00533329  1
  V  V46  1  0.62891305  0.49991717  0.62841498  1
  V  V47  1  0.62609768  0.87856527  0.24884504  1
  V  V48  1  0.74873960  0.24566344  0.48312002  1
  V  V49  1  0.38328079  0.49749126  0.87560186  1
  V  V50  1  0.50312478  0.24608661  0.23776677  1
  V  V51  1  0.12657867  0.87654507  0.24883657  1
  V  V52  1  0.36541235  0.35911546  0.51077357  1
  V  V53  1  0.75409959  0.01539914  0.24999112  1
  V  V54  1  0.00604575  0.37720123  0.37202403  1
  V  V55  1  0.00181763  0.87473026  0.87984699  1
  V  V56  1  0.25140218  0.87517875  0.12545942  1
  V  V57  1  -0.00350179  0.12540478  0.62096685  1
  V  V58  1  0.37722314  0.87475057  -0.00089941  1
  V  V59  1  0.50756747  0.60797821  0.12072748  1
  V  V60  1  0.49734630  0.50533140  0.50332159  1
  V  V61  1  -0.00228244  0.61890422  0.12761590  1
  V  V62  1  0.50714676  0.14231431  0.62842065  1
  V  V63  1  0.12625806  0.61624415  0.00695772  1
  V  V64  1  -0.00669365  0.62706767  0.62819754  1
  V  V65  1  0.38281289  0.13764944  0.74570976  1
  V  V66  1  0.23642427  0.49715665  0.24530794  1
  V  V67  1  -0.00315951  0.12592519  0.13292174  1
  V  V68  1  0.62966246  0.37164307  0.26000841  1
  V  V69  1  0.50120318  0.00342198  0.00663041  1
  V  V70  1  0.12424275  -0.00129904  0.62253687  1
  V  V71  1  0.87360193  0.01551375  0.37218945  1
  V  V72  1  0.25117015  0.62057459  0.87492334  1
  V  V73  1  0.50063262  0.74849431  0.24975522  1
  V  V74  1  0.25483777  0.25162793  0.00488322  1
  V  V75  1  0.74808804  0.12519108  0.87529340  1
  V  V76  1  -0.00766462  0.75234146  0.24356994  1
  V  V77  1  0.50673439  0.86758280  0.87657979  1
  V  V78  1  0.75780944  0.86638286  0.12974905  1
  V  V79  1  0.12355533  0.13149439  -0.00448696  1
  V  V80  1  0.12462720  0.87146656  0.75136122  1
  V  V81  1  0.50036214  0.36671343  0.85800628  1
  V  V82  1  0.74910517  0.74769617  -0.01106008  1
  V  V83  1  0.86284873  0.25145131  0.62651422  1
  V  V84  1  0.12894955  0.37127428  0.75082610  1
  Zn  Zn85  1  0.25191853  0.00350514  0.25076633  1
  Zn  Zn86  1  0.62215667  0.62919192  0.50435519  1
  Zn  Zn87  1  0.50443970  0.74134662  0.75281182  1
  Zn  Zn88  1  0.63492693  0.36149766  0.72677425  1
  Zn  Zn89  1  -0.01210912  0.73548269  0.76138315  1
  Zn  Zn90  1  0.87770948  0.87055808  0.00753287  1
  Zn  Zn91  1  0.62219651  0.62894587  -0.00256895  1
  Zn  Zn92  1  0.12487088  0.62262841  0.50100946  1
  Zn  Zn93  1  0.37646158  0.87680597  0.49999867  1
  Zn  Zn94  1  0.88156100  0.51299717  0.87268864  1
  Zn  Zn95  1  0.86828457  0.63301280  0.24702558  1
  Zn  Zn96  1  0.62557156  0.00500284  0.12757775  1
  Zn  Zn97  1  0.00035723  0.50184241  0.49872754  1
  Zn  Zn98  1  0.25050615  0.12871385  0.37601033  1
  Zn  Zn99  1  0.62249759  0.25181689  0.86872560  1
  Zn  Zn100  1  0.75126912  0.62665885  0.86277052  1
  Zn  Zn101  1  0.37320448  0.49394838  0.37717056  1
  Zn  Zn102  1  0.87456382  0.12031865  0.74916859  1
  Zn  Zn103  1  0.37934923  0.61819571  0.74354182  1
  Zn  Zn104  1  0.86102609  0.74401235  0.62931217  1
  Zn  Zn105  1  0.00631645  0.49588319  0.00356855  1
  Zn  Zn106  1  0.73745965  0.86845570  0.61160837  1
  Zn  Zn107  1  0.18825842  0.19060733  0.18701290  1
  Zn  Zn108  1  0.18815370  0.18940485  0.70919846  1
  Zn  Zn109  1  0.18534540  0.68746773  0.18715031  1
  Zn  Zn110  1  0.18702091  0.68277540  0.68854261  1
  Zn  Zn111  1  0.68523939  0.19330680  0.18550432  1
  Zn  Zn112  1  0.68364853  0.18273984  0.68511573  1
  Zn  Zn113  1  0.68407170  0.68627143  0.19228718  1
  Zn  Zn114  1  0.68934278  0.68097143  0.68101721  1
  Zn  Zn115  1  0.31559514  0.31283781  0.31022495  1
  Zn  Zn116  1  0.31245776  0.31301723  0.81565325  1
  Zn  Zn117  1  0.31495512  0.81303630  0.31214344  1
  Zn  Zn118  1  0.31456567  0.81066804  0.81320146  1
  Zn  Zn119  1  0.81665775  0.31241907  0.31039762  1
  Zn  Zn120  1  0.80963638  0.31824486  0.81228217  1
  Zn  Zn121  1  0.81157654  0.81838929  0.31658678  1
  Zn  Zn122  1  0.81318161  0.81079907  0.81357321  1
  Zn  Zn123  1  0.18935180  0.43477618  0.43671527  1
  Zn  Zn124  1  0.18900033  0.43446223  0.93418476  1
  Zn  Zn125  1  0.18998403  0.94014180  0.43684799  1
  Zn  Zn126  1  0.18912035  0.94068981  0.93898887  1
  Zn  Zn127  1  0.68521111  0.43674874  0.44033175  1
  Zn  Zn128  1  0.66300522  0.47398194  0.90342519  1
  Zn  Zn129  1  0.68719253  0.94696471  0.43152154  1
  Zn  Zn130  1  0.68571573  0.93454303  0.93958342  1
  Zn  Zn131  1  0.31314671  0.06116221  0.06206193  1
  Zn  Zn132  1  0.32248640  0.06102776  0.56693498  1
  Zn  Zn133  1  0.31477470  0.55705005  0.06250813  1
  Zn  Zn134  1  0.31276659  0.55780315  0.56033365  1
  Zn  Zn135  1  0.81103590  0.06242638  0.06592748  1
  Zn  Zn136  1  0.81342858  0.06006304  0.56108730  1
  Zn  Zn137  1  0.82134328  0.57229785  0.05773109  1
  Zn  Zn138  1  0.81015104  0.56125586  0.56215623  1
  Zn  Zn139  1  0.43480912  0.43319289  0.19068277  1
  Zn  Zn140  1  0.43726428  0.43477907  0.68074914  1
  Zn  Zn141  1  0.43759401  0.94059052  0.18780048  1
  Zn  Zn142  1  0.43829656  0.93284069  0.68927903  1
  Zn  Zn143  1  0.93642212  0.43807643  0.18877748  1
  Zn  Zn144  1  0.94314863  0.43345695  0.68061949  1
  Zn  Zn145  1  0.93613233  0.94109675  0.19075250  1
  Zn  Zn146  1  0.92115582  0.90797520  0.70184610  1
  Zn  Zn147  1  0.06417261  0.06554086  0.31405353  1
  Zn  Zn148  1  0.06290715  0.06094460  0.81125409  1
  Zn  Zn149  1  0.06199362  0.56517247  0.31220841  1
  Zn  Zn150  1  0.06281668  0.55931871  0.81255506  1
  Zn  Zn151  1  0.56068905  0.06495202  0.31197265  1
  Zn  Zn152  1  0.56314350  0.06251429  0.81408347  1
  Zn  Zn153  1  0.56226482  0.55841794  0.31644469  1
  Zn  Zn154  1  0.56366941  0.56639071  0.80591782  1
  Zn  Zn155  1  0.44080811  0.18727419  0.43528012  1
  Zn  Zn156  1  0.43608539  0.19029858  0.93861478  1
  Zn  Zn157  1  0.43513223  0.68833294  0.43645405  1
  Zn  Zn158  1  0.43917683  0.68230965  0.93786282  1
  Zn  Zn159  1  0.94242051  0.19108851  0.43968982  1
  Zn  Zn160  1  0.93383003  0.18799666  0.93707320  1
  Zn  Zn161  1  0.94044565  0.68610234  0.43806812  1
  Zn  Zn162  1  0.93198765  0.68852519  0.94422584  1
  Zn  Zn163  1  0.06440041  0.30941390  0.06058280  1
  Zn  Zn164  1  0.05407528  0.31835929  0.56501639  1
  Zn  Zn165  1  0.06370752  0.80913452  0.06334432  1
  Zn  Zn166  1  0.06027553  0.81061158  0.56238693  1
  Zn  Zn167  1  0.56170045  0.30992020  0.06021100  1
  Zn  Zn168  1  0.56521447  0.31443127  0.55386975  1
  Zn  Zn169  1  0.56606439  0.81150314  0.06470936  1
  Zn  Zn170  1  0.56313979  0.81686775  0.56421880  1
  O  O171  1  0.11850464  0.12129970  0.11729760  1
  O  O172  1  0.12202272  0.12371839  0.61935979  1
  O  O173  1  0.11536236  0.62925031  0.11704360  1
  O  O174  1  0.11947411  0.61274829  0.62410492  1
  O  O175  1  0.62807043  0.12529672  0.10943765  1
  O  O176  1  0.61127301  0.12175221  0.61709858  1
  O  O177  1  0.60960121  0.62516155  0.12816216  1
  O  O178  1  0.62246614  0.60725948  0.61879635  1
  O  O179  1  0.38318974  0.37615573  0.37791943  1
  O  O180  1  0.38385202  0.37726624  0.88215643  1
  O  O181  1  0.38347467  0.88381437  0.37358166  1
  O  O182  1  0.37992705  0.88191158  0.88104968  1
  O  O183  1  0.88469877  0.38166476  0.37920908  1
  O  O184  1  0.88791703  0.37372243  0.88373707  1
  O  O185  1  0.88193175  0.88471746  0.38352284  1
  O  O186  1  0.88163408  0.88231838  0.88290773  1
  O  O187  1  0.26469517  0.00082527  0.37239635  1
  O  O188  1  0.25858105  0.00976775  0.87350092  1
  O  O189  1  0.25159398  0.50779387  0.36671520  1
  O  O190  1  0.25795564  0.49978035  0.86432284  1
  O  O191  1  0.76068487  0.00053273  0.36187163  1
  O  O192  1  0.75544893  0.00544738  0.87328101  1
  O  O193  1  0.75539003  0.50551632  0.36879077  1
  O  O194  1  0.76485355  0.49214994  0.85451565  1
  O  O195  1  0.25185364  0.48778931  0.13076933  1
  O  O196  1  0.24340796  0.50397209  0.63752840  1
  O  O197  1  0.24400049  0.99368069  0.12608247  1
  O  O198  1  0.24548101  0.99321191  0.62895594  1
  O  O199  1  0.75836997  0.49700563  0.13199150  1
  O  O200  1  0.74009638  0.49971031  0.62947154  1
  O  O201  1  0.74772681  0.99090834  0.13303657  1
  O  O202  1  0.75580315  0.99407224  0.64056921  1
  O  O203  1  -0.00308541  0.36769766  0.25858306  1
  O  O204  1  0.00520943  0.36762002  0.75588029  1
  O  O205  1  0.00587567  0.86999250  0.25326193  1
  O  O206  1  0.01816764  0.88499878  0.76138624  1
  O  O207  1  0.50494424  0.36601938  0.25499088  1
  O  O208  1  0.49923115  0.37181139  0.75712133  1
  O  O209  1  0.50824097  0.87291114  0.25427639  1
  O  O210  1  0.51110891  0.87220381  0.75824568  1
  O  O211  1  0.49330500  0.13826708  0.25159351  1
  O  O212  1  0.49735492  0.12101132  0.73802634  1
  O  O213  1  0.49280424  0.62605721  0.24374868  1
  O  O214  1  0.49034018  0.63042770  0.75786879  1
  O  O215  1  1.00268154  0.13042400  0.23691366  1
  O  O216  1  0.99985806  0.13007929  0.74046041  1
  O  O217  1  1.00083536  0.63346946  0.24104087  1
  O  O218  1  1.00493115  0.62339552  0.73494381  1
  O  O219  1  0.36355902  0.26153475  -0.00302355  1
  O  O220  1  0.37730409  0.25954769  0.49561109  1
  O  O221  1  0.37005887  0.75460727  0.00517099  1
  O  O222  1  0.36561483  0.75184360  0.50763536  1
  O  O223  1  0.86917712  0.26025661  0.00423087  1
  O  O224  1  0.86992100  0.25463454  0.50551935  1
  O  O225  1  0.85572116  0.75545123  0.00524751  1
  O  O226  1  0.87952462  0.76654478  0.49622383  1
  O  O227  1  0.11967593  0.24817129  0.49354707  1
  O  O228  1  0.13532355  0.23801084  1.00118150  1
  O  O229  1  0.13685017  0.74979827  0.49454341  1
  O  O230  1  0.13290249  0.74079494  0.99538353  1
  O  O231  1  0.63577917  0.23730957  0.50275079  1
  O  O232  1  0.63297331  0.24527102  0.99492541  1
  O  O233  1  0.61663796  0.75039895  0.48626224  1
  O  O234  1  0.64242383  0.74982867  1.00745425  1
  O  O235  1  0.49880488  0.25441077  0.13892596  1
  O  O236  1  0.50589243  0.24049360  0.62331123  1
  O  O237  1  0.49359427  0.74657092  0.13242581  1
  O  O238  1  0.48454350  0.75490652  0.62361782  1
  O  O239  1  0.99699975  0.24475827  0.13073166  1
  O  O240  1  0.99185127  0.24218143  0.63299316  1
  O  O241  1  1.00568197  0.74135675  0.13574268  1
  O  O242  1  1.00347095  0.73368235  0.62600774  1
  O  O243  1  0.00604229  0.25676343  0.36710491  1
  O  O244  1  -0.00626956  0.25270928  0.86111246  1
  O  O245  1  0.00848550  0.75556863  0.36851309  1
  O  O246  1  0.00693148  0.75659706  0.87780384  1
  O  O247  1  0.49864533  0.26112035  0.36438753  1
  O  O248  1  0.49987780  0.26371949  0.87617062  1
  O  O249  1  0.50374900  0.75624550  0.36819873  1
  O  O250  1  0.49185531  0.76443781  0.87691560  1
  O  O251  1  0.24682472  0.12081941  0.49836617  1
  O  O252  1  0.24682508  0.13194672  0.99634129  1
  O  O253  1  0.24957393  0.63091841  0.49004867  1
  O  O254  1  0.24442774  0.62784724  0.99781463  1
  O  O255  1  0.73697039  0.12628562  0.50355997  1
  O  O256  1  0.74523450  0.13141994  0.99354775  1
  O  O257  1  0.74612977  0.62009073  0.48514242  1
  O  O258  1  0.74610312  0.64088939  1.00716889  1
  O  O259  1  0.25458347  0.36861851  0.00694029  1
  O  O260  1  0.26712245  0.37741124  0.49450355  1
  O  O261  1  0.25636486  0.86996769  0.00544818  1
  O  O262  1  0.25234471  0.86636218  0.50445186  1
  O  O263  1  0.75634531  0.37040241  0.00872648  1
  O  O264  1  0.76123899  0.36457720  0.49121865  1
  O  O265  1  0.74782865  0.86738932  0.01476094  1
  O  O266  1  0.76249371  0.88417908  0.49445249  1
  O  O267  1  0.13747951  0.50398512  0.25185439  1
  O  O268  1  0.13264787  0.49136812  0.74520612  1
  O  O269  1  0.12680831  0.99501823  0.24325698  1
  O  O270  1  0.13442053  0.99526098  0.74321803  1
  O  O271  1  0.63689911  0.49089472  0.25338937  1
  O  O272  1  0.62298861  0.48942625  0.73442724  1
  O  O273  1  0.63138146  0.99483131  0.25069220  1
  O  O274  1  0.63768573  0.99374524  0.75577919  1
  O  O275  1  0.37913856  0.01439212  0.25578548  1
  O  O276  1  0.37063240  0.00403343  0.75576821  1
  O  O277  1  0.36800354  0.51020268  0.25128177  1
  O  O278  1  0.36729538  0.49516597  0.75461245  1
  O  O279  1  0.86656290  0.00035708  0.25893350  1
  O  O280  1  0.86408736  -0.00633279  0.76333462  1
  O  O281  1  0.86452829  0.49861329  0.26052132  1
  O  O282  1  0.87027904  0.49820075  0.74080516  1
  O  O283  1  0.11148780  0.36841081  0.38114506  1
  O  O284  1  0.11233327  0.37689450  0.86706892  1
  O  O285  1  0.12050528  0.87223971  0.36846412  1
  O  O286  1  0.12421237  0.86998069  0.87113553  1
  O  O287  1  0.61670446  0.37670390  0.36562263  1
  O  O288  1  0.60411665  0.37842980  0.87799438  1
  O  O289  1  0.62218493  0.87126595  0.36544488  1
  O  O290  1  0.61638562  0.87940010  0.86426738  1
  O  O291  1  0.37558954  0.12183937  0.13760627  1
  O  O292  1  0.39266968  0.12151095  0.63368742  1
  O  O293  1  0.38331213  0.62733907  0.13015575  1
  O  O294  1  0.36708558  0.64007855  0.62341193  1
  O  O295  1  0.88623558  0.13863911  0.11403973  1
  O  O296  1  0.88221137  0.12967013  0.62811761  1
  O  O297  1  0.89220650  0.62742784  0.12979143  1
  O  O298  1  0.88881827  0.62670758  0.61777811  1
  O  O299  1  0.24756050  0.26318789  0.11752368  1
  O  O300  1  0.23255439  0.23552435  0.61144190  1
  O  O301  1  0.25763234  0.75408269  0.12031656  1
  O  O302  1  0.25293539  0.75362058  0.61758863  1
  O  O303  1  0.75998941  0.24556906  0.11297669  1
  O  O304  1  0.76171125  0.24074282  0.61547359  1
  O  O305  1  0.74800265  0.76469933  0.13333944  1
  O  O306  1  0.74881399  0.75556876  0.62441150  1
  O  O307  1  0.23461953  0.25330752  0.36636001  1
  O  O308  1  0.25258788  0.23682169  0.88337643  1
  O  O309  1  0.24779067  0.74454095  0.38144854  1
  O  O310  1  0.24733988  0.74215681  0.88134575  1
  O  O311  1  0.75983515  0.24445273  0.38408063  1
  O  O312  1  0.75514647  0.24249087  0.88730766  1
  O  O313  1  0.74015962  0.74251232  0.36706603  1
  O  O314  1  0.74688553  0.75058516  0.88529761  1
  O  O315  1  0.00807710  0.12361579  0.00449838  1
  O  O316  1  -0.00175205  0.11833509  0.51289120  1
  O  O317  1  0.00752887  0.62615959  0.01369209  1
  O  O318  1  0.00558018  0.62233118  0.50942331  1
  O  O319  1  0.50834192  0.11687765  -0.00934805  1
  O  O320  1  0.50710420  0.12145283  0.50978046  1
  O  O321  1  0.50299910  0.62563512  0.01561000  1
  O  O322  1  0.49921535  0.60865739  0.48918409  1
  O  O323  1  0.49236504  0.38115460  0.49129292  1
  O  O324  1  0.48597330  0.37094761  0.99856523  1
  O  O325  1  0.50050064  0.88453529  0.49241503  1
  O  O326  1  0.49816100  0.88118329  0.99477359  1
  O  O327  1  0.98713025  0.37738764  0.49057524  1
  O  O328  1  0.99631513  0.37321868  0.99259652  1
  O  O329  1  0.99395987  0.88183765  0.49442427  1
  O  O330  1  1.00123503  0.88322542  0.99763865  1
  O  O331  1  0.49775576  0.48822213  0.38320664  1
  O  O332  1  0.48664307  0.48728933  0.87031129  1
  O  O333  1  0.49130763  0.99796149  0.38099145  1
  O  O334  1  0.49520396  0.99102537  0.88284385  1
  O  O335  1  0.99277474  0.49528210  0.37410399  1
  O  O336  1  0.99799527  0.49009262  0.87868837  1
  O  O337  1  0.99701913  0.99569124  0.38149712  1
  O  O338  1  0.99244897  0.99752357  0.88145779  1
  O  O339  1  0.00294696  0.00838101  0.11986518  1
  O  O340  1  0.00641404  0.00755948  0.61944777  1
  O  O341  1  0.00065908  0.51395512  0.12640145  1
  O  O342  1  0.00773412  0.51003272  0.62168903  1
  O  O343  1  0.50315591  -0.00401375  0.11046711  1
  O  O344  1  0.49517030  -0.00073435  0.61315584  1
  O  O345  1  0.49694914  0.50988679  0.12937531  1
  O  O346  1  0.50572736  0.49731350  0.60914108  1
  O  O347  1  0.25592477  0.38151766  0.23472598  1
  O  O348  1  0.23767803  0.37828905  0.75608540  1
  O  O349  1  0.24622085  0.87675059  0.24238435  1
  O  O350  1  0.24099605  0.87922281  0.74840826  1
  O  O351  1  0.74094880  0.38054892  0.25534220  1
  O  O352  1  0.75112336  0.38924254  0.74389268  1
  O  O353  1  0.74456773  0.88286375  0.24335200  1
  O  O354  1  0.73717963  0.88358884  0.75608808  1
  O  O355  1  0.26381100  0.12616685  0.25004105  1
  O  O356  1  0.25833494  0.11762857  0.75921694  1
  O  O357  1  0.25639499  0.61975803  0.25305398  1
  O  O358  1  0.25358567  0.61406354  0.75824662  1
  O  O359  1  0.74575533  0.11419864  0.24134377  1
  O  O360  1  0.75125128  0.11095096  0.75699630  1
  O  O361  1  0.75049705  0.61614451  0.25780579  1
  O  O362  1  0.74252240  0.60226055  0.74714361  1
  O  O363  1  0.37364879  0.11964232  0.36675305  1
  O  O364  1  0.37139020  0.11912924  0.86918349  1
  O  O365  1  0.36382865  0.62519399  0.36590096  1
  O  O366  1  0.36689444  0.61203581  0.88059482  1
  O  O367  1  0.88443147  0.11423342  0.37849153  1
  O  O368  1  0.86412646  0.11674447  0.87349643  1
  O  O369  1  0.86954531  0.61774739  0.37251530  1
  O  O370  1  0.86691133  0.62561306  0.88011050  1
  O  O371  1  0.13746777  0.37667555  0.11929047  1
  O  O372  1  0.11560292  0.38783263  0.63542323  1
  O  O373  1  0.13091578  0.88097079  0.12891773  1
  O  O374  1  0.12943215  0.87700878  0.63368435  1
  O  O375  1  0.63314058  0.37244134  0.13226332  1
  O  O376  1  0.62240561  0.39226210  0.61417953  1
  O  O377  1  0.63222672  0.87789147  0.13838666  1
  O  O378  1  0.62250897  0.87764936  0.64225921  1
  O  O379  1  0.11158214  0.24711651  0.25485966  1
  O  O380  1  0.11234855  0.26057612  0.74787038  1
  O  O381  1  0.11908141  0.75770043  0.25510553  1
  O  O382  1  0.12455450  0.75742510  0.75779066  1
  O  O383  1  0.61326633  0.25628681  0.24781922  1
  O  O384  1  0.63970262  0.25406060  0.75704035  1
  O  O385  1  0.61788434  0.75891676  0.25886338  1
  O  O386  1  0.62485013  0.76011236  0.75099503  1
  O  O387  1  0.38541950  0.23856731  0.25122109  1
  O  O388  1  0.36791220  0.23591114  0.75192630  1
  O  O389  1  0.37931846  0.73774154  0.24524885  1
  O  O390  1  0.37234859  0.75023996  0.73471053  1
  O  O391  1  0.88669960  0.25214550  0.24012232  1
  O  O392  1  0.87903518  0.24825682  0.74225643  1
  O  O393  1  0.88907833  0.75231321  0.25907605  1
  O  O394  1  0.89050331  0.78976465  0.73508457  1
  O  O395  1  0.38583213  0.49404326  0.49854187  1
  O  O396  1  0.36774298  0.48354765  0.98977789  1
  O  O397  1  0.38477513  0.99916588  0.49128459  1
  O  O398  1  0.38229171  0.99553156  0.99426900  1
  O  O399  1  0.87306270  0.49221787  0.48856330  1
  O  O400  1  0.87831053  0.48675896  1.00252103  1
  O  O401  1  0.88579243  0.99547674  0.49266302  1
  O  O402  1  0.87888098  0.99954667  0.99128685  1
  O  O403  1  0.12118223  0.01136654  0.00587208  1
  O  O404  1  0.11180732  -0.00689691  0.50535642  1
  O  O405  1  0.12633544  0.51275889  -0.00551219  1
  O  O406  1  0.12541966  0.49934063  0.50908168  1
  O  O407  1  0.61779380  0.00758055  0.00064997  1
  O  O408  1  0.61737087  0.01163177  0.49655824  1
  O  O409  1  0.64240907  0.48697106  0.01956743  1
  O  O410  1  0.61341637  0.50162907  0.50295454  1
  O  O411  1  0.36729419  0.37887503  0.11198936  1
  O  O412  1  0.37616920  0.37142224  0.61033032  1
  O  O413  1  0.37170866  0.87002138  0.11933369  1
  O  O414  1  0.36643736  0.86517382  0.62338954  1
  O  O415  1  0.88460367  0.36173440  0.11610853  1
  O  O416  1  0.88171892  0.36356261  0.61235949  1
  O  O417  1  0.86132874  0.87984491  0.12679560  1
  O  O418  1  0.87295155  0.88022864  0.60248503  1
  O  O419  1  0.12903663  0.13683028  0.37489717  1
  O  O420  1  0.13637785  0.11731633  0.88357631  1
  O  O421  1  0.13645711  0.63221486  0.37463340  1
  O  O422  1  0.13098809  0.62918439  0.88178829  1
  O  O423  1  0.61766657  0.12620724  0.39109626  1
  O  O424  1  0.63654336  0.12471457  0.88332182  1
  O  O425  1  0.63149914  0.63488839  0.37347409  1
  O  O426  1  0.63783453  0.58972771  0.88895596  1
