# generated using pymatgen
data_V85Zn86O256
_symmetry_space_group_name_H-M   'P 1'
_cell_length_a   16.92258868
_cell_length_b   16.91871120
_cell_length_c   16.92171971
_cell_angle_alpha   90.02013880
_cell_angle_beta   90.05514718
_cell_angle_gamma   89.97551818
_symmetry_Int_Tables_number   1
_chemical_formula_structural   V85Zn86O256
_chemical_formula_sum   'V85 Zn86 O256'
_cell_volume   4844.82735177
_cell_formula_units_Z   1
loop_
 _symmetry_equiv_pos_site_id
 _symmetry_equiv_pos_as_xyz
  1  'x, y, z'
loop_
 _atom_site_type_symbol
 _atom_site_label
 _atom_site_symmetry_multiplicity
 _atom_site_fract_x
 _atom_site_fract_y
 _atom_site_fract_z
 _atom_site_occupancy
  V  V0  1  0.75052817  0.00510513  0.75832704  1
  V  V1  1  0.49519945  0.74519494  0.23599786  1
  V  V2  1  -0.00044359  0.87007953  0.36885968  1
  V  V3  1  0.49823485  -0.00002137  0.49828943  1
  V  V4  1  0.88783484  0.62647513  0.24697402  1
  V  V5  1  0.62492130  0.12918508  0.49487438  1
  V  V6  1  0.62240411  0.24749148  0.37053232  1
  V  V7  1  0.24627790  0.37031598  0.11523493  1
  V  V8  1  0.62514198  0.00204447  0.12501827  1
  V  V9  1  0.87241520  0.00081567  0.37575078  1
  V  V10  1  0.62099506  0.36805076  0.24642437  1
  V  V11  1  0.11613218  0.25682674  0.37137364  1
  V  V12  1  0.49137728  0.49931561  0.00044940  1
  V  V13  1  0.74973986  0.74827481  0.49974909  1
  V  V14  1  0.25207322  0.25106789  0.50336497  1
  V  V15  1  0.75377829  0.24811281  -0.00944304  1
  V  V16  1  0.75087456  0.74791385  -0.00014237  1
  V  V17  1  0.74904023  0.62236775  0.86741290  1
  V  V18  1  0.74823031  0.00401444  0.25640874  1
  V  V19  1  0.62185775  0.74659469  0.37265863  1
  V  V20  1  0.88356365  0.62436241  0.74427015  1
  V  V21  1  0.37697070  0.62438143  0.23434075  1
  V  V22  1  0.24320621  0.00239613  0.24359366  1
  V  V23  1  0.49895620  0.37112833  0.37173878  1
  V  V24  1  0.25288724  0.00326217  0.74603520  1
  V  V25  1  0.11482213  0.37374384  0.24761918  1
  V  V26  1  -0.00028141  0.25902457  0.74594976  1
  V  V27  1  0.87144345  0.50020194  0.87237659  1
  V  V28  1  0.00326869  0.11019217  0.12129499  1
  V  V29  1  0.12408846  0.87444497  0.75139178  1
  V  V30  1  0.49352852  0.63385187  0.63238844  1
  V  V31  1  0.25177743  0.50270360  0.74954267  1
  V  V32  1  0.37206989  0.00128233  0.37069703  1
  V  V33  1  0.00841959  0.37791696  0.87420858  1
  V  V34  1  0.24532769  0.49525538  0.24535894  1
  V  V35  1  0.11445006  0.62489979  0.50125967  1
  V  V36  1  0.88734022  0.74540064  0.12735278  1
  V  V37  1  0.24470205  0.37288473  0.63258332  1
  V  V38  1  0.11530604  0.49906409  0.63231273  1
  V  V39  1  0.25116682  0.13681568  0.88156296  1
  V  V40  1  0.50216375  0.50042354  0.50501737  1
  V  V41  1  0.62951365  0.12538303  -0.00884985  1
  V  V42  1  0.87560695  0.37699797  -0.00100136  1
  V  V43  1  0.62259833  0.86810158  0.75059329  1
  V  V44  1  0.88025924  0.00882958  0.88033879  1
  V  V45  1  0.37309123  0.25506706  0.10560005  1
  V  V46  1  0.37402500  0.50130036  0.37444263  1
  V  V47  1  0.12840263  0.12570593  0.50085565  1
  V  V48  1  0.37732704  0.86863024  0.00904208  1
  V  V49  1  0.37524622  0.13828184  0.24946125  1
  V  V50  1  0.88432589  0.25274090  0.12505265  1
  V  V51  1  0.61937224  0.62503380  0.00204031  1
  V  V52  1  0.37617072  0.00260714  0.87832214  1
  V  V53  1  0.75701003  0.35601225  0.62340427  1
  V  V54  1  0.79247858  0.18438641  0.43187270  1
  V  V55  1  0.63496169  0.50032083  0.63353252  1
  V  V56  1  -0.00103384  0.48744849  0.49790934  1
  V  V57  1  0.37549919  0.13573313  0.74572181  1
  V  V58  1  0.61788533  0.50291933  0.12479773  1
  V  V59  1  0.74565949  0.50440745  0.24961978  1
  V  V60  1  0.12323145  0.74573802  0.87926591  1
  V  V61  1  0.24487814  0.87250983  0.12458583  1
  V  V62  1  0.49666749  0.87127550  0.37234219  1
  V  V63  1  0.75027104  0.87424273  0.12497425  1
  V  V64  1  0.49608023  0.37300585  0.87655955  1
  V  V65  1  0.50260311  0.13357512  0.12881187  1
  V  V66  1  0.12614227  0.11879008  0.00326057  1
  V  V67  1  0.25153765  0.74818104  0.49737932  1
  V  V68  1  0.12233015  0.74795241  0.36472305  1
  V  V69  1  0.30497317  0.81757167  0.66769184  1
  V  V70  1  0.00014972  0.50467526  0.01283451  1
  V  V71  1  0.12834555  -0.00476526  0.62404501  1
  V  V72  1  0.49923497  0.86778340  0.87274531  1
  V  V73  1  0.36972333  0.87300296  0.50039326  1
  V  V74  1  0.00209945  -0.00244711  0.50040662  1
  V  V75  1  0.49744762  0.13592315  0.62248897  1
  V  V76  1  0.88283106  0.87613320  -0.00153956  1
  V  V77  1  0.87705424  0.13086579  0.24903792  1
  V  V78  1  0.87794270  0.49306187  0.37474415  1
  V  V79  1  0.62537942  0.00050871  0.62453313  1
  V  V80  1  0.12101087  0.62297324  0.01707673  1
  V  V81  1  0.37579699  0.37272286  0.51046631  1
  V  V82  1  0.87613839  0.87231331  0.50040915  1
  V  V83  1  0.75137860  0.87218174  0.62771580  1
  V  V84  1  -0.00616995  0.12591806  0.63039029  1
  Zn  Zn85  1  0.00276762  0.74924534  0.74484660  1
  Zn  Zn86  1  0.12698502  0.25314936  0.87682369  1
  Zn  Zn87  1  0.87049509  0.36047553  0.49701126  1
  Zn  Zn88  1  0.11781161  0.87806956  0.24378164  1
  Zn  Zn89  1  0.24875500  0.62229565  0.37375155  1
  Zn  Zn90  1  0.88614551  0.74467727  0.62115200  1
  Zn  Zn91  1  0.24790144  0.12845130  0.37231131  1
  Zn  Zn92  1  0.74989288  0.62456698  0.37445848  1
  Zn  Zn93  1  0.25458029  0.74184511  0.00802058  1
  Zn  Zn94  1  0.50317714  0.25566148  0.74603899  1
  Zn  Zn95  1  0.37269351  0.63931695  0.75007371  1
  Zn  Zn96  1  0.63267184  0.37450327  0.75344566  1
  Zn  Zn97  1  0.62280564  0.87303803  0.24796932  1
  Zn  Zn98  1  0.62468300  0.62349722  0.50133800  1
  Zn  Zn99  1  0.24972641  0.62295388  0.87714619  1
  Zn  Zn100  1  0.37327830  0.50290473  0.87447455  1
  Zn  Zn101  1  0.00419186  0.87951928  0.87918125  1
  Zn  Zn102  1  0.62927800  0.25036925  0.87071204  1
  Zn  Zn103  1  0.62115101  0.74580557  0.87090782  1
  Zn  Zn104  1  0.50088888  0.00064244  0.00121845  1
  Zn  Zn105  1  0.74832433  0.37407263  0.12151646  1
  Zn  Zn106  1  0.87034120  0.13125342  0.75303960  1
  Zn  Zn107  1  0.18698001  0.19012068  0.18481032  1
  Zn  Zn108  1  0.18092781  0.18918836  0.69068329  1
  Zn  Zn109  1  0.19325966  0.68829590  0.18934516  1
  Zn  Zn110  1  0.17706308  0.67989725  0.68864813  1
  Zn  Zn111  1  0.69492141  0.18949058  0.18184361  1
  Zn  Zn112  1  0.68471509  0.18735466  0.68815260  1
  Zn  Zn113  1  0.68672784  0.68661550  0.18533163  1
  Zn  Zn114  1  0.68828149  0.68446585  0.68520473  1
  Zn  Zn115  1  0.30640069  0.31564487  0.31593172  1
  Zn  Zn116  1  0.31718510  0.31684623  0.81371151  1
  Zn  Zn117  1  0.31114239  0.80999059  0.30867048  1
  Zn  Zn118  1  0.30706457  0.81408798  0.83237404  1
  Zn  Zn119  1  0.81327395  0.31958895  0.30321704  1
  Zn  Zn120  1  0.81604994  0.31540305  0.80676001  1
  Zn  Zn121  1  0.81148975  0.81140171  0.31088054  1
  Zn  Zn122  1  0.81392480  0.81153177  0.81430162  1
  Zn  Zn123  1  0.18717313  0.43684146  0.43831175  1
  Zn  Zn124  1  0.18560392  0.44398897  0.93918216  1
  Zn  Zn125  1  0.18922885  0.93338843  0.43507696  1
  Zn  Zn126  1  0.18856457  0.94198020  0.93970754  1
  Zn  Zn127  1  0.68934697  0.43508054  0.43966472  1
  Zn  Zn128  1  0.68544762  0.43672947  0.93703668  1
  Zn  Zn129  1  0.68497285  0.93430792  0.43627172  1
  Zn  Zn130  1  0.69059734  0.93694461  0.93724836  1
  Zn  Zn131  1  0.31219325  0.06209364  0.06348782  1
  Zn  Zn132  1  0.31378233  0.06352966  0.56241995  1
  Zn  Zn133  1  0.30572463  0.55784355  0.06351147  1
  Zn  Zn134  1  0.30958503  0.56335289  0.56439794  1
  Zn  Zn135  1  0.81227558  0.06394074  0.06246548  1
  Zn  Zn136  1  0.81376940  0.05588942  0.56916444  1
  Zn  Zn137  1  0.80921764  0.56236407  0.06298558  1
  Zn  Zn138  1  0.81368512  0.56144544  0.55977270  1
  Zn  Zn139  1  0.43557652  0.43476583  0.18558090  1
  Zn  Zn140  1  0.43927729  0.43993392  0.69033252  1
  Zn  Zn141  1  0.43660849  0.93998124  0.18848552  1
  Zn  Zn142  1  0.44335467  0.94603876  0.69038536  1
  Zn  Zn143  1  0.93540408  0.43814098  0.18857219  1
  Zn  Zn144  1  0.93057569  0.43745761  0.68616173  1
  Zn  Zn145  1  0.93262533  0.93643139  0.18824459  1
  Zn  Zn146  1  0.93751829  0.93688492  0.69021552  1
  Zn  Zn147  1  0.06062796  0.06618255  0.31194353  1
  Zn  Zn148  1  0.06283290  0.06482079  0.81497217  1
  Zn  Zn149  1  0.06337427  0.55737859  0.31406808  1
  Zn  Zn150  1  0.06297119  0.56006556  0.81702914  1
  Zn  Zn151  1  0.55947603  0.06390889  0.31042884  1
  Zn  Zn152  1  0.56049051  0.05968357  0.81001667  1
  Zn  Zn153  1  0.55872508  0.56256389  0.31238021  1
  Zn  Zn154  1  0.55932903  0.56170786  0.81174429  1
  Zn  Zn155  1  0.43567957  0.19016206  0.43709001  1
  Zn  Zn156  1  0.44322662  0.18629533  0.93753303  1
  Zn  Zn157  1  0.43639194  0.68448138  0.43799406  1
  Zn  Zn158  1  0.43547899  0.68508416  0.93574397  1
  Zn  Zn159  1  0.95585342  0.18516366  0.43558937  1
  Zn  Zn160  1  0.94423802  0.18898310  0.93930849  1
  Zn  Zn161  1  0.93736590  0.68358864  0.43368681  1
  Zn  Zn162  1  0.94090469  0.68834764  0.93551777  1
  Zn  Zn163  1  0.06511407  0.30656624  0.05879422  1
  Zn  Zn164  1  0.06259430  0.31306902  0.56402010  1
  Zn  Zn165  1  0.06467209  0.81274198  0.06421162  1
  Zn  Zn166  1  0.06459402  0.81015191  0.56201262  1
  Zn  Zn167  1  0.56182125  0.31259489  0.05884638  1
  Zn  Zn168  1  0.57068110  0.31498155  0.56075057  1
  Zn  Zn169  1  0.56381566  0.81412196  0.05925114  1
  Zn  Zn170  1  0.56240501  0.81296894  0.56039782  1
  O  O171  1  0.11105267  0.12868971  0.12242784  1
  O  O172  1  0.11744141  0.11375344  0.62239812  1
  O  O173  1  0.12442233  0.63063052  0.11602087  1
  O  O174  1  0.12643157  0.61103945  0.61304055  1
  O  O175  1  0.61901886  0.12182936  0.12046017  1
  O  O176  1  0.61851131  0.11902798  0.61503668  1
  O  O177  1  0.62784655  0.61599327  0.11453006  1
  O  O178  1  0.61693647  0.61482304  0.62387568  1
  O  O179  1  0.38108802  0.38329991  0.38176493  1
  O  O180  1  0.39020632  0.38098391  0.87438218  1
  O  O181  1  0.37715453  0.88224823  0.37855185  1
  O  O182  1  0.38104915  0.88463830  0.88310959  1
  O  O183  1  0.86884750  0.38847085  0.37593212  1
  O  O184  1  0.88144954  0.38469462  0.87902528  1
  O  O185  1  0.88087698  0.87808066  0.38012023  1
  O  O186  1  0.87703613  0.88193180  0.88366642  1
  O  O187  1  0.26082863  0.00188636  0.36960184  1
  O  O188  1  0.26129482  0.00518470  0.86463566  1
  O  O189  1  0.25902701  0.49645668  0.36667222  1
  O  O190  1  0.25024818  0.49886023  0.86387245  1
  O  O191  1  0.75345545  -0.00554278  0.36384641  1
  O  O192  1  0.76136646  -0.00463320  0.86698211  1
  O  O193  1  0.75348509  0.50292387  0.36690320  1
  O  O194  1  0.76222627  0.50818302  0.88270716  1
  O  O195  1  0.25496661  0.48608534  0.13768096  1
  O  O196  1  0.24063975  0.49225699  0.62914753  1
  O  O197  1  0.25418297  0.99093518  0.13430780  1
  O  O198  1  0.24431402  1.00670843  0.63742710  1
  O  O199  1  0.73740755  0.49798716  0.13070669  1
  O  O200  1  0.73569516  0.50311804  0.62127667  1
  O  O201  1  0.74120411  0.99770025  0.13300099  1
  O  O202  1  0.74330605  0.99024402  0.63221964  1
  O  O203  1  0.01501570  0.38012256  0.24587317  1
  O  O204  1  -0.00504749  0.36684073  0.75568100  1
  O  O205  1  -0.00056019  0.88162757  0.26385657  1
  O  O206  1  0.01574127  0.87781107  0.75281263  1
  O  O207  1  0.50849937  0.38195024  0.26033408  1
  O  O208  1  0.50276597  0.37555975  0.76167808  1
  O  O209  1  0.49789083  0.86703574  0.25708121  1
  O  O210  1  0.51020212  0.88220951  0.75894671  1
  O  O211  1  0.49147462  0.12247715  0.23635439  1
  O  O212  1  0.49297209  0.12453564  0.73983092  1
  O  O213  1  0.48971674  0.63200768  0.25219053  1
  O  O214  1  0.49629076  0.62552465  0.73747216  1
  O  O215  1  0.98645252  0.12122466  0.24130909  1
  O  O216  1  0.99814577  0.13180432  0.74431145  1
  O  O217  1  0.98625834  0.61861793  0.24985295  1
  O  O218  1  0.98633150  0.62547405  0.75615696  1
  O  O219  1  0.37322074  0.24804424  0.00755724  1
  O  O220  1  0.36551446  0.26025468  0.49670307  1
  O  O221  1  0.37331824  0.76439523  -0.00468320  1
  O  O222  1  0.35979747  0.75177670  0.49496259  1
  O  O223  1  0.87195587  0.25586037  0.00408301  1
  O  O224  1  0.86626404  0.24092098  0.48276762  1
  O  O225  1  0.86933780  0.75364425  0.00605224  1
  O  O226  1  0.86695588  0.75379964  0.49823022  1
  O  O227  1  0.12906002  0.24741091  0.49061006  1
  O  O228  1  0.11691748  0.23041856  0.99156263  1
  O  O229  1  0.13320877  0.74278411  0.49201520  1
  O  O230  1  0.12306922  0.73886980  0.99705683  1
  O  O231  1  0.62419280  0.23640033  0.49238103  1
  O  O232  1  0.63515185  0.24257149  0.99902663  1
  O  O233  1  0.63210073  0.74927042  0.49139509  1
  O  O234  1  0.63250812  0.74263178  0.99796433  1
  O  O235  1  0.48688881  0.24550527  0.12090938  1
  O  O236  1  0.50448910  0.23920179  0.62125370  1
  O  O237  1  0.50372215  0.75523724  0.13723348  1
  O  O238  1  0.50468580  0.73195551  0.61695917  1
  O  O239  1  0.98744270  0.24053249  0.12133487  1
  O  O240  1  1.00585155  0.24218048  0.63601357  1
  O  O241  1  0.98633451  0.75511084  0.12674145  1
  O  O242  1  0.99962534  0.75226777  0.62976016  1
  O  O243  1  0.01623917  0.25487566  0.37199691  1
  O  O244  1  -0.00059647  0.26153986  0.86725745  1
  O  O245  1  0.00847531  0.75881050  0.38071580  1
  O  O246  1  0.01144930  0.75656662  0.87159797  1
  O  O247  1  0.50418335  0.26411327  0.37921074  1
  O  O248  1  0.50256124  0.26260940  0.87629918  1
  O  O249  1  0.50556575  0.75339286  0.37169277  1
  O  O250  1  0.50102536  0.76370783  0.87633671  1
  O  O251  1  0.24559312  0.13318186  0.49954503  1
  O  O252  1  0.24461019  0.12117519  0.99142396  1
  O  O253  1  0.24050377  0.63028280  0.49642944  1
  O  O254  1  0.23517550  0.62326438  1.00136135  1
  O  O255  1  0.74285927  0.11753713  0.49843977  1
  O  O256  1  0.74092857  0.13376219  1.00497334  1
  O  O257  1  0.74855767  0.63714186  0.49713516  1
  O  O258  1  0.74208595  0.63064567  0.99219119  1
  O  O259  1  0.24226424  0.38067439  0.01561416  1
  O  O260  1  0.25725617  0.37044480  0.50844058  1
  O  O261  1  0.25700351  0.87773776  0.01175949  1
  O  O262  1  0.25666709  0.86482813  0.50044505  1
  O  O263  1  0.75776046  0.36904289  0.00107350  1
  O  O264  1  0.75199222  0.37755759  0.51524783  1
  O  O265  1  0.75776683  0.86582157  0.00441466  1
  O  O266  1  0.75342766  0.86557646  0.50463718  1
  O  O267  1  0.13536085  0.48886783  0.25640300  1
  O  O268  1  0.13272667  0.50537891  0.74018378  1
  O  O269  1  0.14002434  0.99938002  0.26020152  1
  O  O270  1  0.13434555  0.99443295  0.74666796  1
  O  O271  1  0.62761532  0.49521859  0.24394061  1
  O  O272  1  0.62342752  0.49858267  0.73620793  1
  O  O273  1  0.63173233  0.99992639  0.24408672  1
  O  O274  1  0.63277164  0.99207142  0.74665955  1
  O  O275  1  0.36773118  0.00997890  0.25557467  1
  O  O276  1  0.36913835  0.00894523  0.75667231  1
  O  O277  1  0.37043221  0.50393850  0.25676262  1
  O  O278  1  0.36031572  0.50091724  0.74736788  1
  O  O279  1  0.86711097  0.00721231  0.25722319  1
  O  O280  1  0.86789010  0.00005546  0.76260312  1
  O  O281  1  0.86639917  0.50756188  0.25341270  1
  O  O282  1  0.87713482  0.51206885  0.75957130  1
  O  O283  1  0.13130800  0.36374695  0.36741833  1
  O  O284  1  0.11166960  0.37742287  0.87876116  1
  O  O285  1  0.11659611  0.86663941  0.37354250  1
  O  O286  1  0.12785115  0.87086290  0.86801633  1
  O  O287  1  0.61805281  0.36995948  0.36814417  1
  O  O288  1  0.61469009  0.37518977  0.87212431  1
  O  O289  1  0.61646137  0.86379324  0.37222528  1
  O  O290  1  0.61662746  0.87589832  0.86888089  1
  O  O291  1  0.38103239  0.13647185  0.12895159  1
  O  O292  1  0.38550821  0.11913844  0.63348552  1
  O  O293  1  0.37076922  0.62204729  0.13518790  1
  O  O294  1  0.38907596  0.62093468  0.62637097  1
  O  O295  1  0.88407522  0.12899727  0.13020208  1
  O  O296  1  0.89050167  0.11709031  0.62714940  1
  O  O297  1  0.86941890  0.63037026  0.13752423  1
  O  O298  1  0.86756106  0.62382101  0.64173980  1
  O  O299  1  0.26500894  0.25486242  0.12734669  1
  O  O300  1  0.23875292  0.25713447  0.61376802  1
  O  O301  1  0.25193011  0.76685353  0.12587494  1
  O  O302  1  0.24154059  0.75055735  0.61644685  1
  O  O303  1  0.76360844  0.25204230  0.11239239  1
  O  O304  1  0.74866662  0.25662569  0.62062063  1
  O  O305  1  0.75495735  0.75266632  0.11459864  1
  O  O306  1  0.75198032  0.75494745  0.61585990  1
  O  O307  1  0.24298423  0.24962965  0.38910379  1
  O  O308  1  0.25071176  0.23979903  0.86886117  1
  O  O309  1  0.24084001  0.74814505  0.38084860  1
  O  O310  1  0.23557655  0.74814571  0.88725564  1
  O  O311  1  0.74158949  0.25076029  0.36778024  1
  O  O312  1  0.75308129  0.25406273  0.88611111  1
  O  O313  1  0.74006377  0.75030447  0.38047619  1
  O  O314  1  0.74920766  0.74302684  0.88692074  1
  O  O315  1  0.00269089  0.12199347  0.01484299  1
  O  O316  1  0.00960567  0.11688784  0.50906379  1
  O  O317  1  0.01035684  0.61889606  -0.00182302  1
  O  O318  1  0.01038150  0.61624060  0.49575063  1
  O  O319  1  0.50777621  0.12224498  0.01214882  1
  O  O320  1  0.50437649  0.11997327  0.50364362  1
  O  O321  1  0.51291487  0.61860892  -0.00710770  1
  O  O322  1  0.49939623  0.61244082  0.50690561  1
  O  O323  1  0.49430785  0.38290011  0.49706572  1
  O  O324  1  0.50577671  0.38515974  0.98771644  1
  O  O325  1  0.49204382  0.87982110  0.49299017  1
  O  O326  1  0.49405455  0.88002369  0.99345047  1
  O  O327  1  0.99266574  0.38323723  0.50212032  1
  O  O328  1  0.99473756  0.38174342  0.99330463  1
  O  O329  1  0.99696674  0.88077086  0.49039608  1
  O  O330  1  0.98651129  0.87286268  1.00176010  1
  O  O331  1  0.49547035  0.49076824  0.38390434  1
  O  O332  1  0.49935047  0.49235907  0.88251302  1
  O  O333  1  0.48881731  0.99402085  0.37589231  1
  O  O334  1  0.48820536  0.99398665  0.87552223  1
  O  O335  1  0.99027693  0.50132419  0.38379821  1
  O  O336  1  0.99018099  0.49459427  0.88229416  1
  O  O337  1  0.99315993  0.99635568  0.38223988  1
  O  O338  1  0.98462520  0.99765652  0.87144896  1
  O  O339  1  -0.00368609  0.01123630  0.12825169  1
  O  O340  1  0.00821404  0.00437800  0.62093090  1
  O  O341  1  -0.00594453  0.49871963  0.11180430  1
  O  O342  1  0.00797781  0.49435030  0.61767895  1
  O  O343  1  0.51249956  0.00710648  0.12622673  1
  O  O344  1  0.50752078  0.00909523  0.61676720  1
  O  O345  1  0.51003064  0.49385719  0.11760924  1
  O  O346  1  0.50929648  0.50439873  0.61941685  1
  O  O347  1  0.24366787  0.37983983  0.24333786  1
  O  O348  1  0.25374194  0.37791765  0.73719707  1
  O  O349  1  0.25170482  0.88276187  0.23868238  1
  O  O350  1  0.24612348  0.88056978  0.74392965  1
  O  O351  1  0.73973508  0.38849272  0.24556842  1
  O  O352  1  0.75049536  0.37267089  0.73167647  1
  O  O353  1  0.74886668  0.88385878  0.24249639  1
  O  O354  1  0.74471668  0.88233352  0.74657097  1
  O  O355  1  0.25752927  0.11888808  0.24920995  1
  O  O356  1  0.25685945  0.12023288  0.75488711  1
  O  O357  1  0.25708454  0.61451196  0.25246780  1
  O  O358  1  0.25150940  0.61611558  0.74923110  1
  O  O359  1  0.76268868  0.11544110  0.24311520  1
  O  O360  1  0.75229641  0.10941868  0.74136905  1
  O  O361  1  0.75143397  0.61368613  0.25034781  1
  O  O362  1  0.75689956  0.63026181  0.76362522  1
  O  O363  1  0.37494146  0.11836987  0.36700088  1
  O  O364  1  0.37167403  0.11994739  0.86975591  1
  O  O365  1  0.37454397  0.60948280  0.37294374  1
  O  O366  1  0.36927657  0.62358407  0.86804464  1
  O  O367  1  0.86954763  0.12518182  0.37143580  1
  O  O368  1  0.87775543  0.11199062  0.87786982  1
  O  O369  1  0.87161217  0.61751526  0.36149567  1
  O  O370  1  0.86935311  0.61960791  0.86957789  1
  O  O371  1  0.13465627  0.35931414  0.13586678  1
  O  O372  1  0.13393533  0.38599926  0.61868482  1
  O  O373  1  0.13841155  0.87681565  0.12620912  1
  O  O374  1  0.12503100  0.88856686  0.63133887  1
  O  O375  1  0.62451888  0.38107876  0.13166494  1
  O  O376  1  0.63503719  0.38559432  0.62513661  1
  O  O377  1  0.63070495  0.88536896  0.12515734  1
  O  O378  1  0.62803377  0.88074658  0.63105226  1
  O  O379  1  0.13402672  0.25648465  0.26468790  1
  O  O380  1  0.10682020  0.24605366  0.75802824  1
  O  O381  1  0.12911605  0.75321790  0.26154064  1
  O  O382  1  0.12769222  0.75850610  0.75878851  1
  O  O383  1  0.62994816  0.26200879  0.24862806  1
  O  O384  1  0.62098604  0.25238223  0.75367075  1
  O  O385  1  0.61713266  0.74968081  0.25637273  1
  O  O386  1  0.63259832  0.76399822  0.75100368  1
  O  O387  1  0.37098529  0.23975446  0.25285935  1
  O  O388  1  0.37971625  0.23869935  0.75106587  1
  O  O389  1  0.38309229  0.73629711  0.25724067  1
  O  O390  1  0.35649520  0.76125102  0.74023562  1
  O  O391  1  0.86930136  0.24217355  0.24027439  1
  O  O392  1  0.89230520  0.24538536  0.75429787  1
  O  O393  1  0.86844481  0.73450914  0.24367544  1
  O  O394  1  0.87664604  0.73677046  0.75145312  1
  O  O395  1  0.38006232  0.49261756  0.49421827  1
  O  O396  1  0.38863140  0.50713275  1.00114180  1
  O  O397  1  0.37858333  0.99643011  0.49061028  1
  O  O398  1  0.37693704  0.99391306  0.99245930  1
  O  O399  1  0.88367168  0.50445103  0.48996349  1
  O  O400  1  0.88030523  0.49773232  0.99423072  1
  O  O401  1  0.87900217  0.99282118  0.49355058  1
  O  O402  1  0.86601735  0.99166314  0.98827497  1
  O  O403  1  0.12322347  0.01646719  -0.00581932  1
  O  O404  1  0.12506141  0.00344224  0.50695845  1
  O  O405  1  0.11513898  0.51488136  -0.00054885  1
  O  O406  1  0.11621460  0.50460035  0.50253552  1
  O  O407  1  0.62729390  0.00715743  0.00851872  1
  O  O408  1  0.61828606  0.00827645  0.50027234  1
  O  O409  1  0.61897062  0.50681241  0.00751168  1
  O  O410  1  0.61633365  0.50090100  0.50732726  1
  O  O411  1  0.36850028  0.36010658  0.12778813  1
  O  O412  1  0.36897823  0.38008925  0.61462050  1
  O  O413  1  0.36668179  0.88248390  0.11669397  1
  O  O414  1  0.37595223  0.88027399  0.61959327  1
  O  O415  1  0.87366419  0.36823362  0.11934425  1
  O  O416  1  0.86151018  0.37546451  0.61847911  1
  O  O417  1  0.86811555  0.86809323  0.11967715  1
  O  O418  1  0.86846926  0.87483660  0.61827300  1
  O  O419  1  0.12566029  0.13635624  0.38114234  1
  O  O420  1  0.13737567  0.12388332  0.87954259  1
  O  O421  1  0.12573625  0.63163356  0.38086965  1
  O  O422  1  0.12613063  0.63300145  0.88193733  1
  O  O423  1  0.61947075  0.13240648  0.38042783  1
  O  O424  1  0.61721178  0.12425845  0.88813287  1
  O  O425  1  0.62401739  0.63567777  0.37759327  1
  O  O426  1  0.63255569  0.62474761  0.87944200  1
