# generated using pymatgen
data_V85Zn86O256
_symmetry_space_group_name_H-M   'P 1'
_cell_length_a   16.96043579
_cell_length_b   16.97817915
_cell_length_c   16.96381351
_cell_angle_alpha   90.09221107
_cell_angle_beta   89.99785519
_cell_angle_gamma   90.04073916
_symmetry_Int_Tables_number   1
_chemical_formula_structural   V85Zn86O256
_chemical_formula_sum   'V85 Zn86 O256'
_cell_volume   4884.84666583
_cell_formula_units_Z   1
loop_
 _symmetry_equiv_pos_site_id
 _symmetry_equiv_pos_as_xyz
  1  'x, y, z'
loop_
 _atom_site_type_symbol
 _atom_site_label
 _atom_site_symmetry_multiplicity
 _atom_site_fract_x
 _atom_site_fract_y
 _atom_site_fract_z
 _atom_site_occupancy
  V  V0  1  0.12229517  0.13081241  0.00946270  1
  V  V1  1  0.87159461  -0.00108295  0.87219319  1
  V  V2  1  0.74906802  0.74403585  0.00558202  1
  V  V3  1  0.00760937  0.00583440  0.50135822  1
  V  V4  1  0.00039133  0.86271150  0.87028705  1
  V  V5  1  0.62427108  0.87496353  0.25146645  1
  V  V6  1  0.00510772  0.49729499  0.49928752  1
  V  V7  1  0.13092874  0.00480007  0.12592895  1
  V  V8  1  0.61286362  0.39149095  0.77951313  1
  V  V9  1  0.49921773  0.25206551  0.25037512  1
  V  V10  1  0.75067531  0.50398817  0.74512064  1
  V  V11  1  0.62320219  -0.00232154  0.12774880  1
  V  V12  1  0.62387663  0.75136671  0.37762928  1
  V  V13  1  0.87192055  0.49897844  0.87484740  1
  V  V14  1  0.05026382  0.67250077  0.06826629  1
  V  V15  1  0.12096498  0.86179255  0.75078165  1
  V  V16  1  0.50005867  0.62783693  0.11062131  1
  V  V17  1  0.87497753  0.37506271  -0.00154062  1
  V  V18  1  0.87772253  -0.00001102  0.37442308  1
  V  V19  1  0.13385437  0.87649220  0.24896228  1
  V  V20  1  -0.00440898  0.25872634  0.26524975  1
  V  V21  1  0.75396086  0.25081860  0.50023252  1
  V  V22  1  0.25456162  0.75319335  0.50010712  1
  V  V23  1  0.49452957  0.87933364  0.38164182  1
  V  V24  1  0.87120372  0.12232500  0.74871624  1
  V  V25  1  0.12614212  0.00335515  0.63006526  1
  V  V26  1  0.87668625  0.63019438  0.23755643  1
  V  V27  1  0.01025319  0.49607925  0.00149802  1
  V  V28  1  0.88268309  0.25728466  0.63613066  1
  V  V29  1  0.75102508  0.12489477  0.37523632  1
  V  V30  1  0.75207214  0.87101483  0.12578658  1
  V  V31  1  0.75246633  0.74965580  0.50482186  1
  V  V32  1  0.61903247  0.50706689  0.11907171  1
  V  V33  1  0.75048073  0.24713201  0.00008553  1
  V  V34  1  0.25489534  0.25997544  -0.00122877  1
  V  V35  1  -0.00351024  0.74925886  0.25097134  1
  V  V36  1  0.35653975  0.87026258  0.00279197  1
  V  V37  1  0.62182007  0.74867810  0.87915963  1
  V  V38  1  0.49647494  0.12368437  0.12773040  1
  V  V39  1  0.49782410  0.87261760  0.88100991  1
  V  V40  1  0.87437149  0.87137034  0.00414952  1
  V  V41  1  0.61359908  0.62447045  0.50236507  1
  V  V42  1  0.73944115  0.62171809  0.87816233  1
  V  V43  1  -0.00140019  0.37298402  0.86140749  1
  V  V44  1  0.25735515  0.87437971  0.62556631  1
  V  V45  1  0.25436396  0.37653080  0.61300653  1
  V  V46  1  0.13959822  0.37373763  0.74953499  1
  V  V47  1  0.61605007  0.24519598  0.88182964  1
  V  V48  1  0.49617706  0.75202279  0.24834848  1
  V  V49  1  0.35816371  0.75414485  0.12325297  1
  V  V50  1  0.37237975  0.61601553  0.24666344  1
  V  V51  1  0.74757511  0.38132249  0.62367609  1
  V  V52  1  0.75135301  0.50200101  0.24999880  1
  V  V53  1  0.13795309  0.24398179  0.38675317  1
  V  V54  1  0.62552439  0.37708613  0.24894508  1
  V  V55  1  0.25406704  0.60218048  0.85076258  1
  V  V56  1  0.62503694  0.12118155  0.00575898  1
  V  V57  1  0.50020610  0.75080932  0.74461156  1
  V  V58  1  0.62679697  0.24772126  0.37548935  1
  V  V59  1  0.25485630  0.22688241  0.50553462  1
  V  V60  1  -0.00107913  0.00713109  0.00238804  1
  V  V61  1  0.50443013  0.24025468  0.74083240  1
  V  V62  1  0.38217960  0.50043246  0.38534050  1
  V  V63  1  0.88062124  0.12281492  0.24334143  1
  V  V64  1  0.60768274  0.50014531  0.61380039  1
  V  V65  1  0.75146442  0.62604827  0.37592762  1
  V  V66  1  0.38015731  0.74130005  0.62387062  1
  V  V67  1  0.88050754  0.49855537  0.37398271  1
  V  V68  1  0.00524728  0.13247171  0.62980087  1
  V  V69  1  0.74987396  0.37571515  0.12400060  1
  V  V70  1  0.00114821  0.63198819  0.63447729  1
  V  V71  1  0.12516198  0.62594829  0.50258509  1
  V  V72  1  0.24905313  0.61345014  0.37394197  1
  V  V73  1  0.25161633  0.12334830  0.87207193  1
  V  V74  1  0.00288190  0.87592188  0.37469882  1
  V  V75  1  0.87765358  0.87398649  0.50303844  1
  V  V76  1  0.88763987  0.24700533  0.12128846  1
  V  V77  1  0.63272837  0.88114955  0.74754053  1
  V  V78  1  0.75102780  -0.00144836  0.25067657  1
  V  V79  1  0.36282922  0.12682629  0.25266519  1
  V  V80  1  0.13208374  0.50300765  0.63166788  1
  V  V81  1  0.50651578  0.00706454  0.50951376  1
  V  V82  1  0.36730307  0.00382558  0.38329939  1
  V  V83  1  0.12060181  0.24671746  0.86833720  1
  V  V84  1  0.88016850  0.37655810  0.49845523  1
  Zn  Zn85  1  0.87989502  0.75373317  0.63698822  1
  Zn  Zn86  1  0.49367551  -0.00529025  0.00564037  1
  Zn  Zn87  1  0.87774907  0.63254529  0.75415098  1
  Zn  Zn88  1  0.38860521  0.39575087  0.00660495  1
  Zn  Zn89  1  0.38035131  0.24570721  0.62694896  1
  Zn  Zn90  1  0.37294285  0.25537486  0.12513466  1
  Zn  Zn91  1  0.12866823  0.75096065  0.37450663  1
  Zn  Zn92  1  0.37214183  -0.00354620  0.87718664  1
  Zn  Zn93  1  0.62436236  0.12631506  0.51907942  1
  Zn  Zn94  1  0.74805305  0.11755930  0.87092041  1
  Zn  Zn95  1  0.50419471  0.38258216  0.37901028  1
  Zn  Zn96  1  0.46350885  0.44453667  -0.11016568  1
  Zn  Zn97  1  0.25244643  -0.00315758  0.75267378  1
  Zn  Zn98  1  0.12662493  0.49732353  0.13557648  1
  Zn  Zn99  1  0.75232085  0.87928234  0.62850311  1
  Zn  Zn100  1  0.25131333  0.38930861  0.14205757  1
  Zn  Zn101  1  0.68183707  0.03928758  0.67540731  1
  Zn  Zn102  1  0.38384418  0.11450392  0.74881097  1
  Zn  Zn103  1  0.24701388  0.00568952  0.25235882  1
  Zn  Zn104  1  0.19060970  0.71251569  0.94146647  1
  Zn  Zn105  1  0.38502163  0.37601663  0.50754322  1
  Zn  Zn106  1  0.38561236  0.60015206  0.74351017  1
  Zn  Zn107  1  0.19432041  0.22520654  0.20054267  1
  Zn  Zn108  1  0.19036555  0.18811112  0.68822602  1
  Zn  Zn109  1  0.18758853  0.68535041  0.19442282  1
  Zn  Zn110  1  0.19787877  0.69129974  0.70562242  1
  Zn  Zn111  1  0.69042552  0.18780579  0.18728919  1
  Zn  Zn112  1  0.69183675  0.20402562  0.69227940  1
  Zn  Zn113  1  0.68520656  0.68720251  0.18895829  1
  Zn  Zn114  1  0.68394881  0.68766988  0.68633351  1
  Zn  Zn115  1  0.31247592  0.31344844  0.32045781  1
  Zn  Zn116  1  0.32018250  0.31681715  0.81797027  1
  Zn  Zn117  1  0.31313125  0.81348683  0.31631702  1
  Zn  Zn118  1  0.31362641  0.80345693  0.81556268  1
  Zn  Zn119  1  0.81578659  0.31431673  0.31112646  1
  Zn  Zn120  1  0.80301905  0.31375791  0.81480123  1
  Zn  Zn121  1  0.81413038  0.81129019  0.31526510  1
  Zn  Zn122  1  0.81219417  0.80925636  0.81593046  1
  Zn  Zn123  1  0.12948440  0.38581932  0.26647865  1
  Zn  Zn124  1  0.19076792  0.43967606  0.93083843  1
  Zn  Zn125  1  0.18744859  0.93799754  0.44077226  1
  Zn  Zn126  1  0.18277903  0.93854193  0.93406025  1
  Zn  Zn127  1  0.68876264  0.43761558  0.43688685  1
  Zn  Zn128  1  0.66802441  0.44220100  0.93751898  1
  Zn  Zn129  1  0.68720417  0.93790910  0.44092605  1
  Zn  Zn130  1  0.68657974  0.93598864  0.93845039  1
  Zn  Zn131  1  0.31000067  0.06610897  0.05970254  1
  Zn  Zn132  1  0.32240546  0.05959105  0.57218498  1
  Zn  Zn133  1  0.29513058  0.54859242  0.04602826  1
  Zn  Zn134  1  0.31086073  0.56500684  0.56384733  1
  Zn  Zn135  1  0.81256647  0.06038652  0.06319094  1
  Zn  Zn136  1  0.81840646  0.06510581  0.56013721  1
  Zn  Zn137  1  0.81116563  0.55998001  0.06012185  1
  Zn  Zn138  1  0.81571557  0.56696708  0.56083804  1
  Zn  Zn139  1  0.43681731  0.43862210  0.18329747  1
  Zn  Zn140  1  0.43836010  0.43275765  0.69535964  1
  Zn  Zn141  1  0.43052096  0.93762675  0.19053564  1
  Zn  Zn142  1  0.43739768  0.93344357  0.69128208  1
  Zn  Zn143  1  0.94227383  0.43879486  0.18570318  1
  Zn  Zn144  1  0.94039151  0.44438366  0.68658320  1
  Zn  Zn145  1  0.94242830  0.93807516  0.18358837  1
  Zn  Zn146  1  0.93688424  0.93992045  0.68758338  1
  Zn  Zn147  1  0.06435038  0.07086410  0.31253520  1
  Zn  Zn148  1  0.05839386  0.06101215  0.81194656  1
  Zn  Zn149  1  0.06178079  0.56624611  0.31451206  1
  Zn  Zn150  1  0.06741144  0.56147148  0.81567198  1
  Zn  Zn151  1  0.55945404  0.06410862  0.31477173  1
  Zn  Zn152  1  0.55923947  0.05873035  0.82156461  1
  Zn  Zn153  1  0.56142957  0.56657244  0.30961044  1
  Zn  Zn154  1  0.55307380  0.56091226  0.79960032  1
  Zn  Zn155  1  0.43913518  0.18585655  0.43874974  1
  Zn  Zn156  1  0.43522032  0.18799782  0.93734446  1
  Zn  Zn157  1  0.43379509  0.69022690  0.43573421  1
  Zn  Zn158  1  0.39607486  0.62565350  0.95377705  1
  Zn  Zn159  1  0.93757253  0.18334014  0.44302654  1
  Zn  Zn160  1  0.93899428  0.18801126  0.93277039  1
  Zn  Zn161  1  0.93921572  0.68605968  0.43671020  1
  Zn  Zn162  1  0.92604482  0.68826401  0.93059027  1
  Zn  Zn163  1  0.06829051  0.31877823  0.06236600  1
  Zn  Zn164  1  0.06894555  0.31422367  0.55863060  1
  Zn  Zn165  1  0.06202666  0.83435538  0.06482087  1
  Zn  Zn166  1  0.06687509  0.81355343  0.56393011  1
  Zn  Zn167  1  0.55684779  0.31786141  0.06006909  1
  Zn  Zn168  1  0.56387593  0.31364637  0.55921251  1
  Zn  Zn169  1  0.56043919  0.80977057  0.06096576  1
  Zn  Zn170  1  0.56430123  0.81857418  0.56286420  1
  O  O171  1  0.12396721  0.12511540  0.11121539  1
  O  O172  1  0.11629029  0.11781057  0.63175153  1
  O  O173  1  0.11696295  0.62261726  0.12636734  1
  O  O174  1  0.11925131  0.62060000  0.62329274  1
  O  O175  1  0.61779485  0.11825667  0.12520890  1
  O  O176  1  0.63648198  0.12930736  0.63107469  1
  O  O177  1  0.61029275  0.62023531  0.13474458  1
  O  O178  1  0.63070480  0.61275515  0.61374384  1
  O  O179  1  0.37391431  0.39413911  0.37253601  1
  O  O180  1  0.37627092  0.37396312  0.89212141  1
  O  O181  1  0.38346467  0.89106023  0.36861169  1
  O  O182  1  0.37971047  0.86824056  0.88882654  1
  O  O183  1  0.86819243  0.39172959  0.38070915  1
  O  O184  1  0.88018692  0.37814289  0.87708934  1
  O  O185  1  0.88184997  0.88060502  0.38421751  1
  O  O186  1  0.87966264  0.88181879  0.88393867  1
  O  O187  1  0.26350091  -0.00157419  0.37761612  1
  O  O188  1  0.24897670  0.00952548  0.87473715  1
  O  O189  1  0.26434872  0.51404268  0.37416306  1
  O  O190  1  0.25621288  0.50210245  0.86359801  1
  O  O191  1  0.75659380  0.00337809  0.36948165  1
  O  O192  1  0.76666954  0.00085388  0.88537177  1
  O  O193  1  0.75646554  0.50724989  0.36873766  1
  O  O194  1  0.74904293  0.50611496  0.86757371  1
  O  O195  1  0.24238623  0.50247971  0.12688332  1
  O  O196  1  0.24095216  0.49187591  0.61882530  1
  O  O197  1  0.23485444  1.00905644  0.12750886  1
  O  O198  1  0.24162739  0.99080991  0.62456692  1
  O  O199  1  0.74514332  0.49657175  0.13410318  1
  O  O200  1  0.75541440  0.49321812  0.62913556  1
  O  O201  1  0.74478835  0.99157940  0.13283049  1
  O  O202  1  0.76638443  0.99134503  0.62427239  1
  O  O203  1  -0.00573276  0.35908380  0.24898599  1
  O  O204  1  0.00634413  0.37989461  0.75875000  1
  O  O205  1  0.00415940  0.86694570  0.25375581  1
  O  O206  1  0.01078191  0.88209572  0.75724805  1
  O  O207  1  0.50669462  0.36729826  0.25372142  1
  O  O208  1  0.51834946  0.36131043  0.74774128  1
  O  O209  1  0.50293907  0.86794224  0.25701428  1
  O  O210  1  0.51210831  0.87067070  0.75836670  1
  O  O211  1  0.49543156  0.13103738  0.24091617  1
  O  O212  1  0.50518874  0.13746506  0.75863006  1
  O  O213  1  0.49017958  0.64060493  0.25168825  1
  O  O214  1  0.50935624  0.64915320  0.74335389  1
  O  O215  1  0.98324587  0.13150198  0.25163764  1
  O  O216  1  0.98823384  0.12329824  0.73847017  1
  O  O217  1  0.99141688  0.64146318  0.25674498  1
  O  O218  1  1.00107384  0.61784877  0.73708262  1
  O  O219  1  0.35974836  0.24505886  0.00181791  1
  O  O220  1  0.36320458  0.24665543  0.50057768  1
  O  O221  1  0.37545497  0.76017848  0.01766991  1
  O  O222  1  0.36464656  0.74739908  0.50795083  1
  O  O223  1  0.87038338  0.25292279  0.00490111  1
  O  O224  1  0.87137471  0.25751957  0.51066114  1
  O  O225  1  0.86253701  0.75998162  -0.00348732  1
  O  O226  1  0.86896243  0.75772938  0.49909236  1
  O  O227  1  0.14331370  0.25078291  0.49665560  1
  O  O228  1  0.12938211  0.24559180  0.98921923  1
  O  O229  1  0.13204084  0.73895704  0.50121611  1
  O  O230  1  0.10889246  0.73938108  1.01348202  1
  O  O231  1  0.63529569  0.24669728  0.49035698  1
  O  O232  1  0.63254360  0.24186501  0.99980578  1
  O  O233  1  0.63346800  0.74759697  0.49648432  1
  O  O234  1  0.63248882  0.75551131  0.98656160  1
  O  O235  1  0.50143311  0.24350835  0.13646432  1
  O  O236  1  0.50745229  0.24882281  0.63907590  1
  O  O237  1  0.49868367  0.74505112  0.13527306  1
  O  O238  1  0.48914943  0.76431018  0.62882169  1
  O  O239  1  0.98900887  0.25307485  0.12780955  1
  O  O240  1  0.99445051  0.24470472  0.61877031  1
  O  O241  1  1.00280222  0.74343682  0.12645064  1
  O  O242  1  1.00052332  0.73389022  0.61701500  1
  O  O243  1  -0.02742389  0.25535192  0.36268910  1
  O  O244  1  0.00841686  0.26182377  0.87857161  1
  O  O245  1  0.00259030  0.75801980  0.36751033  1
  O  O246  1  -0.00428968  0.76358788  0.88041635  1
  O  O247  1  0.51092492  0.24494236  0.36315193  1
  O  O248  1  0.51397996  0.24670194  0.87558185  1
  O  O249  1  0.50064841  0.76099218  0.36902459  1
  O  O250  1  0.50935447  0.76197797  0.86559656  1
  O  O251  1  0.25061810  0.12925632  0.50740954  1
  O  O252  1  0.24006804  0.13181910  0.98872688  1
  O  O253  1  0.24283216  0.63236951  0.49481035  1
  O  O254  1  0.26934819  0.63100565  0.97022527  1
  O  O255  1  0.75355757  0.13330889  0.49049225  1
  O  O256  1  0.74120319  0.13089724  1.00550798  1
  O  O257  1  0.74665894  0.63421386  0.49415900  1
  O  O258  1  0.75302914  0.63318836  0.99175672  1
  O  O259  1  0.24387725  0.36178956  -0.00169354  1
  O  O260  1  0.26127253  0.36858910  0.51269304  1
  O  O261  1  0.25691788  0.86828324  -0.00808990  1
  O  O262  1  0.23879051  0.86182107  0.51134042  1
  O  O263  1  0.75519416  0.36665406  0.00597267  1
  O  O264  1  0.75896787  0.37214626  0.50666254  1
  O  O265  1  0.75624744  0.86802024  0.00586051  1
  O  O266  1  0.76003707  0.86722988  0.49878014  1
  O  O267  1  0.10937353  0.49405475  0.24960198  1
  O  O268  1  0.11960197  0.48784297  0.73791408  1
  O  O269  1  0.12415035  0.99875374  0.24454371  1
  O  O270  1  0.12486476  0.99478476  0.73938707  1
  O  O271  1  0.63186122  0.49557416  0.24744002  1
  O  O272  1  0.63383968  0.49612342  0.72851317  1
  O  O273  1  0.63047125  0.99448467  0.24769441  1
  O  O274  1  0.62529798  0.98630686  0.76011481  1
  O  O275  1  0.36892944  0.00926545  0.25845594  1
  O  O276  1  0.37126691  -0.00336749  0.75776368  1
  O  O277  1  0.37962512  0.51418418  0.25560284  1
  O  O278  1  0.44339448  0.50646927  0.78000474  1
  O  O279  1  0.87233250  0.00509508  0.25216411  1
  O  O280  1  0.87965639  0.00887400  0.76027930  1
  O  O281  1  0.87392759  0.50694774  0.25660284  1
  O  O282  1  0.86567773  0.50210788  0.75639134  1
  O  O283  1  0.11036385  0.34010441  0.37464154  1
  O  O284  1  0.11920771  0.37001758  0.86508815  1
  O  O285  1  0.11774079  0.87592176  0.36834056  1
  O  O286  1  0.11614515  0.87716172  0.86048473  1
  O  O287  1  0.62881126  0.36382816  0.36747416  1
  O  O288  1  0.65752053  0.34807922  0.87365866  1
  O  O289  1  0.61875731  0.87022582  0.36902495  1
  O  O290  1  0.61933050  0.86870867  0.87041909  1
  O  O291  1  0.38232113  0.12712400  0.13287143  1
  O  O292  1  0.37030782  0.13320427  0.63819246  1
  O  O293  1  0.38394251  0.64071148  0.13374497  1
  O  O294  1  0.37539828  0.63617532  0.62914119  1
  O  O295  1  0.86853304  0.13430774  0.13238206  1
  O  O296  1  0.88149641  0.13743233  0.63215244  1
  O  O297  1  0.87043792  0.62066252  0.13869674  1
  O  O298  1  0.89141976  0.62502857  0.62568445  1
  O  O299  1  0.25015075  0.24383064  0.10312324  1
  O  O300  1  0.24934704  0.25472350  0.61452214  1
  O  O301  1  0.26002083  0.74708522  0.12774191  1
  O  O302  1  0.25809225  0.75467943  0.62089955  1
  O  O303  1  0.75695830  0.25435624  0.11568945  1
  O  O304  1  0.76053808  0.26723518  0.62225497  1
  O  O305  1  0.74123920  0.75442170  0.11329725  1
  O  O306  1  0.75262162  0.75269669  0.61354975  1
  O  O307  1  0.24598490  0.24235598  0.39121060  1
  O  O308  1  0.24190612  0.24425606  0.88311477  1
  O  O309  1  0.25058513  0.74482162  0.38606857  1
  O  O310  1  0.23306678  0.73298579  0.84025662  1
  O  O311  1  0.74699424  0.24591569  0.37784900  1
  O  O312  1  0.75355899  0.23784687  0.89125670  1
  O  O313  1  0.74531979  0.74654329  0.38524891  1
  O  O314  1  0.74203583  0.74208407  0.88502151  1
  O  O315  1  0.00833868  0.11745936  -0.00712601  1
  O  O316  1  -0.00925489  0.11447456  0.51620925  1
  O  O317  1  -0.00645799  0.61699006  -0.00028621  1
  O  O318  1  0.00735677  0.61930443  0.50748539  1
  O  O319  1  0.50387668  0.12404346  0.01407628  1
  O  O320  1  0.50568664  0.11183612  0.49738136  1
  O  O321  1  0.49797037  0.63941393  0.01263648  1
  O  O322  1  0.51517467  0.63481860  0.49420166  1
  O  O323  1  0.49502583  0.36366558  0.48961009  1
  O  O324  1  0.50409399  0.38558922  0.99353546  1
  O  O325  1  0.50711678  0.88436121  0.48559724  1
  O  O326  1  0.49126905  0.87262939  0.99404862  1
  O  O327  1  0.99666326  0.38977724  0.50754636  1
  O  O328  1  0.99508441  0.38272735  0.98929893  1
  O  O329  1  0.99584213  0.88041534  0.49502414  1
  O  O330  1  0.99152795  0.88398612  0.99134239  1
  O  O331  1  0.48639183  0.50334630  0.37058196  1
  O  O332  1  0.57550060  0.46559117  0.86020653  1
  O  O333  1  0.49241992  0.99470610  0.37950607  1
  O  O334  1  0.49628515  0.98488564  0.88314788  1
  O  O335  1  0.99074500  0.50860725  0.38808924  1
  O  O336  1  0.99320794  0.49398112  0.88191815  1
  O  O337  1  0.99756443  0.99695601  0.38258494  1
  O  O338  1  0.99130280  0.99368036  0.88486281  1
  O  O339  1  0.00917840  -0.00195137  0.11020849  1
  O  O340  1  0.00655811  0.00761423  0.61939391  1
  O  O341  1  -0.00140177  0.49687886  0.10530679  1
  O  O342  1  0.00823718  0.51060801  0.61763110  1
  O  O343  1  0.50359373  0.00708912  0.12824609  1
  O  O344  1  0.49427659  -0.01074911  0.60644224  1
  O  O345  1  0.50704852  0.51732978  0.13482307  1
  O  O346  1  0.51000187  0.49166988  0.61834118  1
  O  O347  1  0.23346036  0.33235697  0.24447301  1
  O  O348  1  0.24231693  0.36498349  0.74164734  1
  O  O349  1  0.23622787  0.87846525  0.25705989  1
  O  O350  1  0.23523037  0.87498072  0.74236499  1
  O  O351  1  0.74653306  0.38100464  0.24321406  1
  O  O352  1  0.73864492  0.38692590  0.74469293  1
  O  O353  1  0.74646748  0.87773321  0.24557571  1
  O  O354  1  0.73554768  0.87197656  0.75458469  1
  O  O355  1  0.26092318  0.13318977  0.24693060  1
  O  O356  1  0.24694667  0.12475198  0.76483441  1
  O  O357  1  0.26198453  0.63562124  0.26323350  1
  O  O358  1  0.25751812  0.60400456  0.74326758  1
  O  O359  1  0.75963679  0.11970797  0.25539992  1
  O  O360  1  0.76342230  0.12821148  0.75165662  1
  O  O361  1  0.75698538  0.62319344  0.25685605  1
  O  O362  1  0.74735302  0.61415909  0.75411862  1
  O  O363  1  0.38259955  0.11135624  0.36594580  1
  O  O364  1  0.36582386  0.12070688  0.87382059  1
  O  O365  1  0.37131320  0.61893149  0.36853034  1
  O  O366  1  0.35999260  0.63650521  0.84905523  1
  O  O367  1  0.86917451  0.11702996  0.36837166  1
  O  O368  1  0.87705962  0.11711151  0.86579006  1
  O  O369  1  0.86889812  0.61651798  0.37042713  1
  O  O370  1  0.85928588  0.61590680  0.87270120  1
  O  O371  1  0.12868173  0.37580422  0.13513291  1
  O  O372  1  0.13370747  0.38191877  0.63045871  1
  O  O373  1  0.12379435  0.89054081  0.13697987  1
  O  O374  1  0.12774368  0.88330830  0.63435801  1
  O  O375  1  0.63020335  0.38328218  0.13320297  1
  O  O376  1  0.63716983  0.38510552  0.61799932  1
  O  O377  1  0.62915020  0.87873922  0.13227296  1
  O  O378  1  0.62909545  0.87363162  0.64281533  1
  O  O379  1  0.09957685  0.23390368  0.26311339  1
  O  O380  1  0.12589763  0.25717349  0.76108846  1
  O  O381  1  0.11644374  0.75978084  0.25069330  1
  O  O382  1  0.11402004  0.76487971  0.73478531  1
  O  O383  1  0.62161289  0.25625269  0.25469721  1
  O  O384  1  0.61876466  0.25793555  0.76446105  1
  O  O385  1  0.61661835  0.75524026  0.25834041  1
  O  O386  1  0.62369001  0.76067965  0.75872457  1
  O  O387  1  0.38557853  0.24320146  0.25318115  1
  O  O388  1  0.39924730  0.25275270  0.75550806  1
  O  O389  1  0.38013392  0.75072270  0.24125132  1
  O  O390  1  0.38870582  0.76186301  0.73704127  1
  O  O391  1  0.87833925  0.24333134  0.23982702  1
  O  O392  1  0.87015207  0.24849307  0.74009947  1
  O  O393  1  0.88278581  0.74372911  0.25245555  1
  O  O394  1  0.87317446  0.74589886  0.74977964  1
  O  O395  1  0.37547322  0.50429172  0.48725481  1
  O  O396  1  0.38819562  0.51520726  0.99077967  1
  O  O397  1  0.38511170  1.00457243  0.48756183  1
  O  O398  1  0.37200821  0.98270866  1.00368542  1
  O  O399  1  0.88334198  0.49763423  0.49358815  1
  O  O400  1  0.87932461  0.49228718  0.99248456  1
  O  O401  1  0.88740969  0.99190702  0.49382782  1
  O  O402  1  0.88235911  0.99533229  0.99636567  1
  O  O403  1  0.11835847  0.00712877  0.00558655  1
  O  O404  1  0.11358753  -0.00562123  0.51119609  1
  O  O405  1  0.11171779  0.49579445  -0.00292747  1
  O  O406  1  0.11816578  0.51451683  0.51120653  1
  O  O407  1  0.62241514  0.00419935  0.01012550  1
  O  O408  1  0.61241617  0.00472249  0.49550440  1
  O  O409  1  0.63488837  0.50812339  0.02108918  1
  O  O410  1  0.63186018  0.51085719  0.50488939  1
  O  O411  1  0.36866412  0.37292762  0.12132442  1
  O  O412  1  0.36880950  0.36987611  0.63032389  1
  O  O413  1  0.37432975  0.86401173  0.11865348  1
  O  O414  1  0.35985542  0.87047954  0.62628730  1
  O  O415  1  0.86938656  0.36728320  0.11872750  1
  O  O416  1  0.87199036  0.37270507  0.62202465  1
  O  O417  1  0.87061455  0.88006313  0.11160445  1
  O  O418  1  0.88087881  0.87131994  0.61220111  1
  O  O419  1  0.09838212  0.14838058  0.38799772  1
  O  O420  1  0.12677682  0.13243333  0.87952750  1
  O  O421  1  0.13278089  0.62820876  0.38535860  1
  O  O422  1  0.14669943  0.61539889  0.87176723  1
  O  O423  1  0.63384721  0.13698245  0.36980189  1
  O  O424  1  0.62872425  0.12840501  0.88654362  1
  O  O425  1  0.63221104  0.63276677  0.37922033  1
  O  O426  1  0.63330316  0.63359316  0.86736841  1
