# generated using pymatgen
data_V85Zn86O256
_symmetry_space_group_name_H-M   'P 1'
_cell_length_a   16.94787829
_cell_length_b   16.94289607
_cell_length_c   16.95089271
_cell_angle_alpha   89.96309417
_cell_angle_beta   90.00234507
_cell_angle_gamma   90.03921376
_symmetry_Int_Tables_number   1
_chemical_formula_structural   V85Zn86O256
_chemical_formula_sum   'V85 Zn86 O256'
_cell_volume   4867.38126476
_cell_formula_units_Z   1
loop_
 _symmetry_equiv_pos_site_id
 _symmetry_equiv_pos_as_xyz
  1  'x, y, z'
loop_
 _atom_site_type_symbol
 _atom_site_label
 _atom_site_symmetry_multiplicity
 _atom_site_fract_x
 _atom_site_fract_y
 _atom_site_fract_z
 _atom_site_occupancy
  V  V0  1  0.37099664  0.75053801  0.62576201  1
  V  V1  1  0.72929538  0.74628498  0.49232226  1
  V  V2  1  0.73235649  0.48675273  0.74841360  1
  V  V3  1  0.52003848  0.50511567  0.49783773  1
  V  V4  1  0.00201453  0.25011082  0.75307091  1
  V  V5  1  0.37729013  0.49920769  0.87625891  1
  V  V6  1  0.37275814  0.38697513  0.49783362  1
  V  V7  1  0.49781952  0.11869254  0.62530985  1
  V  V8  1  -0.00149435  0.25578224  0.25701520  1
  V  V9  1  0.00156235  0.74992276  0.74211581  1
  V  V10  1  0.50190260  0.37194583  0.88181851  1
  V  V11  1  0.75565175  0.00719395  0.74880364  1
  V  V12  1  0.74809173  0.62676222  0.89127044  1
  V  V13  1  0.62939395  0.74916898  0.89445779  1
  V  V14  1  0.51567714  0.62344159  0.62058121  1
  V  V15  1  0.37351504  0.87581295  0.00099061  1
  V  V16  1  0.62635683  0.50623930  0.11677198  1
  V  V17  1  0.49970394  0.62657861  0.11929891  1
  V  V18  1  -0.00692301  0.49753003  -0.00018560  1
  V  V19  1  0.12198866  0.62358603  -0.00872914  1
  V  V20  1  0.12577855  0.00084903  0.12567057  1
  V  V21  1  0.12252223  0.12747940  0.50338389  1
  V  V22  1  0.62565649  -0.00212830  0.62647193  1
  V  V23  1  0.36999132  0.87268374  0.50294190  1
  V  V24  1  0.12650594  0.25817362  0.37728625  1
  V  V25  1  0.50082335  0.00010638  0.00119159  1
  V  V26  1  0.00179850  0.37476256  0.87842937  1
  V  V27  1  0.50255752  0.87509944  0.87608465  1
  V  V28  1  0.37098009  0.62134901  0.26264919  1
  V  V29  1  0.75163920  0.87264463  0.62512206  1
  V  V30  1  0.00110960  -0.00063413  -0.00008526  1
  V  V31  1  0.10649730  0.61640660  0.51095390  1
  V  V32  1  -0.00162398  -0.00243225  0.50076840  1
  V  V33  1  0.37637018  0.00235027  0.87396772  1
  V  V34  1  0.75246578  -0.00489193  0.24532735  1
  V  V35  1  0.49715700  0.38307956  0.37200712  1
  V  V36  1  0.49969151  0.74648719  0.25380245  1
  V  V37  1  0.00378669  0.86484224  0.36791749  1
  V  V38  1  0.75586428  0.25089144  -0.00293734  1
  V  V39  1  0.24800347  0.12825266  0.38129796  1
  V  V40  1  0.62581750  0.25066080  0.37146557  1
  V  V41  1  0.62428700  0.25127631  0.87582354  1
  V  V42  1  0.87595703  -0.00281489  0.37243098  1
  V  V43  1  0.36326315  0.37280532  0.00103720  1
  V  V44  1  0.37306724  0.00000089  0.37529109  1
  V  V45  1  0.50586905  0.74965783  0.75115190  1
  V  V46  1  0.62914770  -0.00324084  0.12484762  1
  V  V47  1  0.00368191  0.63836104  0.12886395  1
  V  V48  1  0.24991453  0.49313483  0.74471340  1
  V  V49  1  0.50030245  0.12624659  0.12557154  1
  V  V50  1  0.25051647  0.62433393  0.87261742  1
  V  V51  1  0.75023411  0.37682898  0.12020578  1
  V  V52  1  0.24852798  0.75007000  -0.00136279  1
  V  V53  1  0.62542195  0.12247787  0.49725963  1
  V  V54  1  0.50046890  0.25192898  0.24779188  1
  V  V55  1  0.87671248  0.00410922  0.87274016  1
  V  V56  1  0.49928469  -0.00261665  0.49780935  1
  V  V57  1  0.87528816  0.12484552  0.24965159  1
  V  V58  1  0.24488283  0.37131359  0.62211959  1
  V  V59  1  0.37870265  0.62262481  0.74735216  1
  V  V60  1  0.86432378  0.62580273  0.74615705  1
  V  V61  1  0.51982844  0.28502429  0.72023987  1
  V  V62  1  0.87273660  0.86367271  0.49394107  1
  V  V63  1  0.12585218  0.74091025  0.37046787  1
  V  V64  1  0.24791246  -0.00159519  0.25637862  1
  V  V65  1  0.13087890  0.13539738  0.00007669  1
  V  V66  1  0.24697491  -0.01053192  0.74509659  1
  V  V67  1  0.86371627  0.75081023  0.13359591  1
  V  V68  1  0.75767839  0.50448921  0.24836552  1
  V  V69  1  0.25291402  0.13329332  0.87474766  1
  V  V70  1  0.00133508  0.12618798  0.12626650  1
  V  V71  1  -0.01240365  0.12388587  0.63091766  1
  V  V72  1  0.63050623  0.86800591  0.25000260  1
  V  V73  1  0.24951432  0.87648147  0.12516981  1
  V  V74  1  0.37921848  0.12811977  0.74760952  1
  V  V75  1  0.36544292  0.24963765  0.12282516  1
  V  V76  1  0.87778142  0.25737453  0.12199418  1
  V  V77  1  0.25442274  0.49639025  0.26204526  1
  V  V78  1  0.75201324  0.25828502  0.50837523  1
  V  V79  1  0.00754490  0.87426838  0.87237564  1
  V  V80  1  0.86540680  0.86704660  0.00190055  1
  V  V81  1  0.50352484  0.87159784  0.37368955  1
  V  V82  1  0.74228850  0.62227779  0.37481316  1
  V  V83  1  0.25127768  0.73490778  0.49696353  1
  V  V84  1  0.37117075  0.24872186  0.61408205  1
  Zn  Zn85  1  0.08425998  0.42448307  0.69407702  1
  Zn  Zn86  1  0.62900933  0.12443595  -0.00074043  1
  Zn  Zn87  1  0.12796139  0.75535226  0.86509809  1
  Zn  Zn88  1  0.37168151  0.74768046  0.12796617  1
  Zn  Zn89  1  0.88088345  0.39412179  0.50452582  1
  Zn  Zn90  1  0.50181860  0.50406767  0.00096708  1
  Zn  Zn91  1  0.62944419  0.87555252  0.75467834  1
  Zn  Zn92  1  0.12050634  -0.00939594  0.63575038  1
  Zn  Zn93  1  0.86679859  0.25735669  0.63789699  1
  Zn  Zn94  1  0.87059627  0.49408993  0.87657166  1
  Zn  Zn95  1  0.24594594  0.37797182  0.12502011  1
  Zn  Zn96  1  0.75492352  0.12858275  0.87185218  1
  Zn  Zn97  1  0.12259126  0.37921510  0.24954602  1
  Zn  Zn98  1  0.87428669  0.74240364  0.61936071  1
  Zn  Zn99  1  0.62530633  0.37781163  0.24669819  1
  Zn  Zn100  1  0.12893892  0.50050488  0.12421854  1
  Zn  Zn101  1  -0.02627894  0.40916102  0.37513433  1
  Zn  Zn102  1  0.91018708  0.59583172  0.28727744  1
  Zn  Zn103  1  0.37333002  0.12593597  0.25141698  1
  Zn  Zn104  1  0.75128465  0.12555140  0.37374945  1
  Zn  Zn105  1  0.12369564  0.86866983  0.24933423  1
  Zn  Zn106  1  0.13532242  0.25839696  0.86995334  1
  Zn  Zn107  1  0.18579254  0.18691029  0.19415509  1
  Zn  Zn108  1  0.18647336  0.18355278  0.68581818  1
  Zn  Zn109  1  0.18980103  0.68342739  0.18613453  1
  Zn  Zn110  1  0.18877508  0.68521474  0.68559902  1
  Zn  Zn111  1  0.68992156  0.18581280  0.18634091  1
  Zn  Zn112  1  0.68476900  0.18468584  0.68767717  1
  Zn  Zn113  1  0.68745119  0.68433288  0.18935089  1
  Zn  Zn114  1  0.69077177  0.69046761  0.69252989  1
  Zn  Zn115  1  0.31472725  0.31200392  0.31365738  1
  Zn  Zn116  1  0.32435418  0.31155266  0.80350771  1
  Zn  Zn117  1  0.31115432  0.81024183  0.31601977  1
  Zn  Zn118  1  0.31681731  0.81144648  0.81351613  1
  Zn  Zn119  1  0.81178410  0.31788162  0.31291038  1
  Zn  Zn120  1  0.82105276  0.31340605  0.81202468  1
  Zn  Zn121  1  0.81263563  0.80404441  0.31346516  1
  Zn  Zn122  1  0.81368288  0.81291730  0.81516499  1
  Zn  Zn123  1  0.18693255  0.44156436  0.44267994  1
  Zn  Zn124  1  0.18433489  0.43997180  0.93438388  1
  Zn  Zn125  1  0.16775617  0.91764256  0.47270145  1
  Zn  Zn126  1  0.18793357  0.94415050  0.93480079  1
  Zn  Zn127  1  0.69615397  0.43505767  0.43098733  1
  Zn  Zn128  1  0.68837244  0.43729189  0.93565786  1
  Zn  Zn129  1  0.68838015  0.93624868  0.43327808  1
  Zn  Zn130  1  0.68935589  0.93755778  0.93674301  1
  Zn  Zn131  1  0.31178416  0.06433025  0.06250944  1
  Zn  Zn132  1  0.30844033  0.06015249  0.56165180  1
  Zn  Zn133  1  0.31357450  0.56185174  0.06692316  1
  Zn  Zn134  1  0.31805729  0.55908951  0.56487604  1
  Zn  Zn135  1  0.81502322  0.06410515  0.06088318  1
  Zn  Zn136  1  0.81202585  0.06095612  0.55851075  1
  Zn  Zn137  1  0.81864839  0.56664043  0.06673523  1
  Zn  Zn138  1  0.78641838  0.56137393  0.56952210  1
  Zn  Zn139  1  0.43523221  0.44017068  0.18606368  1
  Zn  Zn140  1  0.44903325  0.43731878  0.68011703  1
  Zn  Zn141  1  0.43593818  0.93740945  0.18874192  1
  Zn  Zn142  1  0.43468208  0.93557180  0.68960564  1
  Zn  Zn143  1  0.94372661  0.43789897  0.18199984  1
  Zn  Zn144  1  0.91508892  0.45245118  0.67254932  1
  Zn  Zn145  1  0.93846202  0.93186784  0.18507928  1
  Zn  Zn146  1  0.93575981  0.93354497  0.68703385  1
  Zn  Zn147  1  0.06298891  0.06169246  0.31583034  1
  Zn  Zn148  1  0.06602345  0.06528087  0.81252981  1
  Zn  Zn149  1  0.07719218  0.56386473  0.31688124  1
  Zn  Zn150  1  0.04497266  0.55344445  0.78988958  1
  Zn  Zn151  1  0.56288344  0.06081200  0.30986926  1
  Zn  Zn152  1  0.56670762  0.06513561  0.81208341  1
  Zn  Zn153  1  0.56952441  0.56266197  0.30802661  1
  Zn  Zn154  1  0.56449964  0.56712115  0.81839697  1
  Zn  Zn155  1  0.43792799  0.18963372  0.43623528  1
  Zn  Zn156  1  0.43820762  0.18962716  0.94078507  1
  Zn  Zn157  1  0.44424557  0.68592138  0.43840186  1
  Zn  Zn158  1  0.43665686  0.68889259  0.93765104  1
  Zn  Zn159  1  0.93620670  0.19043390  0.43840571  1
  Zn  Zn160  1  0.94008736  0.18779284  0.93792344  1
  Zn  Zn161  1  0.92676152  0.57591501  0.45045272  1
  Zn  Zn162  1  0.93604679  0.68885353  0.93407372  1
  Zn  Zn163  1  0.06507202  0.31682062  0.06312032  1
  Zn  Zn164  1  0.05158027  0.31136198  0.55353066  1
  Zn  Zn165  1  0.06479616  0.81469228  0.05714243  1
  Zn  Zn166  1  0.06184574  0.80520679  0.55921152  1
  Zn  Zn167  1  0.56399234  0.31415071  0.05974423  1
  Zn  Zn168  1  0.56122365  0.31306912  0.55220671  1
  Zn  Zn169  1  0.56037174  0.81464477  0.06948020  1
  Zn  Zn170  1  0.55894380  0.81490895  0.56724662  1
  O  O171  1  0.12243994  0.12129529  0.11941898  1
  O  O172  1  0.11706210  0.11698093  0.61600284  1
  O  O173  1  0.11718870  0.62894924  0.11119503  1
  O  O174  1  0.13180554  0.62660626  0.60868973  1
  O  O175  1  0.61823870  0.11367963  0.12571963  1
  O  O176  1  0.61825212  0.11684679  0.61625427  1
  O  O177  1  0.61395770  0.61795219  0.13044526  1
  O  O178  1  0.61409476  0.63440968  0.62843841  1
  O  O179  1  0.38998740  0.36685984  0.38338562  1
  O  O180  1  0.37716777  0.38052748  0.88496138  1
  O  O181  1  0.38643007  0.87880228  0.37970938  1
  O  O182  1  0.38298725  0.88110109  0.88215568  1
  O  O183  1  0.86409885  0.37539285  0.38948441  1
  O  O184  1  0.89419301  0.37676804  0.87382956  1
  O  O185  1  0.88079166  0.87640737  0.37772624  1
  O  O186  1  0.88227446  0.88211322  0.88636472  1
  O  O187  1  0.25522166  0.00581276  0.36855584  1
  O  O188  1  0.25836407  0.01019454  0.86722607  1
  O  O189  1  0.25251607  0.49708030  0.36153236  1
  O  O190  1  0.26389089  0.50402412  0.87139820  1
  O  O191  1  0.75648057  0.00096085  0.36253550  1
  O  O192  1  0.75768638  0.00027751  0.86618980  1
  O  O193  1  0.74473505  0.51063755  0.36255591  1
  O  O194  1  0.74969098  0.51335585  0.87507462  1
  O  O195  1  0.24959933  0.49937769  0.13637575  1
  O  O196  1  0.25804726  0.48712379  0.63335354  1
  O  O197  1  0.24628942  0.99651141  0.13369165  1
  O  O198  1  0.25201810  1.00212391  0.64189973  1
  O  O199  1  0.74575759  0.49506090  0.12417226  1
  O  O200  1  0.73255848  0.50295365  0.64863039  1
  O  O201  1  0.74356687  1.00447332  0.13564413  1
  O  O202  1  0.74690058  0.99385033  0.62996574  1
  O  O203  1  -0.00043113  0.36968856  0.25895693  1
  O  O204  1  0.00989877  0.35611977  0.75835986  1
  O  O205  1  0.00419798  0.88018649  0.26383865  1
  O  O206  1  -0.00799294  0.86128667  0.75846197  1
  O  O207  1  0.50083899  0.37197237  0.25602758  1
  O  O208  1  0.47932017  0.37408535  0.77541806  1
  O  O209  1  0.50387687  0.86757694  0.25543908  1
  O  O210  1  0.50110730  0.86689723  0.75795056  1
  O  O211  1  0.49851637  0.12840768  0.23850874  1
  O  O212  1  0.49282904  0.11623017  0.73856766  1
  O  O213  1  0.49293067  0.63064117  0.24497867  1
  O  O214  1  0.49739409  0.63164293  0.74512239  1
  O  O215  1  0.99503165  0.13087589  0.24375832  1
  O  O216  1  1.00101676  0.12363173  0.73616232  1
  O  O217  1  1.00891242  0.62557291  0.23066744  1
  O  O218  1  0.97685397  0.64435330  0.76445047  1
  O  O219  1  0.37827558  0.25924015  0.01063563  1
  O  O220  1  0.38394129  0.26016087  0.50946203  1
  O  O221  1  0.36281221  0.75550843  0.00013504  1
  O  O222  1  0.37483747  0.75332381  0.50655422  1
  O  O223  1  0.86850452  0.24512124  0.00985977  1
  O  O224  1  0.85338579  0.24036409  0.49970112  1
  O  O225  1  0.87924825  0.76334078  0.00522665  1
  O  O226  1  0.86101703  0.76221099  0.50167888  1
  O  O227  1  0.11932473  0.23558035  0.49047936  1
  O  O228  1  0.12267020  0.23759887  0.99869306  1
  O  O229  1  0.13550900  0.73936311  0.49356779  1
  O  O230  1  0.13704203  0.74625003  0.99407257  1
  O  O231  1  0.62835469  0.24127620  0.49252142  1
  O  O232  1  0.63458376  0.24775080  0.99321742  1
  O  O233  1  0.63171184  0.75911617  0.49861514  1
  O  O234  1  0.61982580  0.75595632  0.99327215  1
  O  O235  1  0.49676332  0.24268526  0.12838334  1
  O  O236  1  0.49501012  0.23275014  0.61975046  1
  O  O237  1  0.49651849  0.74498258  0.13750070  1
  O  O238  1  0.49342917  0.74522823  0.63304237  1
  O  O239  1  0.99413311  0.24817084  0.13533501  1
  O  O240  1  0.99999702  0.23689729  0.63438380  1
  O  O241  1  0.99971267  0.74105596  0.11820040  1
  O  O242  1  0.99244986  0.75713450  0.63846299  1
  O  O243  1  0.00827043  0.24076993  0.36293157  1
  O  O244  1  0.00363593  0.25247802  0.86843670  1
  O  O245  1  0.01972841  0.75622200  0.37676546  1
  O  O246  1  0.00138928  0.76040205  0.86794129  1
  O  O247  1  0.50959628  0.25567423  0.36946045  1
  O  O248  1  0.50864752  0.25723902  0.87669086  1
  O  O249  1  0.49858374  0.75717507  0.36298319  1
  O  O250  1  0.50642617  0.75340208  0.86924619  1
  O  O251  1  0.24029255  0.11915570  0.48926424  1
  O  O252  1  0.24296382  0.12025746  0.98929385  1
  O  O253  1  0.26002101  0.63410969  0.50062937  1
  O  O254  1  0.24598938  0.63258521  0.99444891  1
  O  O255  1  0.73568506  0.12652982  0.49650253  1
  O  O256  1  0.74895380  0.13753856  0.99950933  1
  O  O257  1  0.74128888  0.63945898  0.49250846  1
  O  O258  1  0.75360760  0.62462222  0.99001334  1
  O  O259  1  0.26008670  0.37885360  0.00129466  1
  O  O260  1  0.26119533  0.37991274  0.50734040  1
  O  O261  1  0.25343985  0.87020619  0.00209818  1
  O  O262  1  0.26819248  0.86324295  0.49428008  1
  O  O263  1  0.74870728  0.36497645  0.01070312  1
  O  O264  1  0.73857873  0.35828248  0.50411427  1
  O  O265  1  0.76709847  0.88007264  -0.00056125  1
  O  O266  1  0.75172217  0.86935225  0.50343581  1
  O  O267  1  0.14266120  0.50115681  0.24885975  1
  O  O268  1  0.14870999  0.49952608  0.76351726  1
  O  O269  1  0.13318804  0.99827641  0.24512378  1
  O  O270  1  0.14161059  1.00181567  0.75174611  1
  O  O271  1  0.63741376  0.49771062  0.23571095  1
  O  O272  1  0.63301641  0.49575179  0.76662018  1
  O  O273  1  0.63250577  0.99249074  0.24429585  1
  O  O274  1  0.63363745  0.99693264  0.74361675  1
  O  O275  1  0.36737548  0.00273397  0.25685077  1
  O  O276  1  0.36937246  0.00642194  0.75584912  1
  O  O277  1  0.36876115  0.51191637  0.24896217  1
  O  O278  1  0.37269202  0.50434615  0.75648101  1
  O  O279  1  0.86861182  0.00149381  0.25049816  1
  O  O280  1  0.86745609  -0.00727104  0.76049774  1
  O  O281  1  0.86164216  0.50316759  0.23230737  1
  O  O282  1  0.85766368  0.51619169  0.75818635  1
  O  O283  1  0.13357362  0.36182517  0.37364362  1
  O  O284  1  0.11306783  0.37087450  0.88029936  1
  O  O285  1  0.11811912  0.86607596  0.37842952  1
  O  O286  1  0.11190831  0.87677719  0.87869050  1
  O  O287  1  0.61604346  0.36660494  0.37082611  1
  O  O288  1  0.61564057  0.36239557  0.88211871  1
  O  O289  1  0.61082822  0.88307808  0.36465318  1
  O  O290  1  0.61949507  0.86847418  0.87538723  1
  O  O291  1  0.38299063  0.13203104  0.12522847  1
  O  O292  1  0.37800527  0.13030363  0.62529224  1
  O  O293  1  0.38458016  0.62748752  0.13539913  1
  O  O294  1  0.38632814  0.63240522  0.63070115  1
  O  O295  1  0.88105743  0.13501811  0.13066063  1
  O  O296  1  0.88583085  0.12685516  0.62080907  1
  O  O297  1  0.89045973  0.64123593  0.11869223  1
  O  O298  1  0.85948220  0.62796730  0.64296282  1
  O  O299  1  0.26295884  0.24932341  0.13298528  1
  O  O300  1  0.26303202  0.25437726  0.63210279  1
  O  O301  1  0.25007213  0.75711649  0.11590702  1
  O  O302  1  0.26534947  0.74709065  0.62069051  1
  O  O303  1  0.75699424  0.25656226  0.11937829  1
  O  O304  1  0.74695793  0.24327664  0.61281618  1
  O  O305  1  0.76456710  0.74447623  0.12620173  1
  O  O306  1  0.74754344  0.75824967  0.61371564  1
  O  O307  1  0.24216858  0.23782561  0.36710266  1
  O  O308  1  0.25553392  0.23773510  0.86472701  1
  O  O309  1  0.23905390  0.75467486  0.38585475  1
  O  O310  1  0.24950488  0.74367527  0.87918223  1
  O  O311  1  0.73587189  0.24708323  0.38122004  1
  O  O312  1  0.74615239  0.25080568  0.88133772  1
  O  O313  1  0.74415592  0.74865008  0.38717346  1
  O  O314  1  0.73976400  0.74229811  0.87452479  1
  O  O315  1  0.00852662  0.11923745  0.00730285  1
  O  O316  1  0.00180743  0.12221381  0.51204120  1
  O  O317  1  0.00787929  0.62241910  0.00230030  1
  O  O318  1  0.00777005  0.63394673  0.50784917  1
  O  O319  1  0.50279817  0.11950766  0.01175164  1
  O  O320  1  0.50863286  0.11776404  0.50232786  1
  O  O321  1  0.49379313  0.62676751  0.01510103  1
  O  O322  1  0.50310675  0.61327266  0.50367534  1
  O  O323  1  0.49726945  0.38769981  0.49013468  1
  O  O324  1  0.49005370  0.37727446  0.99285423  1
  O  O325  1  0.49386619  0.87758053  0.49106784  1
  O  O326  1  0.49326291  0.88118886  0.99750413  1
  O  O327  1  0.99533122  0.37070828  0.48153942  1
  O  O328  1  1.00337390  0.38665525  0.99486212  1
  O  O329  1  0.98766163  0.87548881  0.48714418  1
  O  O330  1  0.99488870  0.88212889  0.99169334  1
  O  O331  1  0.50839659  0.49424982  0.38311550  1
  O  O332  1  0.49064690  0.49644420  0.87946981  1
  O  O333  1  0.49303049  0.99407614  0.37841438  1
  O  O334  1  0.49732924  0.99644232  0.88126948  1
  O  O335  1  0.98105838  0.52451374  0.35842652  1
  O  O336  1  0.99974012  0.49248813  0.88132935  1
  O  O337  1  0.99151961  0.99291271  0.37950914  1
  O  O338  1  0.99479742  0.99483096  0.87747967  1
  O  O339  1  0.00603466  0.00556724  0.12139944  1
  O  O340  1  -0.00249973  0.00846488  0.62062509  1
  O  O341  1  0.00373642  0.51291637  0.11508999  1
  O  O342  1  0.00984112  0.50609126  0.68778381  1
  O  O343  1  0.50564440  0.00713594  0.12230881  1
  O  O344  1  0.50403659  0.00027334  0.61685755  1
  O  O345  1  0.50788851  0.50891390  0.12550229  1
  O  O346  1  0.50028124  0.51127057  0.60856806  1
  O  O347  1  0.25656969  0.38787340  0.24867805  1
  O  O348  1  0.26039867  0.38096904  0.73742788  1
  O  O349  1  0.25058513  0.88539971  0.24655100  1
  O  O350  1  0.25735243  0.89050913  0.75661675  1
  O  O351  1  0.74834181  0.38023824  0.23538558  1
  O  O352  1  0.75193794  0.38796027  0.76086171  1
  O  O353  1  0.74089635  0.88113834  0.25545783  1
  O  O354  1  0.75056915  0.88198387  0.74025503  1
  O  O355  1  0.25045877  0.11339934  0.25937495  1
  O  O356  1  0.26063650  0.11809594  0.75633884  1
  O  O357  1  0.26452561  0.61760346  0.24791096  1
  O  O358  1  0.25981654  0.61957349  0.75449876  1
  O  O359  1  0.75767306  0.11625818  0.25108395  1
  O  O360  1  0.74817180  0.11176341  0.75072190  1
  O  O361  1  0.75111771  0.61752379  0.25751540  1
  O  O362  1  0.75457168  0.62647691  0.76318154  1
  O  O363  1  0.36636601  0.12052026  0.37680800  1
  O  O364  1  0.37293871  0.12216766  0.87000818  1
  O  O365  1  0.38163749  0.62695519  0.36080169  1
  O  O366  1  0.37312582  0.61727883  0.86899653  1
  O  O367  1  0.87477940  0.11637464  0.36709263  1
  O  O368  1  0.87498130  0.10800253  0.88384241  1
  O  O369  1  0.85205022  0.63741927  0.37516581  1
  O  O370  1  0.85917711  0.62903568  0.87066741  1
  O  O371  1  0.12826439  0.37939013  0.13152759  1
  O  O372  1  0.13946824  0.36135546  0.61837583  1
  O  O373  1  0.13143858  0.88161605  0.12667773  1
  O  O374  1  0.12552024  0.89417407  0.57919153  1
  O  O375  1  0.63381191  0.38114828  0.12524573  1
  O  O376  1  0.55500028  0.36167155  0.65393253  1
  O  O377  1  0.61937643  0.88931262  0.13505333  1
  O  O378  1  0.63517852  0.88125926  0.62639289  1
  O  O379  1  0.11504350  0.25237030  0.25755918  1
  O  O380  1  0.10911511  0.23237327  0.75532033  1
  O  O381  1  0.13735575  0.74987415  0.26567777  1
  O  O382  1  0.10707772  0.74162362  0.74823470  1
  O  O383  1  0.62038277  0.25032799  0.25597231  1
  O  O384  1  0.61205855  0.24426499  0.75636168  1
  O  O385  1  0.61689359  0.76230437  0.24255611  1
  O  O386  1  0.61387691  0.75350596  0.75645010  1
  O  O387  1  0.38416949  0.24730793  0.24206315  1
  O  O388  1  0.39645700  0.24698236  0.73353107  1
  O  O389  1  0.38019138  0.74021574  0.24994806  1
  O  O390  1  0.38617405  0.74548767  0.74511144  1
  O  O391  1  0.88051025  0.24546949  0.24476413  1
  O  O392  1  0.89311688  0.24339486  0.75272327  1
  O  O393  1  0.87800607  0.75481179  0.23367850  1
  O  O394  1  0.87647443  0.74440698  0.74668426  1
  O  O395  1  0.38656599  0.48930686  0.50044706  1
  O  O396  1  0.37747944  0.49335574  0.99281005  1
  O  O397  1  0.37906935  0.99125577  0.49595072  1
  O  O398  1  0.38092029  0.99666932  0.99420331  1
  O  O399  1  0.86299246  0.50816526  0.51112802  1
  O  O400  1  0.88937362  0.50701249  0.99733679  1
  O  O401  1  0.87735779  0.99003613  0.49126674  1
  O  O402  1  0.88288047  0.99092694  0.99802483  1
  O  O403  1  0.12011191  0.00863971  0.00666906  1
  O  O404  1  0.10988835  0.01940545  0.48298619  1
  O  O405  1  0.11815368  0.51111410  0.00036690  1
  O  O406  1  0.12089389  0.51725206  0.49187795  1
  O  O407  1  0.62115824  0.00055380  0.00852649  1
  O  O408  1  0.62048697  0.00500640  0.50305436  1
  O  O409  1  0.62204194  0.49589757  0.01237347  1
  O  O410  1  0.61816936  0.49364630  0.49898586  1
  O  O411  1  0.37545552  0.36670965  0.11719806  1
  O  O412  1  0.37194310  0.36705027  0.61476931  1
  O  O413  1  0.36805424  0.87372074  0.11826303  1
  O  O414  1  0.38491617  0.86374288  0.61464699  1
  O  O415  1  0.87001873  0.36302775  0.12696350  1
  O  O416  1  0.87643299  0.36812656  0.61731621  1
  O  O417  1  0.88194759  0.86240162  0.11298015  1
  O  O418  1  0.86235969  0.87646508  0.61381551  1
  O  O419  1  0.13197299  0.13414600  0.37741551  1
  O  O420  1  0.13638746  0.12483914  0.88434368  1
  O  O421  1  0.12763327  0.63777584  0.38742385  1
  O  O422  1  0.13104357  0.62804611  0.88326772  1
  O  O423  1  0.62304147  0.13099329  0.38089319  1
  O  O424  1  0.62794442  0.13777174  0.87778131  1
  O  O425  1  0.64019943  0.63253068  0.36502247  1
  O  O426  1  0.63668865  0.63592064  0.87802012  1
