# generated using pymatgen
data_V85Zn86O256
_symmetry_space_group_name_H-M   'P 1'
_cell_length_a   16.97228761
_cell_length_b   16.96678441
_cell_length_c   16.96810302
_cell_angle_alpha   90.04648117
_cell_angle_beta   89.96313566
_cell_angle_gamma   89.94017328
_symmetry_Int_Tables_number   1
_chemical_formula_structural   V85Zn86O256
_chemical_formula_sum   'V85 Zn86 O256'
_cell_volume   4886.21695791
_cell_formula_units_Z   1
loop_
 _symmetry_equiv_pos_site_id
 _symmetry_equiv_pos_as_xyz
  1  'x, y, z'
loop_
 _atom_site_type_symbol
 _atom_site_label
 _atom_site_symmetry_multiplicity
 _atom_site_fract_x
 _atom_site_fract_y
 _atom_site_fract_z
 _atom_site_occupancy
  V  V0  1  0.75373131  0.50215175  0.24778407  1
  V  V1  1  0.37142672  0.01267609  0.37195213  1
  V  V2  1  0.25124968  0.24384364  0.00182718  1
  V  V3  1  0.87325253  0.50090471  0.88137600  1
  V  V4  1  0.75096159  0.25386166  0.49996276  1
  V  V5  1  0.38189232  0.62419429  0.74649571  1
  V  V6  1  0.87586733  0.74315418  0.62330064  1
  V  V7  1  0.12662349  0.88348459  0.73371345  1
  V  V8  1  -0.00172126  0.00076928  0.00074847  1
  V  V9  1  0.00009295  0.37556491  0.87819923  1
  V  V10  1  0.50433875  0.01012653  0.00000306  1
  V  V11  1  0.63069460  0.49665629  0.62216475  1
  V  V12  1  0.50018316  0.49284652  -0.00167765  1
  V  V13  1  0.12860886  0.24521048  0.87479540  1
  V  V14  1  0.12487856  0.37993378  0.24325416  1
  V  V15  1  0.13930231  0.74296594  0.37440809  1
  V  V16  1  0.00557250  0.25217719  0.25469646  1
  V  V17  1  0.50248149  0.37747915  0.37240232  1
  V  V18  1  0.00039505  0.87482515  0.87141983  1
  V  V19  1  0.87664396  -0.00119453  0.37852492  1
  V  V20  1  0.87138325  0.25917274  0.62544352  1
  V  V21  1  0.49897511  0.50245770  0.50232098  1
  V  V22  1  0.62649133  0.00715927  0.12521903  1
  V  V23  1  0.87628360  0.62196062  0.74743542  1
  V  V24  1  0.74962646  0.49423362  0.74772202  1
  V  V25  1  0.50192291  0.35948239  0.87018548  1
  V  V26  1  0.74730599  0.00647010  0.25688450  1
  V  V27  1  0.37729558  0.49670227  0.87095966  1
  V  V28  1  0.36622969  0.50270670  0.37646909  1
  V  V29  1  0.37097605  0.62606648  0.25646118  1
  V  V30  1  0.62815405  0.87474751  0.75373875  1
  V  V31  1  0.87968889  0.12631972  0.75010961  1
  V  V32  1  0.75158469  0.74986624  0.49948215  1
  V  V33  1  0.25085026  0.87536427  0.12699833  1
  V  V34  1  0.87390354  0.00542799  0.87584337  1
  V  V35  1  0.37200546  0.75058416  0.13024632  1
  V  V36  1  0.24625125  0.50340427  0.24009404  1
  V  V37  1  0.62688093  0.62806705  0.49733886  1
  V  V38  1  0.37562433  0.36813472  0.00206672  1
  V  V39  1  0.49908209  0.87292717  0.87677475  1
  V  V40  1  0.50369099  0.74965326  0.25206442  1
  V  V41  1  0.03692727  0.89159075  0.41190360  1
  V  V42  1  -0.00093367  0.12723399  0.13074667  1
  V  V43  1  0.49301426  0.12414015  0.13157415  1
  V  V44  1  0.11473808  0.87075129  0.25150209  1
  V  V45  1  0.87547067  0.87951211  0.49905853  1
  V  V46  1  0.00688229  0.11927194  0.61102231  1
  V  V47  1  0.12533918  0.12253124  -0.00058382  1
  V  V48  1  0.75267261  0.00754283  0.75199811  1
  V  V49  1  0.50004012  0.62353242  0.12718756  1
  V  V50  1  0.13517586  0.63373118  0.51288743  1
  V  V51  1  0.22813022  0.13035115  0.37073601  1
  V  V52  1  0.87413508  0.87502500  0.00048229  1
  V  V53  1  0.12526967  0.37567586  0.74715197  1
  V  V54  1  0.62363787  0.74898534  0.87644984  1
  V  V55  1  0.12519067  -0.00024654  0.12726642  1
  V  V56  1  0.35488593  0.00300119  0.87784059  1
  V  V57  1  0.49283430  0.25171478  0.24979751  1
  V  V58  1  0.75603441  0.62718984  0.37227287  1
  V  V59  1  0.49647344  0.87812121  0.37935663  1
  V  V60  1  0.88529769  0.74672979  0.12966818  1
  V  V61  1  0.88122545  0.50129514  0.37453736  1
  V  V62  1  0.00051510  0.25021215  0.74689530  1
  V  V63  1  0.62666772  0.87928666  0.25067370  1
  V  V64  1  0.75115403  0.87766058  0.62659951  1
  V  V65  1  0.00914255  0.37702111  0.38092863  1
  V  V66  1  0.02045929  0.50873510  0.00442118  1
  V  V67  1  0.11854535  0.50420489  0.62518329  1
  V  V68  1  0.74976814  0.74930326  0.00191227  1
  V  V69  1  0.25666337  0.49772906  0.74649100  1
  V  V70  1  0.62296818  0.36871396  0.74689607  1
  V  V71  1  -0.00117770  0.74670751  0.75034643  1
  V  V72  1  0.62870323  0.37717441  0.24632563  1
  V  V73  1  0.25689373  0.37096923  0.61971898  1
  V  V74  1  0.62565018  0.50013760  0.12317065  1
  V  V75  1  0.63183532  0.23437802  0.87404831  1
  V  V76  1  0.87324418  0.12811707  0.25512723  1
  V  V77  1  0.24779065  0.00511288  0.25143873  1
  V  V78  1  0.36368067  0.75537455  0.62220548  1
  V  V79  1  0.24115627  0.24382937  0.49882220  1
  V  V80  1  0.75128982  0.23725915  -0.00109193  1
  V  V81  1  0.63626229  0.24392341  0.36873729  1
  V  V82  1  0.37971520  0.86996106  0.00457774  1
  V  V83  1  0.61955308  0.62482243  -0.00169720  1
  V  V84  1  0.35451988  0.87183124  0.49902442  1
  Zn  Zn85  1  0.25532803  0.00972171  0.72519634  1
  Zn  Zn86  1  0.87355753  0.37493244  0.00332447  1
  Zn  Zn87  1  0.02671580  0.62479564  0.13159765  1
  Zn  Zn88  1  0.48781617  0.02641250  0.52246823  1
  Zn  Zn89  1  0.88839443  0.63030164  0.25118481  1
  Zn  Zn90  1  0.62981989  0.12382867  0.50207200  1
  Zn  Zn91  1  0.24747275  0.37681734  0.12283912  1
  Zn  Zn92  1  0.87359498  0.38172444  0.50523394  1
  Zn  Zn93  1  0.87393236  0.25395661  0.12538401  1
  Zn  Zn94  1  0.62759603  0.75293311  0.37512059  1
  Zn  Zn95  1  0.37030180  0.24680268  0.13020960  1
  Zn  Zn96  1  0.62449950  0.00840540  0.62376471  1
  Zn  Zn97  1  0.75319554  0.37509202  0.11930346  1
  Zn  Zn98  1  0.75232901  0.87664709  0.12739240  1
  Zn  Zn99  1  -0.00089383  0.51339125  0.50426360  1
  Zn  Zn100  1  0.49852202  0.75163262  0.74853308  1
  Zn  Zn101  1  0.74626523  0.62293254  0.87468264  1
  Zn  Zn102  1  0.50254252  0.14895195  0.65525310  1
  Zn  Zn103  1  0.24012653  0.62597175  0.88174543  1
  Zn  Zn104  1  0.12736236  0.73859010  0.89303715  1
  Zn  Zn105  1  0.37612012  0.37305974  0.50033537  1
  Zn  Zn106  1  0.50221994  0.63585310  0.61933379  1
  Zn  Zn107  1  0.18477353  0.19009501  0.18818055  1
  Zn  Zn108  1  0.19302667  0.18284103  0.68170646  1
  Zn  Zn109  1  0.18881964  0.68987304  0.19436661  1
  Zn  Zn110  1  0.20123575  0.70199279  0.72284576  1
  Zn  Zn111  1  0.68652892  0.18657728  0.18539129  1
  Zn  Zn112  1  0.68931166  0.18744903  0.68268729  1
  Zn  Zn113  1  0.69033267  0.68874215  0.18643183  1
  Zn  Zn114  1  0.68875381  0.68527202  0.68734498  1
  Zn  Zn115  1  0.31013398  0.31403796  0.31876093  1
  Zn  Zn116  1  0.30718926  0.31298911  0.81527092  1
  Zn  Zn117  1  0.30918882  0.81609612  0.31331514  1
  Zn  Zn118  1  0.30997015  0.81494822  0.81228823  1
  Zn  Zn119  1  0.81706949  0.31724023  0.31217866  1
  Zn  Zn120  1  0.80993772  0.31300808  0.81501624  1
  Zn  Zn121  1  0.81399804  0.81609190  0.31231288  1
  Zn  Zn122  1  0.81312575  0.81227260  0.81453262  1
  Zn  Zn123  1  0.18468894  0.44153246  0.43956377  1
  Zn  Zn124  1  0.19175109  0.43281734  0.93364216  1
  Zn  Zn125  1  0.17623896  0.94171560  0.55622663  1
  Zn  Zn126  1  0.17839956  0.91105813  0.94645296  1
  Zn  Zn127  1  0.69314766  0.43602597  0.43611554  1
  Zn  Zn128  1  0.68875109  0.43070429  0.93648366  1
  Zn  Zn129  1  0.68451404  0.94358648  0.43810546  1
  Zn  Zn130  1  0.69015338  0.94116508  0.93923629  1
  Zn  Zn131  1  0.31535932  0.06173009  0.05766523  1
  Zn  Zn132  1  0.31565608  0.06751506  0.55623240  1
  Zn  Zn133  1  0.20669840  0.57831233  0.05534978  1
  Zn  Zn134  1  0.31012215  0.56501237  0.56469168  1
  Zn  Zn135  1  0.81202129  0.06406918  0.06782474  1
  Zn  Zn136  1  0.81212742  0.06932314  0.56285327  1
  Zn  Zn137  1  0.81165715  0.56599782  0.06146291  1
  Zn  Zn138  1  0.81211921  0.56078976  0.56129747  1
  Zn  Zn139  1  0.43471541  0.43806090  0.18589162  1
  Zn  Zn140  1  0.43484419  0.31290553  0.68487498  1
  Zn  Zn141  1  0.43909698  0.94091996  0.19515746  1
  Zn  Zn142  1  0.43479514  0.95329258  0.69415833  1
  Zn  Zn143  1  0.93845580  0.44005222  0.18519911  1
  Zn  Zn144  1  0.93910167  0.43828638  0.69020525  1
  Zn  Zn145  1  0.93687770  0.93772547  0.19001514  1
  Zn  Zn146  1  0.94235046  0.94031945  0.68417311  1
  Zn  Zn147  1  0.06041153  0.06010775  0.44293899  1
  Zn  Zn148  1  0.09755523  0.08035097  0.78678701  1
  Zn  Zn149  1  0.06429967  0.56704478  0.31266496  1
  Zn  Zn150  1  0.06253550  0.56313517  0.81228252  1
  Zn  Zn151  1  0.52816340  0.09562897  0.35027584  1
  Zn  Zn152  1  0.56472565  0.05411363  0.81516735  1
  Zn  Zn153  1  0.56437309  0.56252488  0.31486267  1
  Zn  Zn154  1  0.55928927  0.55810870  0.81152021  1
  Zn  Zn155  1  0.43743708  0.19392407  0.50936112  1
  Zn  Zn156  1  0.42804233  0.17610095  0.82330756  1
  Zn  Zn157  1  0.43588945  0.69282718  0.43823178  1
  Zn  Zn158  1  0.38939297  0.65353048  0.97267518  1
  Zn  Zn159  1  0.93143807  0.19422723  0.43363447  1
  Zn  Zn160  1  0.93820109  0.18743429  0.93745571  1
  Zn  Zn161  1  0.95203764  0.69473104  0.43665311  1
  Zn  Zn162  1  0.93772584  0.68491472  0.93668678  1
  Zn  Zn163  1  0.06104103  0.31389881  0.06317773  1
  Zn  Zn164  1  0.06376086  0.31169926  0.56028881  1
  Zn  Zn165  1  0.06659313  0.80718684  0.06015358  1
  Zn  Zn166  1  0.05997125  0.79531332  0.56360891  1
  Zn  Zn167  1  0.56607286  0.30504895  0.05955495  1
  Zn  Zn168  1  0.57071712  0.31708604  0.55660016  1
  Zn  Zn169  1  0.56247966  0.81507278  0.06595294  1
  Zn  Zn170  1  0.53363815  0.84991170  0.58845378  1
  O  O171  1  0.11661280  0.11953589  0.12038041  1
  O  O172  1  0.10550406  0.13036637  0.61852870  1
  O  O173  1  0.13508696  0.64457491  0.10909199  1
  O  O174  1  0.13422970  0.61892110  0.61879160  1
  O  O175  1  0.61509323  0.11220594  0.13124849  1
  O  O176  1  0.61527132  0.12607997  0.62414257  1
  O  O177  1  0.61917945  0.62135121  0.11853779  1
  O  O178  1  0.62533441  0.61754684  0.61582079  1
  O  O179  1  0.38725354  0.38705636  0.37206177  1
  O  O180  1  0.38517945  0.37832894  0.87816053  1
  O  O181  1  0.37867311  0.87519125  0.38275467  1
  O  O182  1  0.38189571  0.87393395  0.88593830  1
  O  O183  1  0.88471334  0.39074389  0.37353894  1
  O  O184  1  0.88533674  0.38308504  0.87425182  1
  O  O185  1  0.87294706  0.88172133  0.38613812  1
  O  O186  1  0.88007362  0.88072162  0.88149465  1
  O  O187  1  0.25688628  0.01585356  0.36743225  1
  O  O188  1  0.25799054  -0.01455644  0.89437697  1
  O  O189  1  0.26433320  0.49375773  0.36867182  1
  O  O190  1  0.26219908  0.49209628  0.86312853  1
  O  O191  1  0.75921583  -0.00422412  0.36291183  1
  O  O192  1  0.76437446  -0.00456278  0.86774808  1
  O  O193  1  0.76026915  0.50854998  0.36980870  1
  O  O194  1  0.75742125  0.50005179  0.86787668  1
  O  O195  1  0.25134969  0.49842907  0.13750077  1
  O  O196  1  0.24256609  0.49071798  0.63028613  1
  O  O197  1  0.24742348  0.99704711  0.13170179  1
  O  O198  1  0.24452106  1.00699042  0.61306621  1
  O  O199  1  0.74284540  0.50184993  0.12985271  1
  O  O200  1  0.74092938  0.50300489  0.63268658  1
  O  O201  1  0.74290620  0.99817331  0.13384153  1
  O  O202  1  0.75166603  0.99238118  0.63389817  1
  O  O203  1  0.00622771  0.37170889  0.25491277  1
  O  O204  1  0.00546769  0.37064988  0.75935730  1
  O  O205  1  0.01447485  0.88043601  0.25219314  1
  O  O206  1  -0.01402480  0.86163013  0.75602622  1
  O  O207  1  0.50972598  0.37590162  0.25322534  1
  O  O208  1  0.51456707  0.37054952  0.75523995  1
  O  O209  1  0.50686000  0.86711677  0.25649386  1
  O  O210  1  0.51169335  0.87714310  0.76103426  1
  O  O211  1  0.50334741  0.14096424  0.24597727  1
  O  O212  1  0.48817904  0.10710008  0.75683871  1
  O  O213  1  0.49885964  0.63255530  0.24696957  1
  O  O214  1  0.49102998  0.62276487  0.74414993  1
  O  O215  1  0.99354597  0.13566243  0.23958971  1
  O  O216  1  0.99631897  0.13365336  0.73956888  1
  O  O217  1  0.99986960  0.62102426  0.24099207  1
  O  O218  1  0.98449902  0.63096949  0.75455167  1
  O  O219  1  0.36418256  0.25993766  -0.00157413  1
  O  O220  1  0.35064209  0.26113005  0.48410949  1
  O  O221  1  0.38579163  0.76123956  0.01658600  1
  O  O222  1  0.37444378  0.76245327  0.50506340  1
  O  O223  1  0.86298212  0.25060415  -0.00196408  1
  O  O224  1  0.86635385  0.25552414  0.50702531  1
  O  O225  1  0.86724225  0.75407756  0.00482760  1
  O  O226  1  0.86970153  0.75332323  0.50679328  1
  O  O227  1  0.14154424  0.26087317  0.49159634  1
  O  O228  1  0.13028891  0.24622557  0.99485743  1
  O  O229  1  0.13510525  0.74014117  0.49717680  1
  O  O230  1  0.14158446  0.80548132  0.98119736  1
  O  O231  1  0.63784676  0.25406175  0.48643186  1
  O  O232  1  0.63654578  0.25106045  0.98421378  1
  O  O233  1  0.63448892  0.73531816  0.49787822  1
  O  O234  1  0.63012803  0.74655199  0.99722138  1
  O  O235  1  0.50235915  0.24101562  0.13260425  1
  O  O236  1  0.49048340  0.25391646  0.60382734  1
  O  O237  1  0.49489084  0.74841492  0.13769352  1
  O  O238  1  0.48839040  0.75340785  0.63004886  1
  O  O239  1  0.99773501  0.24284538  0.13044911  1
  O  O240  1  0.99219243  0.24577801  0.62830047  1
  O  O241  1  0.98736741  0.74804958  0.11458794  1
  O  O242  1  0.98190487  0.74871962  0.63414720  1
  O  O243  1  -0.00792961  0.26421486  0.36509575  1
  O  O244  1  0.00502346  0.26051025  0.87143092  1
  O  O245  1  0.02357435  0.77991888  0.39488041  1
  O  O246  1  -0.00230038  0.75729407  0.86818277  1
  O  O247  1  0.51577931  0.26885716  0.36384170  1
  O  O248  1  0.51426961  0.25487082  0.87525032  1
  O  O249  1  0.50353010  0.75602629  0.36365144  1
  O  O250  1  0.50962671  0.76513178  0.87462112  1
  O  O251  1  0.24864608  0.13634610  0.48435876  1
  O  O252  1  0.24204931  0.13618514  1.00571614  1
  O  O253  1  0.23328400  0.61298428  0.49483184  1
  O  O254  1  0.28344854  0.61655880  0.98585991  1
  O  O255  1  0.74962123  0.14542734  0.50157166  1
  O  O256  1  0.75355732  0.13727343  1.00080326  1
  O  O257  1  0.74706241  0.62761208  0.48837683  1
  O  O258  1  0.73985611  0.63369092  0.99701669  1
  O  O259  1  0.25757008  0.36638207  0.00174778  1
  O  O260  1  0.24938581  0.37199754  0.50635852  1
  O  O261  1  0.26903348  0.88387873  0.02126252  1
  O  O262  1  0.25760483  0.87514528  0.49502482  1
  O  O263  1  0.75308548  0.36285985  0.00010566  1
  O  O264  1  0.75507562  0.36338117  0.49846443  1
  O  O265  1  0.75765678  0.86798442  0.00228590  1
  O  O266  1  0.75462142  0.86929950  0.50879517  1
  O  O267  1  0.13711415  0.49374119  0.25786072  1
  O  O268  1  0.13356252  0.49529742  0.74425001  1
  O  O269  1  0.13832273  0.98861858  0.24150255  1
  O  O270  1  0.09266608  0.97824808  0.73570228  1
  O  O271  1  0.63236499  0.49608747  0.24424925  1
  O  O272  1  0.63145323  0.49505137  0.74130610  1
  O  O273  1  0.63452430  0.99355818  0.24423789  1
  O  O274  1  0.63840507  0.99016846  0.75143986  1
  O  O275  1  0.35822259  -0.00821217  0.26039111  1
  O  O276  1  0.36163996  -0.01339918  0.77108984  1
  O  O277  1  0.37056629  0.50868410  0.25562266  1
  O  O278  1  0.36962285  0.50175943  0.75506586  1
  O  O279  1  0.86821332  0.00583867  0.25599658  1
  O  O280  1  0.87232835  0.00728415  0.75613554  1
  O  O281  1  0.86891411  0.50453117  0.25679527  1
  O  O282  1  0.86916421  0.50391288  0.75740779  1
  O  O283  1  0.11297876  0.38248334  0.36618867  1
  O  O284  1  0.11629973  0.36939651  0.86900445  1
  O  O285  1  0.13360813  0.86878488  0.36176463  1
  O  O286  1  0.10332236  0.88264103  0.85362305  1
  O  O287  1  0.62253989  0.37761537  0.36098786  1
  O  O288  1  0.61745723  0.36932706  0.86552562  1
  O  O289  1  0.61848555  0.87581309  0.36380745  1
  O  O290  1  0.62315733  0.87193017  0.86848503  1
  O  O291  1  0.38876577  0.12544103  0.12330860  1
  O  O292  1  0.41556833  0.10620495  0.58503412  1
  O  O293  1  0.38524191  0.63677803  0.14182501  1
  O  O294  1  0.37942158  0.63191380  0.62946877  1
  O  O295  1  0.88309973  0.12609614  0.13626117  1
  O  O296  1  0.88032572  0.13781531  0.63408858  1
  O  O297  1  0.87149819  0.64217084  0.12421445  1
  O  O298  1  0.86718161  0.63140418  0.63438763  1
  O  O299  1  0.25135171  0.25316155  0.11734752  1
  O  O300  1  0.24488209  0.25451480  0.60992861  1
  O  O301  1  0.26673095  0.76065350  0.13692143  1
  O  O302  1  0.26470908  0.74847791  0.63706807  1
  O  O303  1  0.74802880  0.25013732  0.11022348  1
  O  O304  1  0.75819997  0.25251840  0.61401621  1
  O  O305  1  0.75516966  0.75353407  0.11338882  1
  O  O306  1  0.75901043  0.75517509  0.62186156  1
  O  O307  1  0.24635877  0.23531199  0.37321691  1
  O  O308  1  0.23442930  0.25626018  0.88502152  1
  O  O309  1  0.23841753  0.75036944  0.37475930  1
  O  O310  1  0.23438901  0.73624951  0.83580307  1
  O  O311  1  0.74686748  0.25929592  0.38308689  1
  O  O312  1  0.74083210  0.25028437  0.88358076  1
  O  O313  1  0.75120792  0.74293574  0.37971082  1
  O  O314  1  0.74369859  0.74950007  0.88695384  1
  O  O315  1  0.00135132  0.12028919  0.01245987  1
  O  O316  1  -0.00463481  0.13111729  0.50445654  1
  O  O317  1  -0.00121599  0.60894357  -0.00111947  1
  O  O318  1  0.02231534  0.62779772  0.49793891  1
  O  O319  1  0.50331304  0.10980505  0.01296290  1
  O  O320  1  0.51686667  0.12463989  0.46204307  1
  O  O321  1  0.49763103  0.61423700  0.00883804  1
  O  O322  1  0.51125117  0.62074816  0.49431955  1
  O  O323  1  0.50153261  0.38576834  0.48749004  1
  O  O324  1  0.49595651  0.37207118  0.99172455  1
  O  O325  1  0.50039926  0.87053275  0.48033201  1
  O  O326  1  0.49519911  0.88106953  0.99768662  1
  O  O327  1  0.99685405  0.37871192  0.49158263  1
  O  O328  1  1.00075801  0.38639382  0.99150890  1
  O  O329  1  0.98000648  0.86921330  0.51143778  1
  O  O330  1  0.98960791  0.88169148  0.99213424  1
  O  O331  1  0.49679871  0.49416808  0.38100526  1
  O  O332  1  0.49724796  0.48410346  0.87810547  1
  O  O333  1  0.48027447  0.98963343  0.35686934  1
  O  O334  1  0.49808782  0.98687413  0.88667857  1
  O  O335  1  0.99428598  0.49555633  0.37727505  1
  O  O336  1  0.99444021  0.49326346  0.88436068  1
  O  O337  1  0.98556712  0.98648881  0.37743564  1
  O  O338  1  0.98435678  0.99273295  0.88141521  1
  O  O339  1  0.00422336  0.00768145  0.12281777  1
  O  O340  1  -0.01308529  0.02077962  0.61810050  1
  O  O341  1  -0.00056000  0.50094437  0.10540267  1
  O  O342  1  0.01470536  0.49853508  0.62895205  1
  O  O343  1  0.50624692  0.00532021  0.12564290  1
  O  O344  1  0.51405334  -0.03579551  0.61817377  1
  O  O345  1  0.50668724  0.50263069  0.11902685  1
  O  O346  1  0.51264698  0.50599253  0.60551620  1
  O  O347  1  0.24188560  0.38233874  0.25011286  1
  O  O348  1  0.24416928  0.38152123  0.74200762  1
  O  O349  1  0.24568129  0.88221635  0.24120814  1
  O  O350  1  0.22756162  0.88876779  0.75102971  1
  O  O351  1  0.74402947  0.38353393  0.24641959  1
  O  O352  1  0.74092508  0.38757106  0.75571793  1
  O  O353  1  0.74193922  0.88235182  0.24851369  1
  O  O354  1  0.74855875  0.88283579  0.74622874  1
  O  O355  1  0.24269556  0.11969105  0.26003564  1
  O  O356  1  0.20699463  0.10624736  0.75974530  1
  O  O357  1  0.26117297  0.61760018  0.25160867  1
  O  O358  1  0.26601203  0.60706643  0.74666024  1
  O  O359  1  0.76087712  0.11745035  0.24326059  1
  O  O360  1  0.76101719  0.11310006  0.74389145  1
  O  O361  1  0.75315883  0.62289976  0.26089364  1
  O  O362  1  0.75727672  0.61354050  0.75329556  1
  O  O363  1  0.37509484  0.11043758  0.37329180  1
  O  O364  1  0.36793458  0.10153004  0.88867421  1
  O  O365  1  0.38546830  0.61773923  0.36417325  1
  O  O366  1  0.38644737  0.60491517  0.86386715  1
  O  O367  1  0.88151979  0.11587521  0.36240936  1
  O  O368  1  0.88322068  0.11934250  0.85987569  1
  O  O369  1  0.87351367  0.62079351  0.37482003  1
  O  O370  1  0.87108965  0.61634925  0.86749890  1
  O  O371  1  0.12451023  0.37448017  0.13919789  1
  O  O372  1  0.13169990  0.38229098  0.63055804  1
  O  O373  1  0.13463318  0.87711238  0.13363053  1
  O  O374  1  0.11898086  0.86890335  0.62956247  1
  O  O375  1  0.62513210  0.38031474  0.13352771  1
  O  O376  1  0.62310339  0.38698663  0.63245831  1
  O  O377  1  0.62409085  0.88364432  0.13791833  1
  O  O378  1  0.64137716  0.86695478  0.64073502  1
  O  O379  1  0.11154517  0.25905222  0.24843057  1
  O  O380  1  0.11993100  0.25661482  0.75738336  1
  O  O381  1  0.12764646  0.75754000  0.26438444  1
  O  O382  1  0.10386705  0.76401639  0.74138814  1
  O  O383  1  0.62338743  0.26217285  0.25100606  1
  O  O384  1  0.63916733  0.25847674  0.76185868  1
  O  O385  1  0.61974256  0.75779353  0.24994618  1
  O  O386  1  0.62738593  0.75606540  0.75934823  1
  O  O387  1  0.38997998  0.26216006  0.24956106  1
  O  O388  1  0.37586327  0.25000446  0.75688111  1
  O  O389  1  0.38363166  0.74574049  0.25042223  1
  O  O390  1  0.37873087  0.73986032  0.74630883  1
  O  O391  1  0.88260317  0.24325907  0.24925523  1
  O  O392  1  0.87789340  0.24460212  0.74592807  1
  O  O393  1  0.87064698  0.75307263  0.23269853  1
  O  O394  1  0.87586977  0.73988622  0.74519978  1
  O  O395  1  0.38397931  0.50126953  0.49249169  1
  O  O396  1  0.38720616  0.48164751  0.98771350  1
  O  O397  1  0.37673502  0.98549402  0.48153487  1
  O  O398  1  0.38579340  0.98840432  0.99592667  1
  O  O399  1  0.87966591  0.50096033  0.49156991  1
  O  O400  1  0.87386672  0.50035083  0.98780842  1
  O  O401  1  0.86265287  0.99250722  0.49031474  1
  O  O402  1  0.87631393  0.99644128  0.99501598  1
  O  O403  1  0.11655270  0.00127629  0.00710596  1
  O  O404  1  0.09770927  -0.04133617  0.47566715  1
  O  O405  1  0.12353990  0.49985107  -0.00021087  1
  O  O406  1  0.12172144  0.50772930  0.51041595  1
  O  O407  1  0.61747532  -0.00943727  0.01302640  1
  O  O408  1  0.62196907  0.00558726  0.50452340  1
  O  O409  1  0.61894010  0.50362114  0.00238068  1
  O  O410  1  0.62576897  0.50842911  0.50307868  1
  O  O411  1  0.37470377  0.37141840  0.11402750  1
  O  O412  1  0.35967429  0.37858208  0.62223553  1
  O  O413  1  0.37507125  0.87001365  0.12497923  1
  O  O414  1  0.37710772  0.87156630  0.60585006  1
  O  O415  1  0.87259822  0.37198946  0.12196260  1
  O  O416  1  0.87983193  0.36339576  0.62808417  1
  O  O417  1  0.87537468  0.86571393  0.11793350  1
  O  O418  1  0.86396942  0.86863785  0.62255948  1
  O  O419  1  0.13026134  0.12131671  0.37437897  1
  O  O420  1  0.10627198  0.13914788  0.88749350  1
  O  O421  1  0.12392787  0.64066808  0.38131020  1
  O  O422  1  0.12554572  0.62691517  0.87574653  1
  O  O423  1  0.63659696  0.14421184  0.35978025  1
  O  O424  1  0.62698647  0.13634183  0.86969735  1
  O  O425  1  0.63710678  0.62560058  0.38058993  1
  O  O426  1  0.62190407  0.63011799  0.88136326  1
