# generated using pymatgen
data_V85Zn86O256
_symmetry_space_group_name_H-M   'P 1'
_cell_length_a   16.96178468
_cell_length_b   16.99985293
_cell_length_c   16.98901377
_cell_angle_alpha   90.06717938
_cell_angle_beta   89.99227193
_cell_angle_gamma   90.07997702
_symmetry_Int_Tables_number   1
_chemical_formula_structural   V85Zn86O256
_chemical_formula_sum   'V85 Zn86 O256'
_cell_volume   4898.73732453
_cell_formula_units_Z   1
loop_
 _symmetry_equiv_pos_site_id
 _symmetry_equiv_pos_as_xyz
  1  'x, y, z'
loop_
 _atom_site_type_symbol
 _atom_site_label
 _atom_site_symmetry_multiplicity
 _atom_site_fract_x
 _atom_site_fract_y
 _atom_site_fract_z
 _atom_site_occupancy
  V  V0  1  0.49437921  0.62714565  0.12750573  1
  V  V1  1  0.62854069  0.62157485  0.49850789  1
  V  V2  1  0.75496334  0.62855948  0.86715380  1
  V  V3  1  0.62507966  0.87801982  0.24812148  1
  V  V4  1  0.75298214  0.74983035  0.49966382  1
  V  V5  1  0.74814451  0.12441656  0.37637338  1
  V  V6  1  0.16214164  0.76999259  0.40460736  1
  V  V7  1  0.25943840  0.88800534  0.11875183  1
  V  V8  1  0.11581248  0.25351168  0.37832632  1
  V  V9  1  0.25100298  0.12627046  0.36186374  1
  V  V10  1  0.87623468  0.87268519  0.50115236  1
  V  V11  1  0.87564938  0.12482653  0.25221892  1
  V  V12  1  0.74733452  -0.00280146  0.25075055  1
  V  V13  1  0.49663955  0.49452370  -0.00071476  1
  V  V14  1  0.12185318  0.74707637  0.87629784  1
  V  V15  1  0.75326643  0.87962981  0.62814199  1
  V  V16  1  0.24339068  0.13816147  0.87239227  1
  V  V17  1  0.00019296  0.86769824  0.37569526  1
  V  V18  1  0.12754941  0.49462782  0.62077467  1
  V  V19  1  0.75393290  0.37817903  0.12407032  1
  V  V20  1  0.62966308  0.87620937  0.75218375  1
  V  V21  1  0.62534480  0.00487705  0.12556297  1
  V  V22  1  0.48308659  0.24923416  0.24709579  1
  V  V23  1  0.75348701  0.50110160  0.24845311  1
  V  V24  1  -0.00440462  0.62786675  0.63068264  1
  V  V25  1  0.87191401  0.10710341  0.75120310  1
  V  V26  1  0.00046880  0.51005975  0.00736793  1
  V  V27  1  0.87809810  0.24944712  0.63159555  1
  V  V28  1  0.00530751  0.37573088  0.87226105  1
  V  V29  1  0.49468518  -0.00142702  0.00034701  1
  V  V30  1  0.37743395  0.50722382  0.36029593  1
  V  V31  1  0.62446761  0.24895785  0.37269592  1
  V  V32  1  0.24990560  0.49677729  0.74530492  1
  V  V33  1  0.00154799  -0.00495075  0.50787591  1
  V  V34  1  0.12754764  0.36691053  0.74585531  1
  V  V35  1  0.13350429  0.88209080  0.24653012  1
  V  V36  1  0.88082340  0.62428321  0.23859972  1
  V  V37  1  0.75456048  0.62501311  0.37312234  1
  V  V38  1  0.61943076  0.74701780  0.86749236  1
  V  V39  1  0.44785050  0.79710922  0.69948828  1
  V  V40  1  0.00644471  0.75076246  0.24065543  1
  V  V41  1  0.30651240  0.30418800  0.06329164  1
  V  V42  1  0.38721461  0.61784045  0.74897071  1
  V  V43  1  0.62707997  0.62543591  -0.00222582  1
  V  V44  1  0.50105304  0.49691354  0.50269826  1
  V  V45  1  -0.00717884  0.74787256  0.75415372  1
  V  V46  1  0.12445088  0.62824292  0.01852769  1
  V  V47  1  0.74963509  0.37585997  0.62700296  1
  V  V48  1  0.48262402  0.13088241  0.12759739  1
  V  V49  1  0.50001038  0.37427152  0.37294320  1
  V  V50  1  0.38023745  0.75826868  0.11212194  1
  V  V51  1  0.49733937  0.75289373  0.24431466  1
  V  V52  1  0.62542077  0.00109529  0.62518123  1
  V  V53  1  0.36889126  0.25364417  0.62235272  1
  V  V54  1  0.13008911  0.11977141  0.50339495  1
  V  V55  1  -0.01536100  0.88590162  0.88833494  1
  V  V56  1  0.87510974  -0.00131235  0.37749545  1
  V  V57  1  0.62589281  0.37349368  0.24861135  1
  V  V58  1  0.88117619  0.37408592  0.49550071  1
  V  V59  1  0.75100057  0.25403267  -0.00468085  1
  V  V60  1  0.50198127  0.25102436  0.75070933  1
  V  V61  1  0.86549435  0.76738001  0.12478355  1
  V  V62  1  0.62457306  0.50087578  0.12429802  1
  V  V63  1  0.74994634  0.24946486  0.50181427  1
  V  V64  1  0.62778987  0.25328327  0.87432035  1
  V  V65  1  0.87794587  0.50722976  0.86358025  1
  V  V66  1  0.36912129  -0.00083655  0.87485222  1
  V  V67  1  0.77888646  0.08128523  0.89580623  1
  V  V68  1  0.87568335  0.25111840  0.12371086  1
  V  V69  1  0.62688288  0.75065305  0.37124252  1
  V  V70  1  0.36888075  0.00162681  0.37850564  1
  V  V71  1  0.00296032  0.50084275  0.49643027  1
  V  V72  1  0.36297441  0.37821398  0.50010617  1
  V  V73  1  0.50168802  0.12676333  0.62327329  1
  V  V74  1  0.12834613  0.87808321  0.75204288  1
  V  V75  1  -0.00345505  0.11332237  0.11640691  1
  V  V76  1  0.62372757  0.50413141  0.62659761  1
  V  V77  1  0.87850332  0.37977759  -0.00470260  1
  V  V78  1  0.49797377  0.88380804  0.38772288  1
  V  V79  1  0.36649109  0.49327386  0.88211030  1
  V  V80  1  0.49404918  0.87086129  0.88213832  1
  V  V81  1  0.13524163  0.62658353  0.49914525  1
  V  V82  1  0.61975134  0.13036168  -0.00090479  1
  V  V83  1  0.87921762  0.49849724  0.37162962  1
  V  V84  1  0.62154437  0.12170042  0.49947492  1
  Zn  Zn85  1  0.25686307  -0.00388300  0.74290987  1
  Zn  Zn86  1  0.23220855  0.50518967  0.22648784  1
  Zn  Zn87  1  0.12202332  0.12054151  -0.01071554  1
  Zn  Zn88  1  0.24869311  0.62604668  0.87735574  1
  Zn  Zn89  1  0.14650959  -0.00612612  0.62223579  1
  Zn  Zn90  1  0.76051409  0.76159131  -0.00473106  1
  Zn  Zn91  1  0.17213985  0.30053283  0.92914854  1
  Zn  Zn92  1  0.62615002  0.37781010  0.75213597  1
  Zn  Zn93  1  0.87109744  0.74398793  0.62893832  1
  Zn  Zn94  1  0.25640906  0.62696035  0.35826578  1
  Zn  Zn95  1  -0.00465415  0.25411041  0.25976649  1
  Zn  Zn96  1  0.75322179  0.50671461  0.74603767  1
  Zn  Zn97  1  0.11779641  0.37911552  0.24306858  1
  Zn  Zn98  1  0.00431704  0.24610852  0.75208874  1
  Zn  Zn99  1  0.37518371  0.12631927  0.74972297  1
  Zn  Zn100  1  0.30347194  0.78010483  0.54590987  1
  Zn  Zn101  1  0.45409214  0.66365357  0.58200118  1
  Zn  Zn102  1  0.25130087  0.75462198  0.00039727  1
  Zn  Zn103  1  0.24739801  0.25196866  0.50123258  1
  Zn  Zn104  1  0.12486504  0.00097581  0.12110531  1
  Zn  Zn105  1  0.49669837  0.37253069  0.87972689  1
  Zn  Zn106  1  0.00551162  0.12261811  0.63058424  1
  Zn  Zn107  1  0.18168838  0.18793449  0.19131516  1
  Zn  Zn108  1  0.19120130  0.18000127  0.68771924  1
  Zn  Zn109  1  0.19656296  0.69635352  0.19228916  1
  Zn  Zn110  1  0.18820273  0.67977175  0.69349692  1
  Zn  Zn111  1  0.68683161  0.18774689  0.18683473  1
  Zn  Zn112  1  0.69532124  0.18360076  0.69535486  1
  Zn  Zn113  1  0.68711418  0.68725147  0.18611095  1
  Zn  Zn114  1  0.68489499  0.68908938  0.68692725  1
  Zn  Zn115  1  0.30614394  0.31554960  0.31223889  1
  Zn  Zn116  1  0.31642465  0.31696370  0.80585155  1
  Zn  Zn117  1  0.32106791  0.82103978  0.30371874  1
  Zn  Zn118  1  0.30776955  0.81158046  0.81925612  1
  Zn  Zn119  1  0.81415095  0.31307499  0.31230290  1
  Zn  Zn120  1  0.81422889  0.31575737  0.81165590  1
  Zn  Zn121  1  0.81346183  0.81223813  0.30886600  1
  Zn  Zn122  1  0.81247703  0.81215192  0.81204115  1
  Zn  Zn123  1  0.18890642  0.43926158  0.37697283  1
  Zn  Zn124  1  0.17555475  0.43740479  1.06231975  1
  Zn  Zn125  1  0.19248945  0.94052931  0.43836509  1
  Zn  Zn126  1  0.17812915  0.93882992  0.94113957  1
  Zn  Zn127  1  0.69101388  0.43567151  0.43747113  1
  Zn  Zn128  1  0.68944286  0.43998163  0.93474737  1
  Zn  Zn129  1  0.68502307  0.93805490  0.43905018  1
  Zn  Zn130  1  0.70741276  0.94195307  0.94437247  1
  Zn  Zn131  1  0.30861327  0.06635542  0.05411023  1
  Zn  Zn132  1  0.31668002  0.05998303  0.55668372  1
  Zn  Zn133  1  0.31107517  0.56913669  0.06601956  1
  Zn  Zn134  1  0.30942482  0.55800587  0.56125767  1
  Zn  Zn135  1  0.80968739  0.06114030  0.06597614  1
  Zn  Zn136  1  0.81193426  0.06121120  0.56583609  1
  Zn  Zn137  1  0.81415450  0.56688897  0.05674339  1
  Zn  Zn138  1  0.81483266  0.56067734  0.56175030  1
  Zn  Zn139  1  0.43128680  0.43076681  0.17899955  1
  Zn  Zn140  1  0.43931572  0.43485563  0.68644707  1
  Zn  Zn141  1  0.43698001  0.94415127  0.19382143  1
  Zn  Zn142  1  0.42264192  0.96142361  0.66854489  1
  Zn  Zn143  1  0.97525778  0.41910897  0.16849163  1
  Zn  Zn144  1  0.94062702  0.43749426  0.68484381  1
  Zn  Zn145  1  0.93668058  0.93536107  0.19273703  1
  Zn  Zn146  1  0.94354296  0.92898970  0.69058760  1
  Zn  Zn147  1  0.06173612  0.06090572  0.31458397  1
  Zn  Zn148  1  0.05831033  0.05745021  0.81273607  1
  Zn  Zn149  1  0.06642015  0.57698850  0.31636687  1
  Zn  Zn150  1  0.06623553  0.56106991  0.81243935  1
  Zn  Zn151  1  0.55074281  0.06304020  0.31057430  1
  Zn  Zn152  1  0.57026536  0.05984006  0.81518511  1
  Zn  Zn153  1  0.56205642  0.56330450  0.31076018  1
  Zn  Zn154  1  0.56281872  0.55726560  0.81396841  1
  Zn  Zn155  1  0.43466976  0.18744656  0.43587124  1
  Zn  Zn156  1  0.43235173  0.18682307  0.93645908  1
  Zn  Zn157  1  0.43897030  0.69102134  0.42138445  1
  Zn  Zn158  1  0.43964534  0.68174215  0.93565988  1
  Zn  Zn159  1  0.93796997  0.18100632  0.44590231  1
  Zn  Zn160  1  0.94523112  0.19133129  0.93669655  1
  Zn  Zn161  1  0.94162665  0.68643534  0.43902908  1
  Zn  Zn162  1  0.93718492  0.69209399  0.94115626  1
  Zn  Zn163  1  0.07219446  0.28978906  0.07332526  1
  Zn  Zn164  1  0.06233550  0.31094113  0.56005337  1
  Zn  Zn165  1  0.06358241  0.81667752  0.06333358  1
  Zn  Zn166  1  0.14014756  0.80442462  0.57729726  1
  Zn  Zn167  1  0.55883794  0.31271135  0.06620248  1
  Zn  Zn168  1  0.56238655  0.31371636  0.56204815  1
  Zn  Zn169  1  0.59675888  0.82827225  0.04702780  1
  Zn  Zn170  1  0.57109354  0.81197894  0.55964809  1
  O  O171  1  0.10230096  0.12398687  0.13232835  1
  O  O172  1  0.12456863  0.11527621  0.61847143  1
  O  O173  1  0.12168574  0.63711154  0.11584352  1
  O  O174  1  0.11455679  0.61313934  0.62012388  1
  O  O175  1  0.62028646  0.12433030  0.11421035  1
  O  O176  1  0.62571160  0.11935911  0.62157411  1
  O  O177  1  0.62012519  0.61953625  0.11562515  1
  O  O178  1  0.63313534  0.61150208  0.61695804  1
  O  O179  1  0.38445135  0.38380512  0.38273207  1
  O  O180  1  0.37847310  0.39020023  0.87089880  1
  O  O181  1  0.38757111  0.88612180  0.37494735  1
  O  O182  1  0.38810404  0.88059413  0.86837765  1
  O  O183  1  0.86768832  0.37982435  0.38887964  1
  O  O184  1  0.87801034  0.38850034  0.87877077  1
  O  O185  1  0.88070299  0.88043001  0.37847546  1
  O  O186  1  0.88471691  0.86886834  0.87707269  1
  O  O187  1  0.26023947  0.00741084  0.37510737  1
  O  O188  1  0.26453167  -0.00797413  0.87527542  1
  O  O189  1  0.27581435  0.51155439  0.39009755  1
  O  O190  1  0.26412222  0.50293238  0.86813968  1
  O  O191  1  0.75353571  0.00700796  0.37210917  1
  O  O192  1  0.70690745  0.01749971  0.85984638  1
  O  O193  1  0.75832383  0.50498153  0.36997116  1
  O  O194  1  0.75880946  0.50939245  0.87197094  1
  O  O195  1  0.25511463  0.49147831  0.11812058  1
  O  O196  1  0.23898894  0.50074676  0.63187726  1
  O  O197  1  0.25410583  0.99081559  0.12413550  1
  O  O198  1  0.26182463  0.99312429  0.62723615  1
  O  O199  1  0.74639442  0.49681050  0.12748511  1
  O  O200  1  0.74548769  0.49213135  0.62440744  1
  O  O201  1  0.73278975  1.00828024  0.13450137  1
  O  O202  1  0.74280341  0.98693355  0.62299605  1
  O  O203  1  0.00030101  0.36743481  0.25999433  1
  O  O204  1  0.01022704  0.37722952  0.75403602  1
  O  O205  1  0.00582008  0.86907239  0.25801480  1
  O  O206  1  0.00598287  0.86450211  0.76236289  1
  O  O207  1  0.50649594  0.36711066  0.25204275  1
  O  O208  1  0.50547496  0.36154780  0.74909013  1
  O  O209  1  0.50857176  0.87082115  0.25963099  1
  O  O210  1  0.50360568  0.86758387  0.75256060  1
  O  O211  1  0.50831402  0.13963660  0.23891207  1
  O  O212  1  0.50392741  0.13637541  0.74195188  1
  O  O213  1  0.51297263  0.63817700  0.23752730  1
  O  O214  1  0.48686607  0.61773937  0.75143560  1
  O  O215  1  0.98384115  0.12389918  0.24880747  1
  O  O216  1  0.98733271  0.12721314  0.74993891  1
  O  O217  1  0.99192781  0.63928725  0.25660792  1
  O  O218  1  1.00591780  0.62879523  0.73800633  1
  O  O219  1  0.36638544  0.24982918  0.00259398  1
  O  O220  1  0.37629471  0.26014946  0.50544545  1
  O  O221  1  0.37925096  0.74950847  0.00932026  1
  O  O222  1  0.39558766  0.73372362  0.51240571  1
  O  O223  1  0.87174560  0.25648242  0.00600912  1
  O  O224  1  0.87057100  0.25431423  0.50948484  1
  O  O225  1  0.87462298  0.74638711  0.02065925  1
  O  O226  1  0.86940868  0.75507121  0.50258646  1
  O  O227  1  0.12565601  0.23527157  0.49782836  1
  O  O228  1  0.10149138  0.23296598  0.98551779  1
  O  O229  1  0.10445686  0.73711206  0.49303889  1
  O  O230  1  0.12062831  0.73937663  0.99491929  1
  O  O231  1  0.63243095  0.24501020  0.49397437  1
  O  O232  1  0.62848573  0.24791672  0.99584482  1
  O  O233  1  0.63333152  0.74149049  0.49201102  1
  O  O234  1  0.61444942  0.73074516  0.98669608  1
  O  O235  1  0.50245708  0.24271648  0.13556392  1
  O  O236  1  0.49950134  0.24299307  0.63065320  1
  O  O237  1  0.50024368  0.74607431  0.12762046  1
  O  O238  1  0.51484142  0.74578148  0.63914173  1
  O  O239  1  0.98396129  0.23434874  0.13169814  1
  O  O240  1  0.99035627  0.24450812  0.62517974  1
  O  O241  1  0.98935618  0.75952969  0.13745517  1
  O  O242  1  1.00092343  0.73386036  0.63391285  1
  O  O243  1  0.01257484  0.23598808  0.37983756  1
  O  O244  1  -0.01378199  0.27173069  0.86765477  1
  O  O245  1  -0.00812167  0.76313594  0.36546982  1
  O  O246  1  0.00410031  0.75186513  0.86875912  1
  O  O247  1  0.50652510  0.25366079  0.36742341  1
  O  O248  1  0.50384173  0.25286810  0.86719376  1
  O  O249  1  0.50926027  0.75947182  0.36248037  1
  O  O250  1  0.50624981  0.75774819  0.87804591  1
  O  O251  1  0.23848007  0.12329197  0.49346353  1
  O  O252  1  0.24846554  0.12303627  0.97604014  1
  O  O253  1  0.23738920  0.62703705  0.50428770  1
  O  O254  1  0.23344526  0.62937904  0.99956447  1
  O  O255  1  0.74099791  0.12978432  0.49801292  1
  O  O256  1  0.74004316  0.13681014  0.98996481  1
  O  O257  1  0.74837128  0.62911949  0.49299217  1
  O  O258  1  0.74099320  0.62850459  0.98859045  1
  O  O259  1  0.23990478  0.36082723  0.00120056  1
  O  O260  1  0.26343138  0.37402853  0.49139839  1
  O  O261  1  0.24720786  0.87353558  0.01593886  1
  O  O262  1  0.21704416  0.83911568  0.48333930  1
  O  O263  1  0.75791894  0.37427037  0.00582105  1
  O  O264  1  0.75764207  0.36988467  0.51000632  1
  O  O265  1  0.70370644  0.85695456  0.01003926  1
  O  O266  1  0.75522484  0.86994280  0.50636740  1
  O  O267  1  0.13017086  0.49250296  0.28686593  1
  O  O268  1  0.13264072  0.49373292  0.74069520  1
  O  O269  1  0.11617581  0.98518105  0.24613947  1
  O  O270  1  0.12681524  0.98596599  0.75231259  1
  O  O271  1  0.63185919  0.49432096  0.24383513  1
  O  O272  1  0.62819580  0.49731962  0.74039004  1
  O  O273  1  0.62633279  0.99815406  0.24565236  1
  O  O274  1  0.61387360  0.98857154  0.73416797  1
  O  O275  1  0.40175616  0.01015387  0.28000624  1
  O  O276  1  0.37862685  0.00564842  0.76062453  1
  O  O277  1  0.37923089  0.49156995  0.26144749  1
  O  O278  1  0.37185775  0.50289372  0.75686303  1
  O  O279  1  0.86684373  0.00554744  0.25782286  1
  O  O280  1  0.87526849  0.00908202  0.74364437  1
  O  O281  1  0.87084457  0.51002511  0.25702408  1
  O  O282  1  0.87469718  0.49815711  0.75985481  1
  O  O283  1  0.12038927  0.35056717  0.40050406  1
  O  O284  1  0.11594937  0.37671065  0.86020428  1
  O  O285  1  0.11913486  0.86922217  0.36797276  1
  O  O286  1  0.11659397  0.86419375  0.86944025  1
  O  O287  1  0.62046861  0.37052419  0.36901166  1
  O  O288  1  0.62116662  0.36586840  0.87499137  1
  O  O289  1  0.61873719  0.87071691  0.36827370  1
  O  O290  1  0.61220340  0.86770290  0.86239811  1
  O  O291  1  0.38404181  0.12013507  0.12349771  1
  O  O292  1  0.38794913  0.13432842  0.62225076  1
  O  O293  1  0.38988695  0.63711525  0.11961333  1
  O  O294  1  0.37299308  0.61295084  0.64246487  1
  O  O295  1  0.87576616  0.12831392  0.13288517  1
  O  O296  1  0.87268651  0.13152176  0.63687450  1
  O  O297  1  0.87015042  0.62957557  0.13748352  1
  O  O298  1  0.89036928  0.62391203  0.62120143  1
  O  O299  1  0.24198816  0.24733584  0.11869502  1
  O  O300  1  0.26581793  0.24368869  0.62206902  1
  O  O301  1  0.26554838  0.76214883  0.12219651  1
  O  O302  1  0.23077264  0.75481009  0.62493302  1
  O  O303  1  0.75995715  0.25454735  0.11843815  1
  O  O304  1  0.75515846  0.25641156  0.62101169  1
  O  O305  1  0.76344972  0.74856929  0.12770889  1
  O  O306  1  0.74892871  0.76044097  0.61893803  1
  O  O307  1  0.24007149  0.23647538  0.37963582  1
  O  O308  1  0.25033359  0.24165246  0.86374358  1
  O  O309  1  0.25633319  0.74639317  0.36531736  1
  O  O310  1  0.23966513  0.74719285  0.88245497  1
  O  O311  1  0.74500649  0.24339883  0.38104431  1
  O  O312  1  0.74066533  0.25833032  0.88139440  1
  O  O313  1  0.74563787  0.74514342  0.37799522  1
  O  O314  1  0.74113059  0.74428340  0.87696511  1
  O  O315  1  -0.01440321  0.11865938  0.01543930  1
  O  O316  1  0.01088555  0.11126438  0.50209201  1
  O  O317  1  0.01013489  0.61725503  -0.00745241  1
  O  O318  1  0.00514031  0.61814985  0.51069243  1
  O  O319  1  0.50414129  0.12288946  0.00773732  1
  O  O320  1  0.51608876  0.13695159  0.50643955  1
  O  O321  1  0.50695589  0.61311038  0.00645732  1
  O  O322  1  0.51131553  0.61038415  0.49521923  1
  O  O323  1  0.50007460  0.38405473  0.49142406  1
  O  O324  1  0.50448087  0.39105544  1.00329243  1
  O  O325  1  0.50722377  0.86797784  0.48487082  1
  O  O326  1  0.50925817  0.88658804  0.99149798  1
  O  O327  1  0.98950111  0.38527090  0.50668111  1
  O  O328  1  0.99426841  0.39393928  0.98807962  1
  O  O329  1  0.99145582  0.88093636  0.49007608  1
  O  O330  1  1.00108382  0.87106699  0.98690443  1
  O  O331  1  0.49462813  0.49462782  0.37979189  1
  O  O332  1  0.49135762  0.49714541  0.88329455  1
  O  O333  1  0.51042487  0.98530171  0.38341399  1
  O  O334  1  0.49516174  0.99463044  0.88282963  1
  O  O335  1  0.99116197  0.51281563  0.39098567  1
  O  O336  1  0.99380590  0.49621982  0.87694147  1
  O  O337  1  0.99461379  0.99004280  0.38311438  1
  O  O338  1  0.99676381  0.98457180  0.87427086  1
  O  O339  1  -0.00836034  0.01179620  0.12965386  1
  O  O340  1  -0.00532572  -0.00079031  0.61230527  1
  O  O341  1  -0.01695435  0.51055978  0.10512984  1
  O  O342  1  0.00383749  0.50861656  0.61689991  1
  O  O343  1  0.50655888  0.01016973  0.12051212  1
  O  O344  1  0.50750741  0.01854523  0.62045358  1
  O  O345  1  0.50276312  0.50753910  0.12103317  1
  O  O346  1  0.51125557  0.49437732  0.61513205  1
  O  O347  1  0.23247842  0.38739898  0.27423971  1
  O  O348  1  0.24313712  0.38789811  0.75206629  1
  O  O349  1  0.24415640  0.87405126  0.23651907  1
  O  O350  1  0.23144407  0.87261947  0.75789908  1
  O  O351  1  0.74800299  0.38182280  0.24273940  1
  O  O352  1  0.74901879  0.37732948  0.73598494  1
  O  O353  1  0.73804606  0.88546770  0.25905232  1
  O  O354  1  0.73864822  0.87101970  0.74262944  1
  O  O355  1  0.24345090  0.12252533  0.26392954  1
  O  O356  1  0.25522984  0.11797669  0.76032148  1
  O  O357  1  0.24925520  0.61682470  0.24610377  1
  O  O358  1  0.25720610  0.61047834  0.75518509  1
  O  O359  1  0.75767460  0.11918873  0.25502017  1
  O  O360  1  0.76882832  0.12686216  0.76378765  1
  O  O361  1  0.75615056  0.61982282  0.25500180  1
  O  O362  1  0.74599868  0.62603150  0.76236062  1
  O  O363  1  0.35745566  0.12192054  0.37934697  1
  O  O364  1  0.36529545  0.11712998  0.87142580  1
  O  O365  1  0.38550460  0.61037360  0.36554482  1
  O  O366  1  0.37395050  0.61465961  0.86478498  1
  O  O367  1  0.86819940  0.12040126  0.37087807  1
  O  O368  1  0.87531516  0.12544893  0.86489377  1
  O  O369  1  0.86913173  0.62182231  0.36824370  1
  O  O370  1  0.86623847  0.62073119  0.87955054  1
  O  O371  1  0.09633751  0.38288067  0.12631382  1
  O  O372  1  0.11749551  0.38843566  0.62785961  1
  O  O373  1  0.13799131  0.87656065  0.13116372  1
  O  O374  1  0.10690775  0.88343442  0.64759033  1
  O  O375  1  0.63289254  0.38211153  0.12915727  1
  O  O376  1  0.63446958  0.38485647  0.62260105  1
  O  O377  1  0.61265724  0.89146393  0.14238283  1
  O  O378  1  0.63065055  0.88172031  0.63069926  1
  O  O379  1  0.12034796  0.24842584  0.26968382  1
  O  O380  1  0.12533187  0.26366310  0.73564081  1
  O  O381  1  0.11725769  0.76346873  0.25095608  1
  O  O382  1  0.11425917  0.75538868  0.75898891  1
  O  O383  1  0.62619804  0.25794157  0.25644328  1
  O  O384  1  0.62210118  0.25023586  0.75931777  1
  O  O385  1  0.62127279  0.76098626  0.25091785  1
  O  O386  1  0.62617875  0.75682959  0.76050721  1
  O  O387  1  0.38457224  0.25201766  0.25989935  1
  O  O388  1  0.38528918  0.24964986  0.74010758  1
  O  O389  1  0.39306472  0.75766740  0.23711843  1
  O  O390  1  0.37954364  0.73961584  0.75393130  1
  O  O391  1  0.87035697  0.24060955  0.24244911  1
  O  O392  1  0.87541665  0.25163525  0.73737161  1
  O  O393  1  0.88026065  0.74500498  0.24033539  1
  O  O394  1  0.88804194  0.75172890  0.74686687  1
  O  O395  1  0.38726070  0.49456832  0.49961612  1
  O  O396  1  0.38128623  0.50966859  0.98635792  1
  O  O397  1  0.38681462  1.00931034  0.47892591  1
  O  O398  1  0.38875675  1.00480100  0.99226459  1
  O  O399  1  0.88100454  0.49110429  0.49480190  1
  O  O400  1  0.88315663  0.50209790  0.98702619  1
  O  O401  1  0.88026486  0.99534413  0.49514987  1
  O  O402  1  0.81495840  1.00826469  0.96680908  1
  O  O403  1  0.12502993  0.00937647  0.00763959  1
  O  O404  1  0.11808182  0.00139256  0.50269573  1
  O  O405  1  0.11070842  0.51642735  0.00103815  1
  O  O406  1  0.11692285  0.50899719  0.50381422  1
  O  O407  1  0.61500454  0.01326026  0.00915997  1
  O  O408  1  0.62987831  0.00922593  0.51291186  1
  O  O409  1  0.61930994  0.50875813  0.00242627  1
  O  O410  1  0.62132655  0.50215742  0.50420779  1
  O  O411  1  0.36815380  0.36023544  0.12121514  1
  O  O412  1  0.38363036  0.36554262  0.61288898  1
  O  O413  1  0.36778457  0.87481909  0.12972581  1
  O  O414  1  0.39366222  0.85554125  0.63769255  1
  O  O415  1  0.87533740  0.36605784  0.11638405  1
  O  O416  1  0.86941850  0.36878173  0.61718299  1
  O  O417  1  0.86810198  0.86645028  0.13198027  1
  O  O418  1  0.86758536  0.87175955  0.62090637  1
  O  O419  1  0.13385278  0.12502641  0.38259545  1
  O  O420  1  0.14066760  0.12013871  0.86531961  1
  O  O421  1  0.13456100  0.64541830  0.38656160  1
  O  O422  1  0.12556459  0.63720694  0.87612564  1
  O  O423  1  0.62818408  0.12716799  0.38275632  1
  O  O424  1  0.61329954  0.14128263  0.88903732  1
  O  O425  1  0.63416274  0.62986319  0.37746484  1
  O  O426  1  0.62907006  0.62963825  0.87774282  1
