# generated using pymatgen
data_V85Zn86O256
_symmetry_space_group_name_H-M   'P 1'
_cell_length_a   16.94176699
_cell_length_b   16.96323335
_cell_length_c   16.96730955
_cell_angle_alpha   90.04682258
_cell_angle_beta   89.94037206
_cell_angle_gamma   90.04796699
_symmetry_Int_Tables_number   1
_chemical_formula_structural   V85Zn86O256
_chemical_formula_sum   'V85 Zn86 O256'
_cell_volume   4876.18070692
_cell_formula_units_Z   1
loop_
 _symmetry_equiv_pos_site_id
 _symmetry_equiv_pos_as_xyz
  1  'x, y, z'
loop_
 _atom_site_type_symbol
 _atom_site_label
 _atom_site_symmetry_multiplicity
 _atom_site_fract_x
 _atom_site_fract_y
 _atom_site_fract_z
 _atom_site_occupancy
  V  V0  1  0.00592562  0.00130942  0.00118535  1
  V  V1  1  0.62195407  0.49738973  0.12480103  1
  V  V2  1  0.25112709  0.88220069  0.12769162  1
  V  V3  1  0.11450886  0.51730845  0.62420585  1
  V  V4  1  0.25114626  0.24414170  -0.00537928  1
  V  V5  1  0.74819608  0.74982683  -0.00206662  1
  V  V6  1  0.86621113  0.11342628  0.26084246  1
  V  V7  1  0.75595600  0.62414855  0.87111431  1
  V  V8  1  0.49629272  0.37166393  0.37546348  1
  V  V9  1  0.24685393  0.38279909  0.62468700  1
  V  V10  1  0.38174439  -0.00596850  0.86989071  1
  V  V11  1  0.50275907  0.50209421  0.50687138  1
  V  V12  1  0.25507532  0.50960465  0.76224197  1
  V  V13  1  0.87364535  0.25057730  0.12512685  1
  V  V14  1  0.87758493  0.87654769  0.00084002  1
  V  V15  1  0.24891129  0.74887128  0.50310578  1
  V  V16  1  0.49873122  0.49429962  -0.01366339  1
  V  V17  1  0.37455897  0.75040441  0.12352223  1
  V  V18  1  0.37726624  0.37786393  -0.01488166  1
  V  V19  1  0.61540257  0.75566961  0.86765452  1
  V  V20  1  -0.00011335  0.37912677  0.88272064  1
  V  V21  1  0.50358992  0.75412875  0.25028691  1
  V  V22  1  0.49642508  0.12945198  0.62380581  1
  V  V23  1  0.24630544  0.37558273  0.12578881  1
  V  V24  1  0.49460158  0.00701569  0.49679823  1
  V  V25  1  -0.00016489  0.61546484  0.11401169  1
  V  V26  1  0.12381679  -0.01500887  0.62656357  1
  V  V27  1  0.36516797  0.12576870  0.75536921  1
  V  V28  1  0.75664421  0.35448776  0.62265429  1
  V  V29  1  0.12691802  0.24141929  0.87147581  1
  V  V30  1  0.68221723  0.93311714  0.29525214  1
  V  V31  1  0.62315218  0.37751454  0.75470711  1
  V  V32  1  0.62092201  0.24540966  0.87956425  1
  V  V33  1  0.37562067  0.37455045  0.50327567  1
  V  V34  1  0.50366260  0.12453645  0.11608922  1
  V  V35  1  0.87526866  0.75037243  0.12344434  1
  V  V36  1  -0.00452929  0.73228574  0.75528488  1
  V  V37  1  0.62091071  0.62653735  0.50861663  1
  V  V38  1  0.76081580  0.50107499  0.74682884  1
  V  V39  1  0.74846595  0.75038738  0.50452053  1
  V  V40  1  0.37166031  0.25056110  0.62540007  1
  V  V41  1  0.63779234  0.24853321  0.37730834  1
  V  V42  1  -0.00084002  -0.00339423  0.49565603  1
  V  V43  1  0.63981385  0.13028938  0.49625659  1
  V  V44  1  0.62686094  0.74833993  0.37055831  1
  V  V45  1  0.62530391  0.62418564  -0.00090861  1
  V  V46  1  0.00279781  0.12671357  0.12751321  1
  V  V47  1  0.74664363  0.87943134  0.12412176  1
  V  V48  1  0.36798040  0.12172906  0.24698048  1
  V  V49  1  0.87666637  0.87623903  0.50215487  1
  V  V50  1  0.00900774  0.75179150  0.24320419  1
  V  V51  1  0.49861433  0.87954402  0.36967191  1
  V  V52  1  0.24534387  0.12791012  0.37445120  1
  V  V53  1  0.38889976  0.74028437  0.62728528  1
  V  V54  1  0.37514751  0.25183867  0.12290638  1
  V  V55  1  0.37685817  0.50187244  0.37488419  1
  V  V56  1  -0.00194659  0.12267099  0.62581700  1
  V  V57  1  0.36355099  -0.00156560  0.37172959  1
  V  V58  1  0.24238482  -0.00194085  0.75813232  1
  V  V59  1  0.38329804  0.87395224  -0.00538346  1
  V  V60  1  0.24326726  0.50202794  0.24505029  1
  V  V61  1  0.00316328  0.87581803  0.86590611  1
  V  V62  1  0.13196219  0.61772211  -0.00767812  1
  V  V63  1  0.87741418  0.74041951  0.63378779  1
  V  V64  1  0.74750776  0.24486672  -0.00033433  1
  V  V65  1  0.13614107  0.75319670  0.87227585  1
  V  V66  1  0.00253877  0.26223750  0.25609360  1
  V  V67  1  0.87556005  0.62256039  0.24990502  1
  V  V68  1  0.24852413  0.62450323  0.37988859  1
  V  V69  1  0.87471229  0.00185461  0.87653639  1
  V  V70  1  0.62893350  0.00404694  0.11567033  1
  V  V71  1  0.25096353  0.87012676  0.63496151  1
  V  V72  1  0.49690791  0.25622237  0.75524304  1
  V  V73  1  0.37648821  0.62401034  0.24916632  1
  V  V74  1  0.62285283  0.00106498  0.62745645  1
  V  V75  1  0.74908889  -0.00179528  0.75202545  1
  V  V76  1  0.50063462  0.62331919  0.12660949  1
  V  V77  1  0.12310890  0.37556123  0.74579116  1
  V  V78  1  0.38912413  0.62357577  0.76011703  1
  V  V79  1  0.49485765  0.24892601  0.25110234  1
  V  V80  1  -0.00262660  0.87497488  0.37111834  1
  V  V81  1  0.23453704  0.25140652  0.50392919  1
  V  V82  1  0.62277496  0.37334820  0.25193609  1
  V  V83  1  0.87360366  0.13117030  0.74947350  1
  V  V84  1  0.75042849  0.49758732  0.25356616  1
  Zn  Zn85  1  0.06878397  0.59155358  0.47226606  1
  Zn  Zn86  1  0.13110943  0.12121964  -0.00510427  1
  Zn  Zn87  1  0.74921526  0.37463267  0.12164407  1
  Zn  Zn88  1  0.75337640  0.62431167  0.37727064  1
  Zn  Zn89  1  0.12339806  0.11804367  0.49984671  1
  Zn  Zn90  1  0.25570462  0.74725179  -0.00762795  1
  Zn  Zn91  1  0.13478492  0.88558214  0.25620067  1
  Zn  Zn92  1  0.50456815  0.00067552  -0.00748604  1
  Zn  Zn93  1  0.74440065  0.12171111  0.88129442  1
  Zn  Zn94  1  0.88393526  0.36861393  0.49246718  1
  Zn  Zn95  1  0.11947938  0.49256866  0.11671207  1
  Zn  Zn96  1  0.87464474  0.37992245  0.00049253  1
  Zn  Zn97  1  0.62498504  0.50164883  0.62861101  1
  Zn  Zn98  1  0.13277434  0.00570739  0.12843735  1
  Zn  Zn99  1  0.12562995  0.74877080  0.37617481  1
  Zn  Zn100  1  0.88359478  0.50740534  0.87991385  1
  Zn  Zn101  1  0.37501067  0.87432677  0.50185135  1
  Zn  Zn102  1  0.11765779  0.25580683  0.37042350  1
  Zn  Zn103  1  0.61098160  0.87694126  0.75306920  1
  Zn  Zn104  1  -0.00542264  0.25166626  0.75075296  1
  Zn  Zn105  1  0.74982642  0.87318658  0.63161699  1
  Zn  Zn106  1  0.90446944  0.49457309  0.38825593  1
  Zn  Zn107  1  0.18552195  0.19002930  0.18635419  1
  Zn  Zn108  1  0.18035769  0.18277944  0.68417515  1
  Zn  Zn109  1  0.18887645  0.68593971  0.18068823  1
  Zn  Zn110  1  0.19180675  0.69066404  0.69709934  1
  Zn  Zn111  1  0.68796474  0.18614419  0.18904254  1
  Zn  Zn112  1  0.68294754  0.18302945  0.69328868  1
  Zn  Zn113  1  0.68943034  0.68743918  0.18651905  1
  Zn  Zn114  1  0.68760773  0.68608540  0.68949703  1
  Zn  Zn115  1  0.25874024  0.35276564  0.34716794  1
  Zn  Zn116  1  0.30833117  0.31520849  0.81107531  1
  Zn  Zn117  1  0.31424877  0.81089968  0.31083091  1
  Zn  Zn118  1  0.43628853  0.81003365  0.80889916  1
  Zn  Zn119  1  0.81899822  0.31502127  0.31056791  1
  Zn  Zn120  1  0.80972122  0.31352901  0.81444271  1
  Zn  Zn121  1  0.82005859  0.80778741  0.31490379  1
  Zn  Zn122  1  0.81095466  0.81431946  0.81415056  1
  Zn  Zn123  1  0.07906150  0.42589166  0.43888988  1
  Zn  Zn124  1  0.18767767  0.43102266  0.93619228  1
  Zn  Zn125  1  0.18533403  0.93001708  0.44173130  1
  Zn  Zn126  1  0.19301394  0.93194570  0.93980618  1
  Zn  Zn127  1  0.72791896  0.45496595  0.45718531  1
  Zn  Zn128  1  0.69101967  0.43367038  0.93562118  1
  Zn  Zn129  1  0.68635123  0.93919699  0.45717277  1
  Zn  Zn130  1  0.68714757  0.93605061  0.93810975  1
  Zn  Zn131  1  0.31753539  0.06161124  0.05736695  1
  Zn  Zn132  1  0.30781101  0.06257704  0.56429423  1
  Zn  Zn133  1  0.31302993  0.56120360  0.05614926  1
  Zn  Zn134  1  0.31115086  0.56241589  0.56496410  1
  Zn  Zn135  1  0.81470170  0.06527303  0.06582773  1
  Zn  Zn136  1  0.81467022  0.06159630  0.56467109  1
  Zn  Zn137  1  0.81184218  0.55884796  0.06051453  1
  Zn  Zn138  1  0.81671148  0.56412349  0.56678065  1
  Zn  Zn139  1  0.43306984  0.43521433  0.18299111  1
  Zn  Zn140  1  0.43729804  0.44024743  0.69091342  1
  Zn  Zn141  1  0.43973285  0.93956827  0.18646436  1
  Zn  Zn142  1  0.43315651  0.93864603  0.68252212  1
  Zn  Zn143  1  0.93490166  0.43603191  0.18706869  1
  Zn  Zn144  1  0.93923237  0.43523898  0.68292040  1
  Zn  Zn145  1  0.93985936  0.93983220  0.18670380  1
  Zn  Zn146  1  0.93435420  0.93580870  0.68539021  1
  Zn  Zn147  1  0.06047203  0.06275011  0.30837209  1
  Zn  Zn148  1  0.06220687  0.05970416  0.81101903  1
  Zn  Zn149  1  0.06566932  0.56603821  0.30106284  1
  Zn  Zn150  1  0.06826349  0.55992665  0.81315996  1
  Zn  Zn151  1  0.55766736  0.07098548  0.31271259  1
  Zn  Zn152  1  0.55830365  0.06747531  0.80907000  1
  Zn  Zn153  1  0.56477300  0.56256964  0.31773260  1
  Zn  Zn154  1  0.56917847  0.56493381  0.81193673  1
  Zn  Zn155  1  0.43119949  0.18894998  0.43681562  1
  Zn  Zn156  1  0.43345691  0.18700922  0.93354473  1
  Zn  Zn157  1  0.43759554  0.68838598  0.43990985  1
  Zn  Zn158  1  0.43879422  0.68063394  0.94119723  1
  Zn  Zn159  1  0.92472476  0.18585461  0.43493644  1
  Zn  Zn160  1  0.93791856  0.18926932  0.93731344  1
  Zn  Zn161  1  0.93100301  0.69321160  0.43124394  1
  Zn  Zn162  1  0.93920372  0.68783717  0.93827268  1
  Zn  Zn163  1  0.06494575  0.30758282  0.06149320  1
  Zn  Zn164  1  0.01849369  0.29128574  0.54794080  1
  Zn  Zn165  1  0.06666473  0.81002969  0.05674984  1
  Zn  Zn166  1  0.04714822  0.77504932  0.55158299  1
  Zn  Zn167  1  0.56193129  0.31298277  0.06012094  1
  Zn  Zn168  1  0.56883573  0.31504268  0.56446614  1
  Zn  Zn169  1  0.56470479  0.81427622  0.06247074  1
  Zn  Zn170  1  0.56057067  0.81922226  0.56006794  1
  O  O171  1  0.11425591  0.12651292  0.11903718  1
  O  O172  1  0.11816279  0.10484925  0.62312224  1
  O  O173  1  0.11746948  0.62556604  0.10927713  1
  O  O174  1  0.13105904  0.61603423  0.63417699  1
  O  O175  1  0.61547783  0.11599149  0.13097217  1
  O  O176  1  0.61778723  0.11764128  0.61870717  1
  O  O177  1  0.61989600  0.61852996  0.11988904  1
  O  O178  1  0.62482106  0.62786814  0.61222690  1
  O  O179  1  0.37124078  0.38416872  0.38542658  1
  O  O180  1  0.37447612  0.37136885  0.88576944  1
  O  O181  1  0.37827593  0.88413675  0.37621206  1
  O  O182  1  0.37714715  0.88072965  0.88246683  1
  O  O183  1  0.86618092  0.38707168  0.37801856  1
  O  O184  1  0.89243631  0.37006992  0.87329797  1
  O  O185  1  0.88833500  0.86899878  0.38422270  1
  O  O186  1  0.88211471  0.88169218  0.88253490  1
  O  O187  1  0.25851356  0.00623047  0.38238765  1
  O  O188  1  0.25886103  -0.00752866  0.86335499  1
  O  O189  1  0.26105502  0.51250527  0.36085140  1
  O  O190  1  0.24984242  0.49288736  0.85977848  1
  O  O191  1  0.73360473  -0.01413728  0.36045309  1
  O  O192  1  0.75361522  0.00185702  0.86994519  1
  O  O193  1  0.73130520  0.50762870  0.35523307  1
  O  O194  1  0.74666371  0.50792282  0.86419330  1
  O  O195  1  0.25301668  0.49303284  0.12876421  1
  O  O196  1  0.24576277  0.49412917  0.63391682  1
  O  O197  1  0.25467388  0.98539575  0.11959881  1
  O  O198  1  0.24349886  0.99133780  0.63005473  1
  O  O199  1  0.73640137  0.50137500  0.13447279  1
  O  O200  1  0.74634715  0.50074381  0.64047703  1
  O  O201  1  0.74267200  0.99281615  0.12161499  1
  O  O202  1  0.73976622  0.99933508  0.63341158  1
  O  O203  1  -0.00232868  0.36143804  0.24693005  1
  O  O204  1  0.00901094  0.37065004  0.75431514  1
  O  O205  1  -0.00233320  0.86698375  0.25468842  1
  O  O206  1  -0.00184517  0.87981175  0.76515853  1
  O  O207  1  0.50042733  0.36627177  0.25292197  1
  O  O208  1  0.50700224  0.36641827  0.74570839  1
  O  O209  1  0.49605627  0.86703295  0.25635801  1
  O  O210  1  0.49865829  0.88089255  0.75012863  1
  O  O211  1  0.48960511  0.13123199  0.24086981  1
  O  O212  1  0.48893126  0.13454934  0.74154098  1
  O  O213  1  0.49673556  0.63146113  0.24590226  1
  O  O214  1  0.48814821  0.61330408  0.74716387  1
  O  O215  1  0.99079924  0.13048668  0.23940751  1
  O  O216  1  0.98906649  0.11882418  0.74479853  1
  O  O217  1  0.99407792  0.63374097  0.23767340  1
  O  O218  1  0.99434860  0.63435692  0.76169379  1
  O  O219  1  0.37008060  0.25669986  0.00276536  1
  O  O220  1  0.36612384  0.25444746  0.50881385  1
  O  O221  1  0.37727195  0.75429223  0.00670079  1
  O  O222  1  0.36839451  0.74955952  0.51082481  1
  O  O223  1  0.86861278  0.25326899  0.00737970  1
  O  O224  1  0.90964492  0.25732142  0.51428621  1
  O  O225  1  0.86910520  0.75633545  0.00528187  1
  O  O226  1  0.86393695  0.75937471  0.50712727  1
  O  O227  1  0.12970346  0.24298997  0.50354681  1
  O  O228  1  0.13447967  0.24821189  0.98946521  1
  O  O229  1  0.14579970  0.75469102  0.49761712  1
  O  O230  1  0.12843141  0.74091861  0.98710791  1
  O  O231  1  0.61702669  0.24040416  0.48960419  1
  O  O232  1  0.63012341  0.25368344  0.99015661  1
  O  O233  1  0.62892558  0.75004926  0.49160617  1
  O  O234  1  0.62897034  0.74498884  0.99292503  1
  O  O235  1  0.49716349  0.24298425  0.13064660  1
  O  O236  1  0.49362287  0.24739451  0.63361064  1
  O  O237  1  0.49262162  0.74622786  0.12929880  1
  O  O238  1  0.48716027  0.75181770  0.61643009  1
  O  O239  1  0.99386396  0.24400787  0.12885818  1
  O  O240  1  1.01998878  0.22426315  0.63835640  1
  O  O241  1  0.99474816  0.74576333  0.12718884  1
  O  O242  1  0.99280649  0.75873227  0.65107750  1
  O  O243  1  -0.00007670  0.24428100  0.35870571  1
  O  O244  1  0.00983292  0.25793137  0.87135497  1
  O  O245  1  0.00121546  0.75705986  0.35831975  1
  O  O246  1  0.00131864  0.75815713  0.86737240  1
  O  O247  1  0.49669593  0.25396554  0.36573067  1
  O  O248  1  0.50361213  0.24630134  0.86319146  1
  O  O249  1  0.50856385  0.75953040  0.37337884  1
  O  O250  1  0.51186983  0.74611737  0.87739581  1
  O  O251  1  0.24812584  0.13319048  0.49349366  1
  O  O252  1  0.25214497  0.13975181  1.00435029  1
  O  O253  1  0.25955400  0.63099387  0.48747634  1
  O  O254  1  0.23710387  0.62965123  1.00200387  1
  O  O255  1  0.73901648  0.11993401  0.50245488  1
  O  O256  1  0.75415679  0.13890372  0.99981585  1
  O  O257  1  0.74243404  0.63934212  0.49900162  1
  O  O258  1  0.74169613  0.63067335  0.99490895  1
  O  O259  1  0.25856797  0.36733001  0.00537342  1
  O  O260  1  0.25657998  0.36580618  0.51616530  1
  O  O261  1  0.26430370  0.86853151  0.00947587  1
  O  O262  1  0.25606546  0.86723039  0.51044781  1
  O  O263  1  0.75043836  0.36120836  0.00240984  1
  O  O264  1  0.73963093  0.36230121  0.52162091  1
  O  O265  1  0.75650787  0.87018462  0.00719163  1
  O  O266  1  0.75618384  0.86570082  0.50505924  1
  O  O267  1  0.14027280  0.50758573  0.23756396  1
  O  O268  1  0.13852424  0.49574567  0.74672517  1
  O  O269  1  0.11648192  0.99537344  0.23955666  1
  O  O270  1  0.13416465  0.99947840  0.74419240  1
  O  O271  1  0.62537232  0.49540777  0.24165513  1
  O  O272  1  0.63190556  0.49127520  0.74944644  1
  O  O273  1  0.62174287  0.99817444  0.24270357  1
  O  O274  1  0.62976633  1.00298580  0.74293970  1
  O  O275  1  0.37853694  0.01081181  0.25874625  1
  O  O276  1  0.36566658  0.00746621  0.75314094  1
  O  O277  1  0.37325359  0.50992220  0.25120000  1
  O  O278  1  0.36509879  0.51110450  0.74468763  1
  O  O279  1  0.87688469  0.01454679  0.24251319  1
  O  O280  1  0.86600461  0.00288638  0.75721813  1
  O  O281  1  0.86593419  0.50797297  0.24759915  1
  O  O282  1  0.86256760  0.49557651  0.75693656  1
  O  O283  1  0.14983422  0.36485702  0.37966685  1
  O  O284  1  0.11703907  0.36841573  0.86591085  1
  O  O285  1  0.11393235  0.86878661  0.37267982  1
  O  O286  1  0.11689813  0.86095029  0.88371522  1
  O  O287  1  0.61206053  0.36337149  0.36549943  1
  O  O288  1  0.62996164  0.36278317  0.86170201  1
  O  O289  1  0.62387964  0.87492368  0.36681780  1
  O  O290  1  0.62692927  0.85880699  0.87723959  1
  O  O291  1  0.37921010  0.12911165  0.13171552  1
  O  O292  1  0.37651870  0.13101282  0.63354633  1
  O  O293  1  0.38099190  0.63232848  0.12765746  1
  O  O294  1  0.37253873  0.63659173  0.63123336  1
  O  O295  1  0.88572116  0.13577012  0.12612950  1
  O  O296  1  0.88637952  0.11306825  0.63682807  1
  O  O297  1  0.88156466  0.62980945  0.12898243  1
  O  O298  1  0.87135710  0.64108120  0.62679542  1
  O  O299  1  0.25555699  0.25722407  0.11881858  1
  O  O300  1  0.25072741  0.25596939  0.62103605  1
  O  O301  1  0.26522755  0.75452662  0.12252001  1
  O  O302  1  0.25682413  0.75421775  0.62235790  1
  O  O303  1  0.75654017  0.25033530  0.11891864  1
  O  O304  1  0.75046691  0.25629510  0.63819587  1
  O  O305  1  0.75354803  0.75777150  0.11836489  1
  O  O306  1  0.75408392  0.75338760  0.62109101  1
  O  O307  1  0.25286440  0.24072821  0.38971998  1
  O  O308  1  0.24042007  0.25653217  0.88327320  1
  O  O309  1  0.25477458  0.74207320  0.38263852  1
  O  O310  1  0.23397045  0.75479317  0.87008455  1
  O  O311  1  0.73584622  0.25234722  0.36509758  1
  O  O312  1  0.74066231  0.24695887  0.88162634  1
  O  O313  1  0.74282717  0.75077470  0.38333307  1
  O  O314  1  0.74254996  0.74412522  0.87991694  1
  O  O315  1  0.00230025  0.11725322  0.00551254  1
  O  O316  1  -0.00094668  0.10952537  0.50774192  1
  O  O317  1  0.01162408  0.62981025  0.00594522  1
  O  O318  1  0.00559417  0.67278660  0.51012207  1
  O  O319  1  0.49089103  0.12430937  0.01324955  1
  O  O320  1  0.49921094  0.11818195  0.50362534  1
  O  O321  1  0.50606587  0.61507083  0.00850361  1
  O  O322  1  0.50814580  0.61362200  0.49224312  1
  O  O323  1  0.49519501  0.37864663  0.49457533  1
  O  O324  1  0.48957780  0.38326174  1.00543022  1
  O  O325  1  0.49886689  0.89141049  0.49073190  1
  O  O326  1  0.48740279  0.87958216  1.00878236  1
  O  O327  1  1.00004625  0.39262493  0.51162676  1
  O  O328  1  1.00343539  0.37124391  0.98523220  1
  O  O329  1  0.99329171  0.87230798  0.49302052  1
  O  O330  1  0.99592432  0.88246636  0.99541914  1
  O  O331  1  0.49557554  0.49149606  0.38262890  1
  O  O332  1  0.51017806  0.50167666  0.88824912  1
  O  O333  1  0.48923753  1.00038843  0.37975488  1
  O  O334  1  0.48662839  1.00737219  0.87489613  1
  O  O335  1  1.01709037  0.51757599  0.38969482  1
  O  O336  1  1.00191891  0.48319492  0.86834314  1
  O  O337  1  1.00479445  0.99118681  0.38836382  1
  O  O338  1  0.99800139  0.99445561  0.88547952  1
  O  O339  1  -0.00118950  0.00729817  0.11164694  1
  O  O340  1  0.00644651  -0.00134168  0.61749091  1
  O  O341  1  0.00146839  0.51186840  0.12918697  1
  O  O342  1  0.01575830  0.50786382  0.64048187  1
  O  O343  1  0.50840710  0.00832322  0.12301514  1
  O  O344  1  0.50274296  0.00841315  0.61563843  1
  O  O345  1  0.50977792  0.50374187  0.12202285  1
  O  O346  1  0.50501462  0.49051349  0.61017888  1
  O  O347  1  0.26128454  0.39122082  0.23787581  1
  O  O348  1  0.24718524  0.38416479  0.74114239  1
  O  O349  1  0.25234525  0.86888505  0.23284008  1
  O  O350  1  0.25243352  0.88526988  0.73620614  1
  O  O351  1  0.74116846  0.38266927  0.24400252  1
  O  O352  1  0.74459600  0.38431705  0.74629047  1
  O  O353  1  0.75047732  0.87223834  0.24422177  1
  O  O354  1  0.74383195  0.88777532  0.75158910  1
  O  O355  1  0.26057193  0.13380352  0.25693974  1
  O  O356  1  0.25596656  0.11331950  0.74239439  1
  O  O357  1  0.25817303  0.62283402  0.25310714  1
  O  O358  1  0.25939608  0.61318491  0.75150041  1
  O  O359  1  0.76743877  0.12812234  0.24394110  1
  O  O360  1  0.75575261  0.11284008  0.75244809  1
  O  O361  1  0.76117021  0.62023687  0.24771744  1
  O  O362  1  0.74393452  0.61140979  0.75800290  1
  O  O363  1  0.36424018  0.11920165  0.36754690  1
  O  O364  1  0.37368118  0.11824768  0.86085097  1
  O  O365  1  0.37250150  0.62158645  0.36735478  1
  O  O366  1  0.37822478  0.63004119  0.85955954  1
  O  O367  1  0.87632919  0.11971478  0.36113360  1
  O  O368  1  0.87452120  0.11641189  0.86828368  1
  O  O369  1  0.87395496  0.62255727  0.36065503  1
  O  O370  1  0.85959084  0.62773819  0.88025498  1
  O  O371  1  0.14086305  0.37587138  0.11584448  1
  O  O372  1  0.13282521  0.38518339  0.63873524  1
  O  O373  1  0.14522099  0.87048342  0.11889410  1
  O  O374  1  0.13312611  0.88181615  0.62114287  1
  O  O375  1  0.62313742  0.38264080  0.13243831  1
  O  O376  1  0.63572434  0.37418477  0.63939475  1
  O  O377  1  0.63816319  0.88197609  0.12462650  1
  O  O378  1  0.62529465  0.89114693  0.62323535  1
  O  O379  1  0.10709991  0.24648980  0.24761011  1
  O  O380  1  0.13062142  0.25969996  0.75688676  1
  O  O381  1  0.11568715  0.75259797  0.24474943  1
  O  O382  1  0.11186538  0.74443260  0.76491835  1
  O  O383  1  0.61228448  0.25090124  0.25499529  1
  O  O384  1  0.61385586  0.25486008  0.75547026  1
  O  O385  1  0.62220407  0.74485425  0.26290761  1
  O  O386  1  0.62826999  0.75252266  0.76445162  1
  O  O387  1  0.38677825  0.24110587  0.24133568  1
  O  O388  1  0.37707775  0.24467756  0.74654584  1
  O  O389  1  0.38266267  0.74256286  0.24258086  1
  O  O390  1  0.37895759  0.73560103  0.73845193  1
  O  O391  1  0.88450582  0.24355481  0.24167771  1
  O  O392  1  0.87397232  0.23419693  0.75659790  1
  O  O393  1  0.88297258  0.74139265  0.24161266  1
  O  O394  1  0.88543070  0.75455291  0.74873290  1
  O  O395  1  0.38404243  0.49620198  0.49743433  1
  O  O396  1  0.38606284  0.49112700  1.00250102  1
  O  O397  1  0.38020003  1.00142776  0.49230002  1
  O  O398  1  0.37560368  0.99204895  0.98683856  1
  O  O399  1  0.83801302  0.49352540  0.48526509  1
  O  O400  1  0.86797904  0.49322873  0.99233556  1
  O  O401  1  0.88137944  0.98403620  0.50690319  1
  O  O402  1  0.88277599  0.99643637  0.99493983  1
  O  O403  1  0.12028244  0.00130728  0.00267938  1
  O  O404  1  0.11607217  -0.00360560  0.50774848  1
  O  O405  1  0.13063016  0.51323776  -0.00322556  1
  O  O406  1  0.12970333  0.50743742  0.52053125  1
  O  O407  1  0.62245943  -0.00145529  0.01048748  1
  O  O408  1  0.61462947  0.01131295  0.50663066  1
  O  O409  1  0.62154743  0.50168749  0.00771079  1
  O  O410  1  0.62316692  0.51103296  0.50109170  1
  O  O411  1  0.36656701  0.36726276  0.11623867  1
  O  O412  1  0.36712599  0.37046276  0.62363742  1
  O  O413  1  0.36944250  0.86851787  0.12064793  1
  O  O414  1  0.36752876  0.86166084  0.62345644  1
  O  O415  1  0.87316710  0.36200656  0.12363073  1
  O  O416  1  0.85790385  0.37785226  0.62696479  1
  O  O417  1  0.86522236  0.87175013  0.12106433  1
  O  O418  1  0.87213588  0.86503295  0.61841875  1
  O  O419  1  0.13675924  0.12684731  0.37518686  1
  O  O420  1  0.12136164  0.13749908  0.87342788  1
  O  O421  1  0.13788851  0.63040532  0.37298527  1
  O  O422  1  0.11976187  0.63490884  0.88620484  1
  O  O423  1  0.61837545  0.13551871  0.38480577  1
  O  O424  1  0.62539717  0.13997852  0.86866024  1
  O  O425  1  0.62639160  0.63627280  0.38552443  1
  O  O426  1  0.63352057  0.63610447  0.88012784  1
