# generated using pymatgen
data_V85Zn86O256
_symmetry_space_group_name_H-M   'P 1'
_cell_length_a   16.95058470
_cell_length_b   16.94285870
_cell_length_c   16.93534859
_cell_angle_alpha   89.91906902
_cell_angle_beta   90.14632019
_cell_angle_gamma   89.96675742
_symmetry_Int_Tables_number   1
_chemical_formula_structural   V85Zn86O256
_chemical_formula_sum   'V85 Zn86 O256'
_cell_volume   4863.66427850
_cell_formula_units_Z   1
loop_
 _symmetry_equiv_pos_site_id
 _symmetry_equiv_pos_as_xyz
  1  'x, y, z'
loop_
 _atom_site_type_symbol
 _atom_site_label
 _atom_site_symmetry_multiplicity
 _atom_site_fract_x
 _atom_site_fract_y
 _atom_site_fract_z
 _atom_site_occupancy
  V  V0  1  0.75030924  0.00235925  0.74714864  1
  V  V1  1  0.24359283  0.24777332  0.00264699  1
  V  V2  1  0.12248628  0.87673985  0.74914978  1
  V  V3  1  0.25838724  -0.00231444  0.26301526  1
  V  V4  1  0.87460003  0.49802898  0.87334056  1
  V  V5  1  0.37885535  0.63531530  0.24662697  1
  V  V6  1  0.37946877  0.11528594  0.25170061  1
  V  V7  1  0.50244954  0.49831226  0.00720898  1
  V  V8  1  0.62379296  0.74734697  0.87566611  1
  V  V9  1  0.25071280  0.87383400  0.62392448  1
  V  V10  1  0.37260945  0.13163014  0.74883149  1
  V  V11  1  0.13186741  0.50232339  0.64701730  1
  V  V12  1  0.74900083  0.37595568  0.12011875  1
  V  V13  1  0.51290726  0.00155348  0.00091385  1
  V  V14  1  0.12625376  0.01081834  0.12703467  1
  V  V15  1  0.24993023  0.62096949  0.87005968  1
  V  V16  1  0.62272123  0.63338991  0.49793068  1
  V  V17  1  0.75533471  0.86585725  0.62520958  1
  V  V18  1  0.12248360  0.00169116  0.61706182  1
  V  V19  1  0.23122680  0.37859712  0.12591880  1
  V  V20  1  0.63325969  0.37128979  0.75867107  1
  V  V21  1  0.75118485  0.14374956  0.37933223  1
  V  V22  1  0.73585546  0.12790803  0.87414440  1
  V  V23  1  -0.00984835  0.75415165  0.74838994  1
  V  V24  1  -0.00165625  0.87882616  0.87614685  1
  V  V25  1  -0.00565130  0.88148893  0.37447109  1
  V  V26  1  0.25282344  0.87338638  0.12588014  1
  V  V27  1  0.00140894  0.13494001  0.62364493  1
  V  V28  1  0.12372559  0.74841319  0.37515722  1
  V  V29  1  -0.00944863  0.63107824  0.62371471  1
  V  V30  1  0.12453205  0.75202415  0.87608982  1
  V  V31  1  -0.00018636  0.26512866  0.24641920  1
  V  V32  1  0.37227567  0.37521578  0.00596720  1
  V  V33  1  0.12199333  0.62412636  0.50319265  1
  V  V34  1  0.49925360  0.85506203  0.37241812  1
  V  V35  1  0.74757265  0.36902343  0.61533989  1
  V  V36  1  0.74496814  -0.00012711  0.26390176  1
  V  V37  1  0.12486542  0.61781841  0.00550720  1
  V  V38  1  0.50087876  0.36644011  0.87589732  1
  V  V39  1  0.37339079  0.00051889  0.87591195  1
  V  V40  1  0.24001638  0.49900240  0.24774336  1
  V  V41  1  0.87457004  0.87430370  0.49959899  1
  V  V42  1  0.87566840  0.87685220  0.00180518  1
  V  V43  1  0.74500010  0.88325422  0.12572714  1
  V  V44  1  0.50980670  0.24805071  0.24085607  1
  V  V45  1  0.87903995  0.36975005  -0.00318152  1
  V  V46  1  0.49799735  0.12237608  0.62368302  1
  V  V47  1  0.74482888  0.50065763  0.24327649  1
  V  V48  1  0.62616074  0.61996765  0.00712955  1
  V  V49  1  0.62636370  0.00044703  0.61965230  1
  V  V50  1  0.49896706  0.87398539  0.87449968  1
  V  V51  1  0.25471705  0.75007532  0.00189809  1
  V  V52  1  0.37289878  0.49752493  0.86864245  1
  V  V53  1  0.73791930  0.24467135  -0.00569527  1
  V  V54  1  0.87903890  0.13310131  0.74782095  1
  V  V55  1  0.86556186  0.62713060  0.74756686  1
  V  V56  1  0.49568246  0.63842720  0.12511265  1
  V  V57  1  0.12653065  0.14389313  0.48713572  1
  V  V58  1  0.00076236  0.74938996  0.24986598  1
  V  V59  1  0.87507868  0.62418751  0.24908380  1
  V  V60  1  0.87481595  0.00447346  0.87488161  1
  V  V61  1  0.49910415  0.50070917  0.49424999  1
  V  V62  1  0.25276328  0.62140247  0.37477037  1
  V  V63  1  0.62202631  0.37613576  0.24127977  1
  V  V64  1  0.88257426  0.11713821  0.24915785  1
  V  V65  1  0.62243762  0.86154412  0.25281557  1
  V  V66  1  0.26357132  0.36761316  0.63369335  1
  V  V67  1  0.12557411  0.87430544  0.24837999  1
  V  V68  1  0.51518015  0.11864439  0.11930965  1
  V  V69  1  0.74794629  0.61908030  0.87586076  1
  V  V70  1  0.87608970  0.75030286  0.12452158  1
  V  V71  1  0.38061120  0.48898018  0.37107424  1
  V  V72  1  0.24922779  0.74791647  0.50143008  1
  V  V73  1  -0.00335625  0.49307083  0.50488886  1
  V  V74  1  0.56553760  0.31716809  0.42108188  1
  V  V75  1  0.37737418  0.87492062  0.00540137  1
  V  V76  1  0.49651785  0.00084428  0.48531600  1
  V  V77  1  0.87569730  0.49907240  0.37662491  1
  V  V78  1  0.62653835  0.50166488  0.63187173  1
  V  V79  1  0.62295782  0.87408408  0.74820618  1
  V  V80  1  0.74433806  0.63241691  0.37315082  1
  V  V81  1  0.37569448  0.74528920  0.62501079  1
  V  V82  1  0.11907011  0.25374999  0.85895763  1
  V  V83  1  0.24940862  -0.00016973  0.74958816  1
  V  V84  1  -0.00110733  0.01021900  0.00721926  1
  Zn  Zn85  1  0.16325614  0.32074408  0.31454382  1
  Zn  Zn86  1  0.49665021  0.74491463  0.74959637  1
  Zn  Zn87  1  0.63101831  0.13504800  0.49600226  1
  Zn  Zn88  1  0.87588931  0.23895806  0.11970936  1
  Zn  Zn89  1  0.27831214  0.19022465  0.41896974  1
  Zn  Zn90  1  0.75311371  0.74794621  0.50124595  1
  Zn  Zn91  1  0.37311704  0.25069465  0.58877930  1
  Zn  Zn92  1  0.00974758  0.36658127  0.38492057  1
  Zn  Zn93  1  0.87567531  0.25000334  0.61916323  1
  Zn  Zn94  1  0.75074216  0.75042924  0.00103715  1
  Zn  Zn95  1  0.86647502  0.36411455  0.49227088  1
  Zn  Zn96  1  0.37210891  0.61838035  0.74425859  1
  Zn  Zn97  1  0.49648090  0.62076203  0.62777786  1
  Zn  Zn98  1  0.12303926  0.12801000  0.00074656  1
  Zn  Zn99  1  0.37166300  0.87965098  0.49256977  1
  Zn  Zn100  1  -0.00572506  0.00614417  0.49438252  1
  Zn  Zn101  1  0.24757875  0.12625684  0.87680678  1
  Zn  Zn102  1  0.00361690  0.37800210  0.85617473  1
  Zn  Zn103  1  0.37445250  0.24422682  0.12212732  1
  Zn  Zn104  1  0.00517961  0.49149011  0.00440232  1
  Zn  Zn105  1  0.00922060  0.61887668  0.12997036  1
  Zn  Zn106  1  0.49961862  0.24801529  0.75238266  1
  Zn  Zn107  1  0.19756435  0.19148201  0.20627741  1
  Zn  Zn108  1  0.19256438  0.18501001  0.67809396  1
  Zn  Zn109  1  0.19368721  0.68788274  0.18746301  1
  Zn  Zn110  1  0.18365437  0.68642075  0.68810670  1
  Zn  Zn111  1  0.69294873  0.18640552  0.18554866  1
  Zn  Zn112  1  0.68509314  0.18960076  0.68896723  1
  Zn  Zn113  1  0.68937147  0.68931638  0.18322789  1
  Zn  Zn114  1  0.68249552  0.68605290  0.68837007  1
  Zn  Zn115  1  0.32965642  0.31259855  0.30098115  1
  Zn  Zn116  1  0.30657339  0.31487620  0.81369092  1
  Zn  Zn117  1  0.31506312  0.81191109  0.31450710  1
  Zn  Zn118  1  0.31234362  0.81090467  0.81251514  1
  Zn  Zn119  1  0.81856250  0.31244300  0.30700055  1
  Zn  Zn120  1  0.81261527  0.31195247  0.81030518  1
  Zn  Zn121  1  0.81324064  0.81379497  0.31267184  1
  Zn  Zn122  1  0.80882448  0.81293337  0.81474458  1
  Zn  Zn123  1  0.19173093  0.43698498  0.45533030  1
  Zn  Zn124  1  0.18777623  0.43434761  0.93236360  1
  Zn  Zn125  1  0.18442090  0.93565623  0.43711045  1
  Zn  Zn126  1  0.18619895  0.94029579  0.93934520  1
  Zn  Zn127  1  0.68907202  0.45174384  0.43772981  1
  Zn  Zn128  1  0.68817689  0.43822491  0.93820167  1
  Zn  Zn129  1  0.68370454  0.93291273  0.43777489  1
  Zn  Zn130  1  0.69095108  0.93657761  0.93451531  1
  Zn  Zn131  1  0.31641853  0.06290133  0.06751851  1
  Zn  Zn132  1  0.31159865  0.06235857  0.55888692  1
  Zn  Zn133  1  0.31355376  0.56021344  0.06379429  1
  Zn  Zn134  1  0.30739536  0.54568040  0.56029578  1
  Zn  Zn135  1  0.80675518  0.06314642  0.06408974  1
  Zn  Zn136  1  0.81506790  0.06149509  0.55651130  1
  Zn  Zn137  1  0.81771335  0.56021370  0.06155235  1
  Zn  Zn138  1  0.80683475  0.55943185  0.56348645  1
  Zn  Zn139  1  0.43585109  0.44270568  0.18656635  1
  Zn  Zn140  1  0.43993962  0.43341522  0.68733232  1
  Zn  Zn141  1  0.44354871  0.93532268  0.18704916  1
  Zn  Zn142  1  0.43551555  0.93689577  0.68520674  1
  Zn  Zn143  1  0.93439667  0.43932871  0.18118936  1
  Zn  Zn144  1  0.92943572  0.44607777  0.68621495  1
  Zn  Zn145  1  0.93560244  0.94103679  0.18923303  1
  Zn  Zn146  1  0.93502820  0.94434572  0.68303238  1
  Zn  Zn147  1  0.06623107  0.06202320  0.31073938  1
  Zn  Zn148  1  0.06319527  0.06728837  0.81253907  1
  Zn  Zn149  1  0.06090833  0.55860489  0.31653217  1
  Zn  Zn150  1  0.05260986  0.56908606  0.82059720  1
  Zn  Zn151  1  0.57309308  0.06374857  0.30917135  1
  Zn  Zn152  1  0.55889640  0.05895268  0.80921034  1
  Zn  Zn153  1  0.56254199  0.56492859  0.30919656  1
  Zn  Zn154  1  0.55650164  0.55803794  0.81321866  1
  Zn  Zn155  1  0.44611695  0.17842744  0.43118263  1
  Zn  Zn156  1  0.43440179  0.18594937  0.94091513  1
  Zn  Zn157  1  0.43313314  0.68224698  0.44061133  1
  Zn  Zn158  1  0.43672141  0.68576998  0.93808668  1
  Zn  Zn159  1  0.93630741  0.19013227  0.43458480  1
  Zn  Zn160  1  0.93610181  0.18991594  0.93298297  1
  Zn  Zn161  1  0.93241582  0.69185091  0.43773006  1
  Zn  Zn162  1  0.93798269  0.68831222  0.93775566  1
  Zn  Zn163  1  0.05787076  0.30542085  0.06603716  1
  Zn  Zn164  1  0.06685459  0.32211152  0.68282870  1
  Zn  Zn165  1  0.06399290  0.81385595  0.06308584  1
  Zn  Zn166  1  0.05837342  0.81244252  0.56308867  1
  Zn  Zn167  1  0.56432812  0.31167642  0.06237124  1
  Zn  Zn168  1  0.55787227  0.31399252  0.58215703  1
  Zn  Zn169  1  0.56638835  0.81409332  0.06272365  1
  Zn  Zn170  1  0.56023753  0.81331218  0.56121530  1
  O  O171  1  0.13291361  0.11214278  0.12735663  1
  O  O172  1  0.12008121  0.11817625  0.61535110  1
  O  O173  1  0.12885006  0.63203179  0.10899651  1
  O  O174  1  0.11028808  0.62539260  0.62101834  1
  O  O175  1  0.61440064  0.12367897  0.12641696  1
  O  O176  1  0.61847191  0.11864315  0.62083144  1
  O  O177  1  0.61989564  0.62973627  0.11189825  1
  O  O178  1  0.62226450  0.61689504  0.61957219  1
  O  O179  1  0.37779838  0.38934952  0.36832704  1
  O  O180  1  0.37893982  0.37951309  0.88554141  1
  O  O181  1  0.39386582  0.87144216  0.37365646  1
  O  O182  1  0.37813429  0.88004376  0.88400802  1
  O  O183  1  0.87264142  0.38976374  0.37504160  1
  O  O184  1  0.87359217  0.38216242  0.87871239  1
  O  O185  1  0.88459257  0.87049560  0.38177316  1
  O  O186  1  0.87741214  0.88350238  0.88120518  1
  O  O187  1  0.25077664  -0.00941849  0.36215294  1
  O  O188  1  0.25502165  0.00114792  0.86840476  1
  O  O189  1  0.26124865  0.50577586  0.36995635  1
  O  O190  1  0.25908743  0.50903930  0.88105552  1
  O  O191  1  0.75032080  -0.00436940  0.36463449  1
  O  O192  1  0.75612612  0.00746213  0.86931678  1
  O  O193  1  0.75702920  0.51105460  0.36616904  1
  O  O194  1  0.75387780  0.51320438  0.87649858  1
  O  O195  1  0.25632956  0.48985711  0.13490320  1
  O  O196  1  0.22822148  0.53173757  0.64580179  1
  O  O197  1  0.24377770  0.98665510  0.12506747  1
  O  O198  1  0.24266559  0.99328270  0.62931497  1
  O  O199  1  0.75573221  0.49140230  0.13255777  1
  O  O200  1  0.73299345  0.49163727  0.62344740  1
  O  O201  1  0.75331070  0.98668863  0.13395013  1
  O  O202  1  0.74131776  0.99428244  0.62718624  1
  O  O203  1  -0.00778030  0.36769933  0.25145470  1
  O  O204  1  -0.00987571  0.37359151  0.74404273  1
  O  O205  1  0.00334823  0.86904306  0.25586878  1
  O  O206  1  0.00084111  0.87111223  0.75335368  1
  O  O207  1  0.51452273  0.36896574  0.23605340  1
  O  O208  1  0.50765332  0.37071502  0.75984549  1
  O  O209  1  0.51215967  0.87545873  0.25911545  1
  O  O210  1  0.50571547  0.87399225  0.75671423  1
  O  O211  1  0.50272540  0.12717869  0.23882096  1
  O  O212  1  0.49168272  0.12394043  0.74102657  1
  O  O213  1  0.49307844  0.62020762  0.23677928  1
  O  O214  1  0.49340732  0.62672169  0.74742705  1
  O  O215  1  0.98408795  0.11845865  0.25320394  1
  O  O216  1  0.98849235  0.11741864  0.74062250  1
  O  O217  1  0.99381259  0.63170438  0.25019517  1
  O  O218  1  0.98641984  0.63552256  0.74647495  1
  O  O219  1  0.36199004  0.25751235  -0.00016019  1
  O  O220  1  0.36468288  0.23785664  0.47778772  1
  O  O221  1  0.36237730  0.75812779  -0.00660843  1
  O  O222  1  0.36724923  0.75121961  0.50968757  1
  O  O223  1  0.86648443  0.25567573  -0.00136743  1
  O  O224  1  0.87856011  0.25317487  0.50597107  1
  O  O225  1  0.87525901  0.75708049  0.00769909  1
  O  O226  1  0.87108078  0.76428098  0.50083662  1
  O  O227  1  0.12895462  0.24024522  0.49031295  1
  O  O228  1  0.13370599  0.24796625  0.99824037  1
  O  O229  1  0.12700448  0.74031292  0.49804276  1
  O  O230  1  0.13622519  0.74778831  0.99443372  1
  O  O231  1  0.61296753  0.25789424  0.48976180  1
  O  O232  1  0.63948900  0.25409775  0.99664406  1
  O  O233  1  0.62756909  0.73664869  0.50592495  1
  O  O234  1  0.62646289  0.74340326  0.98864854  1
  O  O235  1  0.50187924  0.23654610  0.12437908  1
  O  O236  1  0.49181711  0.23446244  0.62628222  1
  O  O237  1  0.49863617  0.73773445  0.11428601  1
  O  O238  1  0.48835604  0.74929298  0.62515335  1
  O  O239  1  0.99089019  0.24901548  0.13860453  1
  O  O240  1  1.00503656  0.23699668  0.62872456  1
  O  O241  1  0.99318743  0.74864224  0.13164947  1
  O  O242  1  0.99989681  0.74058281  0.63455979  1
  O  O243  1  -0.00735868  0.25327011  0.35505862  1
  O  O244  1  0.01623766  0.25029868  0.87540293  1
  O  O245  1  0.00559250  0.75555475  0.36815565  1
  O  O246  1  0.00372702  0.75859511  0.86880564  1
  O  O247  1  0.50826904  0.25358948  0.36245247  1
  O  O248  1  0.49537947  0.26300201  0.87920965  1
  O  O249  1  0.50141535  0.75706549  0.38057523  1
  O  O250  1  0.50652035  0.75602745  0.87556672  1
  O  O251  1  0.23384086  0.11889722  0.49855151  1
  O  O252  1  0.25012875  0.13412923  1.00047884  1
  O  O253  1  0.23949877  0.62658446  0.49581711  1
  O  O254  1  0.24338117  0.63255851  0.99511156  1
  O  O255  1  0.75013101  0.12296032  0.48417153  1
  O  O256  1  0.75213902  0.13594982  0.99110919  1
  O  O257  1  0.74177543  0.62492738  0.49152966  1
  O  O258  1  0.74250430  0.62607471  0.99439142  1
  O  O259  1  0.25561306  0.37031298  0.00656047  1
  O  O260  1  0.26288708  0.42556574  0.54115668  1
  O  O261  1  0.25643971  0.86980296  0.00503076  1
  O  O262  1  0.25069929  0.86699021  0.50502157  1
  O  O263  1  0.75546244  0.36562819  0.00130760  1
  O  O264  1  0.74437693  0.38107928  0.51205863  1
  O  O265  1  0.75635960  0.87506284  0.00832140  1
  O  O266  1  0.75445869  0.87252361  0.50751895  1
  O  O267  1  0.14079143  0.51154175  0.25149020  1
  O  O268  1  0.11162768  0.50910488  0.74416244  1
  O  O269  1  0.13534052  0.99288884  0.24390036  1
  O  O270  1  0.12928232  0.99634953  0.74061842  1
  O  O271  1  0.63709938  0.49233015  0.25227386  1
  O  O272  1  0.61713030  0.48666626  0.74270246  1
  O  O273  1  0.64061315  0.98954294  0.24969455  1
  O  O274  1  0.62873470  0.99491200  0.73792259  1
  O  O275  1  0.36943572  0.00105300  0.24428330  1
  O  O276  1  0.36953756  0.00667565  0.75520341  1
  O  O277  1  0.37045066  0.50781189  0.25747260  1
  O  O278  1  0.38196333  0.49859916  0.76504599  1
  O  O279  1  0.86191055  0.00764115  0.24841576  1
  O  O280  1  0.86673163  0.00823009  0.75440101  1
  O  O281  1  0.86491843  0.50576516  0.25615474  1
  O  O282  1  0.87448908  0.51391596  0.76428422  1
  O  O283  1  0.12109521  0.39306150  0.38393689  1
  O  O284  1  0.12260377  0.35961878  0.87599517  1
  O  O285  1  0.11861864  0.86607236  0.36786065  1
  O  O286  1  0.11857177  0.87262969  0.86917324  1
  O  O287  1  0.63017057  0.37585369  0.36580809  1
  O  O288  1  0.61832894  0.38083058  0.86489659  1
  O  O289  1  0.61440562  0.87492590  0.36353138  1
  O  O290  1  0.62199208  0.86601263  0.86926570  1
  O  O291  1  0.38905304  0.12481233  0.13298767  1
  O  O292  1  0.38089603  0.12473718  0.63085523  1
  O  O293  1  0.38316969  0.62198937  0.13256416  1
  O  O294  1  0.37253476  0.63085788  0.62363204  1
  O  O295  1  0.86331755  0.12301658  0.14371375  1
  O  O296  1  0.88390768  0.12193026  0.63022905  1
  O  O297  1  0.87075507  0.63973059  0.12904762  1
  O  O298  1  0.87686425  0.62026433  0.63558332  1
  O  O299  1  0.25159746  0.26020207  0.12088238  1
  O  O300  1  0.25122184  0.26494852  0.61934374  1
  O  O301  1  0.24730794  0.76418398  0.11697370  1
  O  O302  1  0.25260097  0.75394035  0.62029935  1
  O  O303  1  0.75221309  0.25465273  0.11113389  1
  O  O304  1  0.74462043  0.26621421  0.62461030  1
  O  O305  1  0.75849365  0.76220992  0.12335716  1
  O  O306  1  0.74382643  0.76321473  0.62738411  1
  O  O307  1  0.24397275  0.24114358  0.32393514  1
  O  O308  1  0.23797416  0.25023811  0.88327729  1
  O  O309  1  0.24383072  0.74347659  0.38169409  1
  O  O310  1  0.24421154  0.74618177  0.88363548  1
  O  O311  1  0.75122392  0.24220329  0.36998654  1
  O  O312  1  0.75294358  0.24218545  0.88494979  1
  O  O313  1  0.75446307  0.73561288  0.37415746  1
  O  O314  1  0.74194175  0.74005576  0.87850410  1
  O  O315  1  -0.00135805  0.11337439  -0.00221600  1
  O  O316  1  0.01002157  0.12362162  0.50531941  1
  O  O317  1  0.01881354  0.63158893  -0.00148197  1
  O  O318  1  0.00200405  0.62465382  0.50824851  1
  O  O319  1  0.49753243  0.11651983  0.01025219  1
  O  O320  1  0.50867608  0.11414845  0.50424764  1
  O  O321  1  0.50625611  0.61735538  0.00317009  1
  O  O322  1  0.50710881  0.61714675  0.50299698  1
  O  O323  1  0.51320601  0.37790903  0.48740604  1
  O  O324  1  0.49426213  0.37951532  0.99703210  1
  O  O325  1  0.50224080  0.88176014  0.48516151  1
  O  O326  1  0.49344509  0.87979961  0.99598716  1
  O  O327  1  0.99239165  0.39172280  0.50461458  1
  O  O328  1  0.98619305  0.37068070  0.99827880  1
  O  O329  1  0.99321812  0.87313115  0.49090344  1
  O  O330  1  0.99469524  0.88330940  0.99503052  1
  O  O331  1  0.49288716  0.50390928  0.37969081  1
  O  O332  1  0.49231344  0.48879637  0.88635904  1
  O  O333  1  0.50807298  0.99962139  0.38427513  1
  O  O334  1  0.49312237  0.99357667  0.88047948  1
  O  O335  1  0.98963591  0.50343663  0.38669809  1
  O  O336  1  0.98933066  0.49750642  0.88424874  1
  O  O337  1  1.00658457  0.98439076  0.37448487  1
  O  O338  1  0.99495103  0.99624063  0.88234400  1
  O  O339  1  0.01137834  -0.00795724  0.11747034  1
  O  O340  1  0.00963301  0.00914753  0.62309238  1
  O  O341  1  -0.01380184  0.50982854  0.11417315  1
  O  O342  1  0.00283841  0.51513446  0.62111064  1
  O  O343  1  0.50059101  0.00961855  0.11588856  1
  O  O344  1  0.50628173  0.00727006  0.61947608  1
  O  O345  1  0.49660190  0.50729783  0.11068114  1
  O  O346  1  0.50904016  0.49501356  0.61427362  1
  O  O347  1  0.24877505  0.38312639  0.24077951  1
  O  O348  1  0.25746262  0.38210246  0.73417203  1
  O  O349  1  0.24902368  0.87823773  0.24230793  1
  O  O350  1  0.24318800  0.88018516  0.74493842  1
  O  O351  1  0.74418851  0.37972990  0.23991932  1
  O  O352  1  0.73658249  0.37416746  0.74522438  1
  O  O353  1  0.74292734  0.88146335  0.24767265  1
  O  O354  1  0.74408967  0.88167158  0.74401497  1
  O  O355  1  0.26546798  0.10479603  0.23632019  1
  O  O356  1  0.25666394  0.11661819  0.74825402  1
  O  O357  1  0.25892606  0.61914430  0.25380957  1
  O  O358  1  0.25093940  0.63651770  0.76805465  1
  O  O359  1  0.75190528  0.11458034  0.25907980  1
  O  O360  1  0.75426097  0.12037936  0.75404937  1
  O  O361  1  0.75223155  0.61820073  0.25259733  1
  O  O362  1  0.75905882  0.63339069  0.75846772  1
  O  O363  1  0.37873606  0.12453916  0.35415600  1
  O  O364  1  0.37330533  0.11574645  0.86827247  1
  O  O365  1  0.37006122  0.61897861  0.36717091  1
  O  O366  1  0.36636765  0.61537230  0.87754054  1
  O  O367  1  0.86130809  0.12533671  0.36172763  1
  O  O368  1  0.86906790  0.12083325  0.86526798  1
  O  O369  1  0.86881566  0.61760493  0.36824502  1
  O  O370  1  0.86658825  0.62066783  0.87298716  1
  O  O371  1  0.13256311  0.37881032  0.11568215  1
  O  O372  1  0.13931506  0.39664827  0.63052076  1
  O  O373  1  0.13360644  0.88057605  0.13119577  1
  O  O374  1  0.12870494  0.88049926  0.63081230  1
  O  O375  1  0.63835479  0.37455436  0.12782425  1
  O  O376  1  0.63166388  0.38128441  0.63603842  1
  O  O377  1  0.63183595  0.87122318  0.13833155  1
  O  O378  1  0.62918383  0.88157181  0.62969571  1
  O  O379  1  0.10390050  0.24908164  0.24225490  1
  O  O380  1  0.13038037  0.24917809  0.75548998  1
  O  O381  1  0.12141642  0.75436572  0.25363897  1
  O  O382  1  0.11234102  0.75598130  0.75618057  1
  O  O383  1  0.61851500  0.25776455  0.24230616  1
  O  O384  1  0.61911924  0.26644811  0.74696684  1
  O  O385  1  0.63148176  0.76272624  0.25097517  1
  O  O386  1  0.62199250  0.75356697  0.76194562  1
  O  O387  1  0.39750458  0.24213143  0.24076204  1
  O  O388  1  0.37430536  0.23512002  0.75844485  1
  O  O389  1  0.37104375  0.73498134  0.25155728  1
  O  O390  1  0.37334582  0.74963592  0.73643552  1
  O  O391  1  0.88209937  0.23744201  0.24479737  1
  O  O392  1  0.86651216  0.23658478  0.74106105  1
  O  O393  1  0.87980402  0.74564056  0.24269160  1
  O  O394  1  0.88393188  0.74561315  0.75752156  1
  O  O395  1  0.39191089  0.50784746  0.48812582  1
  O  O396  1  0.38088533  0.49242564  0.99253140  1
  O  O397  1  0.39206985  0.99731313  0.50427864  1
  O  O398  1  0.38079459  0.99199504  0.99362182  1
  O  O399  1  0.87944337  0.50249977  0.49227591  1
  O  O400  1  0.86951183  0.48934097  0.98689870  1
  O  O401  1  0.87945915  0.98288101  0.50363656  1
  O  O402  1  0.88092705  0.99662742  0.99805356  1
  O  O403  1  0.11680705  0.00254477  0.00838210  1
  O  O404  1  0.12041037  -0.00558887  0.51173475  1
  O  O405  1  0.12665285  0.51529156  -0.00663343  1
  O  O406  1  0.11417826  0.51501226  0.51346897  1
  O  O407  1  0.61194947  -0.00703747  -0.00610742  1
  O  O408  1  0.61640457  -0.00308886  0.51026575  1
  O  O409  1  0.61620468  0.50904383  -0.00540462  1
  O  O410  1  0.61553645  0.50981761  0.50603775  1
  O  O411  1  0.37386843  0.37354019  0.11292822  1
  O  O412  1  0.37100894  0.36302485  0.62912791  1
  O  O413  1  0.37064384  0.87853048  0.11255327  1
  O  O414  1  0.36565279  0.86781266  0.62170135  1
  O  O415  1  0.86209651  0.37100631  0.11435814  1
  O  O416  1  0.85262262  0.38172084  0.62521186  1
  O  O417  1  0.86941545  0.86648480  0.12291821  1
  O  O418  1  0.86408601  0.87788231  0.62028725  1
  O  O419  1  0.12200670  0.12041523  0.38794388  1
  O  O420  1  0.12763074  0.13812797  0.87692258  1
  O  O421  1  0.12893231  0.62894157  0.38523873  1
  O  O422  1  0.13117257  0.63277908  0.88423805  1
  O  O423  1  0.64455559  0.12333992  0.37628209  1
  O  O424  1  0.63656859  0.12021095  0.86642947  1
  O  O425  1  0.63300914  0.61893762  0.38383731  1
  O  O426  1  0.62961440  0.62913901  0.88089802  1
