# generated using pymatgen
data_V85Zn86O256
_symmetry_space_group_name_H-M   'P 1'
_cell_length_a   16.93329791
_cell_length_b   16.94351642
_cell_length_c   16.93301661
_cell_angle_alpha   90.01457084
_cell_angle_beta   89.99167559
_cell_angle_gamma   89.95945961
_symmetry_Int_Tables_number   1
_chemical_formula_structural   V85Zn86O256
_chemical_formula_sum   'V85 Zn86 O256'
_cell_volume   4858.24378888
_cell_formula_units_Z   1
loop_
 _symmetry_equiv_pos_site_id
 _symmetry_equiv_pos_as_xyz
  1  'x, y, z'
loop_
 _atom_site_type_symbol
 _atom_site_label
 _atom_site_symmetry_multiplicity
 _atom_site_fract_x
 _atom_site_fract_y
 _atom_site_fract_z
 _atom_site_occupancy
  V  V0  1  0.75555621  0.61922830  0.37382788  1
  V  V1  1  0.75269435  0.87465042  0.62851677  1
  V  V2  1  0.74362598  0.37378098  0.62481764  1
  V  V3  1  0.23906855  0.12350768  0.37981256  1
  V  V4  1  0.50021191  0.49899006  -0.00094759  1
  V  V5  1  -0.00047275  0.24786702  0.74044887  1
  V  V6  1  0.76313564  0.61788719  0.87052542  1
  V  V7  1  0.49948820  0.88304307  0.37729748  1
  V  V8  1  0.61231459  0.87251040  0.75328691  1
  V  V9  1  -0.01035823  0.50653486  0.00326668  1
  V  V10  1  -0.00466494  0.12897917  0.12348013  1
  V  V11  1  0.38957650  0.87764543  -0.00256606  1
  V  V12  1  0.24858507  0.87695108  0.62524835  1
  V  V13  1  0.62793371  0.49639402  0.12442626  1
  V  V14  1  0.12392955  0.00149262  0.12337507  1
  V  V15  1  0.25430308  -0.00223936  0.25329606  1
  V  V16  1  0.74376699  0.12846674  0.39042689  1
  V  V17  1  -0.00673336  0.37976784  0.87476872  1
  V  V18  1  0.62451785  0.74803945  0.37507676  1
  V  V19  1  0.86974346  0.24708318  0.61897387  1
  V  V20  1  -0.00351012  0.25213104  0.24627482  1
  V  V21  1  0.61290228  0.74930976  0.87091307  1
  V  V22  1  0.24953763  0.00113302  0.75330464  1
  V  V23  1  0.37771271  0.11981705  0.25442665  1
  V  V24  1  0.24990127  0.50395739  0.75157874  1
  V  V25  1  0.24730958  0.37632947  0.12858089  1
  V  V26  1  0.12136020  0.01637975  0.62481343  1
  V  V27  1  -0.01060674  0.87725108  0.86865275  1
  V  V28  1  0.12355205  0.12515703  0.00031959  1
  V  V29  1  0.75470504  0.12575956  0.88309735  1
  V  V30  1  0.24731863  0.25014744  0.00368533  1
  V  V31  1  0.39447265  -0.00155157  0.88049268  1
  V  V32  1  0.62523697  0.87227576  0.24974914  1
  V  V33  1  0.38171950  0.63061779  0.75508653  1
  V  V34  1  0.50744343  0.62780388  0.62229368  1
  V  V35  1  0.75477524  0.49698314  0.24928584  1
  V  V36  1  0.50473274  0.48910891  0.49827549  1
  V  V37  1  0.38570786  0.12247450  0.74702494  1
  V  V38  1  0.62122343  0.25143374  0.38536250  1
  V  V39  1  0.88335249  0.62127704  0.24771137  1
  V  V40  1  0.24838447  0.75066075  -0.00318554  1
  V  V41  1  0.87106505  0.13041461  0.24704991  1
  V  V42  1  0.12402015  0.37763965  0.74581420  1
  V  V43  1  0.25105104  0.87579561  0.12220424  1
  V  V44  1  0.75538514  0.50206311  0.74342102  1
  V  V45  1  0.88300562  0.74502428  0.12297809  1
  V  V46  1  0.87512477  -0.00113052  0.37768101  1
  V  V47  1  0.87090342  0.35903265  -0.00001560  1
  V  V48  1  0.37814844  0.24973169  0.13085029  1
  V  V49  1  0.12241807  0.25096440  0.87503418  1
  V  V50  1  0.25867619  0.50533100  0.24914861  1
  V  V51  1  -0.00714920  0.38423609  0.37429863  1
  V  V52  1  0.24822625  0.75087078  0.50087608  1
  V  V53  1  0.75113676  0.74756224  -0.00426797  1
  V  V54  1  -0.00525367  0.50270679  0.51023618  1
  V  V55  1  0.87742292  0.12121438  0.74940424  1
  V  V56  1  0.62089715  0.00652523  0.61647308  1
  V  V57  1  0.75362528  -0.00196800  0.75678692  1
  V  V58  1  0.11953552  0.50905834  0.12548443  1
  V  V59  1  0.38186865  0.75222823  0.62903523  1
  V  V60  1  0.44176272  0.29819287  0.69429469  1
  V  V61  1  0.37850970  0.88081523  0.49670126  1
  V  V62  1  0.75093240  0.74919841  0.50012657  1
  V  V63  1  0.25605039  0.62847213  0.37282664  1
  V  V64  1  0.00375806  0.01175725  0.50336243  1
  V  V65  1  0.11940342  0.62605360  0.50671926  1
  V  V66  1  0.75083515  -0.00061468  0.24970948  1
  V  V67  1  0.12071998  0.87330872  0.25094740  1
  V  V68  1  0.12670058  0.37632092  0.25406435  1
  V  V69  1  0.86911781  0.37630781  0.49712622  1
  V  V70  1  0.50020798  0.36605852  0.87912526  1
  V  V71  1  0.37825671  0.49540260  0.38040421  1
  V  V72  1  0.12153127  0.87413476  0.74849700  1
  V  V73  1  0.25201373  0.12244426  0.87608303  1
  V  V74  1  -0.00145383  0.73457402  0.74620917  1
  V  V75  1  0.75162943  0.35803738  0.12243208  1
  V  V76  1  0.49925649  0.62277699  0.13269718  1
  V  V77  1  0.87914336  0.73460315  0.62757061  1
  V  V78  1  0.63193625  0.24946227  0.87501907  1
  V  V79  1  0.75260454  0.87232012  0.12269556  1
  V  V80  1  0.61924551  -0.00127022  0.11477567  1
  V  V81  1  -0.00756710  0.00042791  -0.00698428  1
  V  V82  1  0.37192634  0.37515203  0.00152974  1
  V  V83  1  0.62565253  0.62363771  -0.00371153  1
  V  V84  1  0.37545210  0.74620560  0.13047452  1
  Zn  Zn85  1  -0.00067998  0.87314678  0.37694148  1
  Zn  Zn86  1  0.11756840  0.24114953  0.38502957  1
  Zn  Zn87  1  0.37506331  0.50139879  0.87770113  1
  Zn  Zn88  1  0.00101120  0.74665544  0.24989235  1
  Zn  Zn89  1  0.61617726  0.12529378  -0.00401874  1
  Zn  Zn90  1  0.43333521  0.05133791  0.43418636  1
  Zn  Zn91  1  0.49439700  0.11726136  0.12007026  1
  Zn  Zn92  1  0.87278249  0.87707652  -0.00639158  1
  Zn  Zn93  1  0.12073467  0.62786911  0.00024124  1
  Zn  Zn94  1  0.12651016  0.50243621  0.62462792  1
  Zn  Zn95  1  0.24893473  0.62525323  0.87758118  1
  Zn  Zn96  1  0.50101090  0.25614076  0.25635829  1
  Zn  Zn97  1  0.62651223  0.62038314  0.50360513  1
  Zn  Zn98  1  0.49435274  0.74418647  0.25575275  1
  Zn  Zn99  1  0.62267278  0.37061995  0.25483088  1
  Zn  Zn100  1  0.12087817  0.74860822  0.37442174  1
  Zn  Zn101  1  0.87962305  0.87429132  0.50236683  1
  Zn  Zn102  1  0.12309712  0.74828357  0.87427277  1
  Zn  Zn103  1  0.62596026  0.37489322  0.74991002  1
  Zn  Zn104  1  0.24814856  0.26588934  0.51184938  1
  Zn  Zn105  1  0.50067047  0.12426893  0.61240942  1
  Zn  Zn106  1  0.26586664  0.37366556  0.62521110  1
  Zn  Zn107  1  0.18692716  0.18868577  0.19402449  1
  Zn  Zn108  1  0.19621317  0.19489720  0.68587532  1
  Zn  Zn109  1  0.18797310  0.68814393  0.18613312  1
  Zn  Zn110  1  0.19022665  0.68801006  0.68777764  1
  Zn  Zn111  1  0.68273185  0.18339489  0.19187194  1
  Zn  Zn112  1  0.68697853  0.18878858  0.69288922  1
  Zn  Zn113  1  0.68983838  0.68496305  0.18720834  1
  Zn  Zn114  1  0.68948868  0.68840264  0.69167385  1
  Zn  Zn115  1  0.32515926  0.29681358  0.33954684  1
  Zn  Zn116  1  0.30591395  0.31527225  0.81706858  1
  Zn  Zn117  1  0.31201224  0.81410817  0.31385661  1
  Zn  Zn118  1  0.31620519  0.81568432  0.81418359  1
  Zn  Zn119  1  0.80796863  0.31006459  0.31364597  1
  Zn  Zn120  1  0.81274315  0.31153502  0.81083532  1
  Zn  Zn121  1  0.81450664  0.80996595  0.31080898  1
  Zn  Zn122  1  0.81047389  0.80548147  0.80920236  1
  Zn  Zn123  1  0.18543619  0.43789794  0.43871340  1
  Zn  Zn124  1  0.18304348  0.44009939  0.93667730  1
  Zn  Zn125  1  0.18500106  0.94044756  0.43743137  1
  Zn  Zn126  1  0.18589241  0.93515338  0.93547367  1
  Zn  Zn127  1  0.68833989  0.43653412  0.43702313  1
  Zn  Zn128  1  0.69004991  0.43663773  0.93513683  1
  Zn  Zn129  1  0.69057730  0.93543402  0.43829535  1
  Zn  Zn130  1  0.68777697  0.93454611  0.93363707  1
  Zn  Zn131  1  0.31498359  0.06137373  0.06272133  1
  Zn  Zn132  1  0.30829759  0.06695052  0.56563550  1
  Zn  Zn133  1  0.31252911  0.56414841  0.06335060  1
  Zn  Zn134  1  0.31466125  0.56141720  0.56332242  1
  Zn  Zn135  1  0.81197636  0.06172508  0.06439743  1
  Zn  Zn136  1  0.81511634  0.05976743  0.56812400  1
  Zn  Zn137  1  0.81288759  0.56058236  0.06259878  1
  Zn  Zn138  1  0.81074550  0.55785442  0.56015860  1
  Zn  Zn139  1  0.43764269  0.43623846  0.19271188  1
  Zn  Zn140  1  0.44587612  0.46210170  0.69160425  1
  Zn  Zn141  1  0.43823788  0.93048704  0.19019582  1
  Zn  Zn142  1  0.43757958  0.94121330  0.68623394  1
  Zn  Zn143  1  0.93334185  0.43524099  0.18266634  1
  Zn  Zn144  1  0.93068135  0.43865806  0.68754568  1
  Zn  Zn145  1  0.93683544  0.93979227  0.18572033  1
  Zn  Zn146  1  0.93707461  0.93731671  0.68371812  1
  Zn  Zn147  1  0.05920988  0.05832883  0.31011655  1
  Zn  Zn148  1  0.06145315  0.06349639  0.81117732  1
  Zn  Zn149  1  0.06646127  0.56220895  0.31968975  1
  Zn  Zn150  1  0.06462356  0.56156849  0.81967460  1
  Zn  Zn151  1  0.56759003  0.06633515  0.30507654  1
  Zn  Zn152  1  0.56908239  0.06294399  0.80893934  1
  Zn  Zn153  1  0.56714093  0.55814686  0.31372343  1
  Zn  Zn154  1  0.56781907  0.55736930  0.81080577  1
  Zn  Zn155  1  0.43810672  0.22004841  0.45960192  1
  Zn  Zn156  1  0.43999484  0.18534533  0.94193150  1
  Zn  Zn157  1  0.43658831  0.68831133  0.44028093  1
  Zn  Zn158  1  0.43596878  0.68770179  0.94305062  1
  Zn  Zn159  1  0.93515729  0.19015924  0.43364431  1
  Zn  Zn160  1  0.93746146  0.18767817  0.93066777  1
  Zn  Zn161  1  0.93756832  0.68780111  0.43505307  1
  Zn  Zn162  1  0.93915833  0.69078477  0.93453180  1
  Zn  Zn163  1  0.05937205  0.31629857  0.06553519  1
  Zn  Zn164  1  0.06587620  0.31155289  0.55838398  1
  Zn  Zn165  1  0.06201105  0.81613444  0.06092030  1
  Zn  Zn166  1  0.05982029  0.81782529  0.56154953  1
  Zn  Zn167  1  0.56506779  0.30780964  0.06100180  1
  Zn  Zn168  1  0.57188752  0.31187210  0.55423512  1
  Zn  Zn169  1  0.56474304  0.80818303  0.06261019  1
  Zn  Zn170  1  0.56422140  0.81551460  0.56255160  1
  O  O171  1  0.11737356  0.12203914  0.11963236  1
  O  O172  1  0.12835463  0.11468832  0.63685405  1
  O  O173  1  0.12528405  0.61253137  0.12298416  1
  O  O174  1  0.13153363  0.62402783  0.61089142  1
  O  O175  1  0.62848638  0.10690078  0.12271121  1
  O  O176  1  0.62503442  0.11008884  0.63204316  1
  O  O177  1  0.62121548  0.61865474  0.11663297  1
  O  O178  1  0.61131788  0.63555638  0.62615013  1
  O  O179  1  0.37741125  0.39947098  0.35979047  1
  O  O180  1  0.38124620  0.37466200  0.88398063  1
  O  O181  1  0.38670959  0.86893751  0.38320164  1
  O  O182  1  0.37272430  0.88622410  0.88516479  1
  O  O183  1  0.87966897  0.36724797  0.38520125  1
  O  O184  1  0.88055375  0.37040584  0.88808445  1
  O  O185  1  0.87074455  0.88940175  0.37477745  1
  O  O186  1  0.88551080  0.87082886  0.87162976  1
  O  O187  1  0.24488880  0.00616947  0.36178194  1
  O  O188  1  0.25151348  0.00750198  0.87043149  1
  O  O189  1  0.25952116  0.50836492  0.36949321  1
  O  O190  1  0.25146280  0.50091666  0.86506666  1
  O  O191  1  0.75463301  0.00735278  0.37087041  1
  O  O192  1  0.74760588  0.00474793  0.86298719  1
  O  O193  1  0.74515931  0.50861676  0.36391094  1
  O  O194  1  0.74990414  0.51294278  0.87058425  1
  O  O195  1  0.24236719  0.49704408  0.13174598  1
  O  O196  1  0.25220601  0.49961244  0.64042297  1
  O  O197  1  0.24263051  0.99428381  0.12998779  1
  O  O198  1  0.24124808  0.99518378  0.63171973  1
  O  O199  1  0.74375184  0.49399674  0.13012764  1
  O  O200  1  0.75177818  0.49372385  0.63538915  1
  O  O201  1  0.74473085  0.98890426  0.12855393  1
  O  O202  1  0.74370033  0.99150307  0.63461150  1
  O  O203  1  0.00052653  0.37079529  0.25464782  1
  O  O204  1  0.00198445  0.37223712  0.75886541  1
  O  O205  1  0.00891200  0.87665122  0.25062264  1
  O  O206  1  0.00532469  0.87080357  0.75244469  1
  O  O207  1  0.50954000  0.37084611  0.24199870  1
  O  O208  1  0.49678406  0.36990867  0.75410127  1
  O  O209  1  0.50726215  0.86729584  0.25907560  1
  O  O210  1  0.51397302  0.87618063  0.74626519  1
  O  O211  1  0.49000805  0.12417766  0.24132134  1
  O  O212  1  0.48849601  0.12232040  0.74907251  1
  O  O213  1  0.50794353  0.62476497  0.23649809  1
  O  O214  1  0.48876821  0.61409786  0.74146709  1
  O  O215  1  0.99263458  0.13261673  0.24644274  1
  O  O216  1  0.99171401  0.13676920  0.75645603  1
  O  O217  1  0.98659195  0.62067422  0.25714659  1
  O  O218  1  1.00485838  0.63550723  0.75356397  1
  O  O219  1  0.36495161  0.25491054  0.00908912  1
  O  O220  1  0.34503860  0.27121525  0.45000726  1
  O  O221  1  0.36821651  0.75854595  0.00841155  1
  O  O222  1  0.36624910  0.75921987  0.50767247  1
  O  O223  1  0.88100148  0.26046886  0.00162388  1
  O  O224  1  0.88242653  0.25779793  0.51173731  1
  O  O225  1  0.86944301  0.75175046  0.00603711  1
  O  O226  1  0.86682961  0.75032790  0.50943304  1
  O  O227  1  0.13333274  0.25158073  0.49607031  1
  O  O228  1  0.12755787  0.24666285  0.99693102  1
  O  O229  1  0.13213718  0.74662205  0.50058370  1
  O  O230  1  0.13360586  0.75016009  1.00085788  1
  O  O231  1  0.63007132  0.24339385  0.48575736  1
  O  O232  1  0.62204925  0.24563623  0.98346017  1
  O  O233  1  0.63743968  0.74915049  0.49467385  1
  O  O234  1  0.63286713  0.74401025  0.99252174  1
  O  O235  1  0.48391738  0.25041003  0.12291027  1
  O  O236  1  0.50235845  0.24863449  0.62740571  1
  O  O237  1  0.49368361  0.74062925  0.12619683  1
  O  O238  1  0.48800024  0.74688718  0.61917608  1
  O  O239  1  1.00073707  0.24602445  0.13764570  1
  O  O240  1  0.99202188  0.25837923  0.63681898  1
  O  O241  1  0.98625097  0.75546190  0.12530448  1
  O  O242  1  0.98583064  0.75396474  0.62923308  1
  O  O243  1  0.00077766  0.25863908  0.36319283  1
  O  O244  1  0.00472637  0.26117921  0.86717285  1
  O  O245  1  0.00202772  0.75516794  0.36975882  1
  O  O246  1  0.00096779  0.75876622  0.86382082  1
  O  O247  1  0.51782667  0.24407035  0.37532055  1
  O  O248  1  0.50364651  0.26171147  0.87804360  1
  O  O249  1  0.51005911  0.75371161  0.37502735  1
  O  O250  1  0.51360137  0.74472014  0.88002551  1
  O  O251  1  0.25603252  0.12303688  0.48043041  1
  O  O252  1  0.24391043  0.13018065  0.99606043  1
  O  O253  1  0.24705599  0.63590743  0.49671536  1
  O  O254  1  0.24974852  0.63686645  1.00022850  1
  O  O255  1  0.75554023  0.11885354  0.48801645  1
  O  O256  1  0.75047380  0.11609137  0.98544430  1
  O  O257  1  0.74780140  0.62933649  0.49179166  1
  O  O258  1  0.74594440  0.62608804  0.98876617  1
  O  O259  1  0.25072372  0.37061123  0.00694681  1
  O  O260  1  0.24430012  0.38646972  0.51455091  1
  O  O261  1  0.25325501  0.86873381  0.00619373  1
  O  O262  1  0.25281607  0.86655400  0.50291431  1
  O  O263  1  0.76344728  0.37755323  0.00680012  1
  O  O264  1  0.76114963  0.38290861  0.50848520  1
  O  O265  1  0.75279583  0.86769358  0.00504482  1
  O  O266  1  0.75334095  0.86515835  0.50862637  1
  O  O267  1  0.12905719  0.49540961  0.24397131  1
  O  O268  1  0.13136407  0.49547516  0.74954666  1
  O  O269  1  0.13064388  0.99318436  0.24135412  1
  O  O270  1  0.12736087  0.99330080  0.74393163  1
  O  O271  1  0.63731850  0.49709708  0.24282030  1
  O  O272  1  0.64390363  0.49147493  0.75689624  1
  O  O273  1  0.63363070  0.99148150  0.24046730  1
  O  O274  1  0.63347928  0.98726286  0.74434685  1
  O  O275  1  0.36381691  0.00336630  0.23999399  1
  O  O276  1  0.37131005  0.00599889  0.75995247  1
  O  O277  1  0.36285645  0.50685747  0.25149974  1
  O  O278  1  0.36728203  0.51155449  0.75659157  1
  O  O279  1  0.87168279  0.00822160  0.25777068  1
  O  O280  1  0.86734006  0.00871852  0.74240625  1
  O  O281  1  0.86343549  0.50606540  0.24183479  1
  O  O282  1  0.85703128  0.49593246  0.75414512  1
  O  O283  1  0.11568034  0.37854910  0.36277466  1
  O  O284  1  0.11641765  0.37044733  0.86636709  1
  O  O285  1  0.12692991  0.87515666  0.36050930  1
  O  O286  1  0.11688882  0.87329552  0.86100690  1
  O  O287  1  0.64020298  0.35502503  0.37344263  1
  O  O288  1  0.61808629  0.36816426  0.87604182  1
  O  O289  1  0.62133622  0.86515145  0.37287926  1
  O  O290  1  0.62874498  0.86669375  0.86112953  1
  O  O291  1  0.37021325  0.13303120  0.13499168  1
  O  O292  1  0.37683345  0.11613837  0.64298687  1
  O  O293  1  0.38642898  0.63441828  0.11884237  1
  O  O294  1  0.38325716  0.63441138  0.63114912  1
  O  O295  1  0.88158564  0.11912620  0.13569472  1
  O  O296  1  0.86924998  0.13436621  0.63715709  1
  O  O297  1  0.86859412  0.63399933  0.13354647  1
  O  O298  1  0.87073071  0.63654409  0.62241818  1
  O  O299  1  0.25681128  0.25572717  0.12475700  1
  O  O300  1  0.26372418  0.25735045  0.62740980  1
  O  O301  1  0.25688065  0.75456058  0.11698681  1
  O  O302  1  0.25872144  0.75710665  0.61857942  1
  O  O303  1  0.74504598  0.25953028  0.12700174  1
  O  O304  1  0.76025130  0.25814281  0.63232286  1
  O  O305  1  0.75571654  0.75573586  0.11749678  1
  O  O306  1  0.75831231  0.75373110  0.62076548  1
  O  O307  1  0.23335895  0.22502188  0.34929867  1
  O  O308  1  0.24223722  0.24305289  0.88228565  1
  O  O309  1  0.24802987  0.74545904  0.38323528  1
  O  O310  1  0.24975026  0.75395051  0.88796955  1
  O  O311  1  0.74658415  0.23218468  0.37293137  1
  O  O312  1  0.74564139  0.23898566  0.87196709  1
  O  O313  1  0.74577704  0.74562144  0.38310682  1
  O  O314  1  0.74354457  0.73780380  0.87706563  1
  O  O315  1  0.00375122  0.11934965  0.00061650  1
  O  O316  1  -0.00475211  0.11080156  0.49418818  1
  O  O317  1  -0.00276136  0.60990665  -0.00506981  1
  O  O318  1  0.00716427  0.61567092  0.49257754  1
  O  O319  1  0.50117428  0.12064452  0.00707151  1
  O  O320  1  0.47858874  0.12757266  0.50131269  1
  O  O321  1  0.50629223  0.61794528  0.00799881  1
  O  O322  1  0.50296057  0.62291335  0.50794169  1
  O  O323  1  0.50224362  0.38987433  0.50262930  1
  O  O324  1  0.49386882  0.37903874  0.99565488  1
  O  O325  1  0.49130879  0.87103180  0.49119178  1
  O  O326  1  0.48861490  0.87035724  1.00379030  1
  O  O327  1  0.99210683  0.38287085  0.49289449  1
  O  O328  1  0.98869732  0.37964237  0.99586708  1
  O  O329  1  0.99684043  0.88726705  0.49613890  1
  O  O330  1  0.99939303  0.88276126  0.98771281  1
  O  O331  1  0.48753597  0.51296743  0.38464208  1
  O  O332  1  0.50044292  0.48696310  0.88181587  1
  O  O333  1  0.50620711  0.98797013  0.36948549  1
  O  O334  1  0.49314415  1.00151108  0.87219265  1
  O  O335  1  1.00020926  0.48785177  0.38115250  1
  O  O336  1  1.00407187  0.48699187  0.88858031  1
  O  O337  1  0.99148461  0.99836375  0.38346066  1
  O  O338  1  1.00482909  0.99109038  0.88162040  1
  O  O339  1  0.00584992  0.00662023  0.11661763  1
  O  O340  1  0.00609662  -0.00027597  0.61292229  1
  O  O341  1  0.00546456  0.49376377  0.11244190  1
  O  O342  1  -0.00048677  0.49674570  0.61368452  1
  O  O343  1  0.51772707  -0.00834035  0.13026049  1
  O  O344  1  0.51670170  -0.00022474  0.62710226  1
  O  O345  1  0.50642019  0.50551307  0.11851126  1
  O  O346  1  0.49785560  0.51293044  0.60692054  1
  O  O347  1  0.24051368  0.38534023  0.24743653  1
  O  O348  1  0.24086250  0.38407584  0.75040514  1
  O  O349  1  0.24464131  0.88099830  0.24344830  1
  O  O350  1  0.24248660  0.88148311  0.74660814  1
  O  O351  1  0.75176937  0.37969966  0.23739033  1
  O  O352  1  0.75235358  0.38352228  0.74207005  1
  O  O353  1  0.74558098  0.87772796  0.24186784  1
  O  O354  1  0.74637958  0.88006581  0.74481403  1
  O  O355  1  0.25385562  0.11114209  0.24983488  1
  O  O356  1  0.25960597  0.11998273  0.75883082  1
  O  O357  1  0.24175958  0.61712760  0.26007092  1
  O  O358  1  0.26053856  0.62107488  0.75225295  1
  O  O359  1  0.75771172  0.11667071  0.25393891  1
  O  O360  1  0.75677786  0.11540841  0.75724300  1
  O  O361  1  0.75734653  0.61663261  0.25498894  1
  O  O362  1  0.74721951  0.61516565  0.75968807  1
  O  O363  1  0.36265093  0.11462106  0.35924183  1
  O  O364  1  0.37081893  0.11795563  0.86926831  1
  O  O365  1  0.36227215  0.62161977  0.37781308  1
  O  O366  1  0.37363721  0.62597887  0.86806162  1
  O  O367  1  0.86621008  0.11585206  0.36896963  1
  O  O368  1  0.86823385  0.12940745  0.86092903  1
  O  O369  1  0.86120140  0.63102301  0.36558467  1
  O  O370  1  0.86117394  0.62921186  0.87534590  1
  O  O371  1  0.12757973  0.38455506  0.13530006  1
  O  O372  1  0.11693990  0.37914890  0.64138833  1
  O  O373  1  0.13007699  0.88047548  0.13296098  1
  O  O374  1  0.12910331  0.88120006  0.63517690  1
  O  O375  1  0.63941886  0.37914456  0.11887425  1
  O  O376  1  0.63959110  0.36980290  0.62591985  1
  O  O377  1  0.63548585  0.87830943  0.12704313  1
  O  O378  1  0.63446726  0.87729825  0.63524204  1
  O  O379  1  0.11356964  0.26157116  0.24885606  1
  O  O380  1  0.11776064  0.25710810  0.75499914  1
  O  O381  1  0.12219679  0.75892363  0.24822166  1
  O  O382  1  0.11677599  0.75785437  0.74644663  1
  O  O383  1  0.62314432  0.24720356  0.26232570  1
  O  O384  1  0.62610721  0.25545192  0.76591167  1
  O  O385  1  0.62755901  0.75516076  0.25864695  1
  O  O386  1  0.62888454  0.76340950  0.75609903  1
  O  O387  1  0.37630956  0.24014831  0.24656495  1
  O  O388  1  0.37903127  0.24169665  0.75615880  1
  O  O389  1  0.37413449  0.75517763  0.23487616  1
  O  O390  1  0.37095729  0.74403378  0.74125968  1
  O  O391  1  0.87979658  0.23792277  0.25440690  1
  O  O392  1  0.88231591  0.24491729  0.74185917  1
  O  O393  1  0.87451931  0.74000907  0.24056252  1
  O  O394  1  0.88194810  0.75004242  0.73560113  1
  O  O395  1  0.38383206  0.50386300  0.48773360  1
  O  O396  1  0.38111102  0.49289070  1.00044665  1
  O  O397  1  0.36568972  0.98470105  0.50297348  1
  O  O398  1  0.37069646  0.98965298  0.99185285  1
  O  O399  1  0.88211636  0.49016534  0.50060355  1
  O  O400  1  0.88687721  0.49032816  1.00522630  1
  O  O401  1  0.88373231  0.99865375  0.49529629  1
  O  O402  1  0.88880154  0.99730723  1.00371726  1
  O  O403  1  0.11647099  0.00462751  0.00435148  1
  O  O404  1  0.11337256  -0.00148747  0.50908345  1
  O  O405  1  0.11265392  0.49800033  0.00957780  1
  O  O406  1  0.11362801  0.50916119  0.50146535  1
  O  O407  1  0.62970039  -0.00461087  0.01279109  1
  O  O408  1  0.63195565  -0.00665986  0.51833832  1
  O  O409  1  0.62058657  0.50387871  0.00469271  1
  O  O410  1  0.60955093  0.50407931  0.48856859  1
  O  O411  1  0.36545148  0.36919875  0.12202517  1
  O  O412  1  0.38901564  0.36811841  0.64324445  1
  O  O413  1  0.36987819  0.86881136  0.11684754  1
  O  O414  1  0.36979257  0.87035559  0.62090060  1
  O  O415  1  0.86233900  0.37341952  0.11374726  1
  O  O416  1  0.86700874  0.36715768  0.61715412  1
  O  O417  1  0.86417873  0.86862943  0.12474184  1
  O  O418  1  0.86232084  0.86872935  0.62479245  1
  O  O419  1  0.13456016  0.11784232  0.37167520  1
  O  O420  1  0.13002103  0.13109270  0.88092766  1
  O  O421  1  0.13756237  0.62624753  0.38744376  1
  O  O422  1  0.13015967  0.63063904  0.88160841  1
  O  O423  1  0.63878177  0.12761175  0.37290001  1
  O  O424  1  0.63604094  0.13013473  0.87354524  1
  O  O425  1  0.63562173  0.63639403  0.37306617  1
  O  O426  1  0.63036859  0.63123343  0.87935282  1
