# generated using pymatgen
data_V85Zn86O256
_symmetry_space_group_name_H-M   'P 1'
_cell_length_a   16.94100853
_cell_length_b   16.96141681
_cell_length_c   16.93847773
_cell_angle_alpha   89.93960632
_cell_angle_beta   89.97791620
_cell_angle_gamma   90.00565816
_symmetry_Int_Tables_number   1
_chemical_formula_structural   V85Zn86O256
_chemical_formula_sum   'V85 Zn86 O256'
_cell_volume   4867.15850083
_cell_formula_units_Z   1
loop_
 _symmetry_equiv_pos_site_id
 _symmetry_equiv_pos_as_xyz
  1  'x, y, z'
loop_
 _atom_site_type_symbol
 _atom_site_label
 _atom_site_symmetry_multiplicity
 _atom_site_fract_x
 _atom_site_fract_y
 _atom_site_fract_z
 _atom_site_occupancy
  V  V0  1  0.37615617  0.00041858  0.87883132  1
  V  V1  1  0.37464158  0.49475082  0.37145888  1
  V  V2  1  0.11419152  0.25376618  0.35978064  1
  V  V3  1  0.62686595  0.12428094  0.50181218  1
  V  V4  1  0.62593507  -0.00154287  0.62562839  1
  V  V5  1  0.50046551  0.24882048  0.75067366  1
  V  V6  1  0.75159620  0.74652878  0.49494350  1
  V  V7  1  0.18637803  -0.06395686  0.18050352  1
  V  V8  1  -0.00080738  0.62009738  0.61787911  1
  V  V9  1  0.75356624  0.62333099  0.87856534  1
  V  V10  1  0.37456636  0.37994349  0.00252663  1
  V  V11  1  0.49966822  0.12460829  0.62763732  1
  V  V12  1  0.62768533  0.25026549  0.37504000  1
  V  V13  1  0.49769785  0.00340731  0.01078312  1
  V  V14  1  0.62529079  0.37482218  0.75154166  1
  V  V15  1  0.00936185  0.25177384  0.75061912  1
  V  V16  1  0.75690283  0.37437259  0.12738934  1
  V  V17  1  0.24291370  0.74520620  0.00280177  1
  V  V18  1  0.49606611  0.00038868  0.50025828  1
  V  V19  1  0.37644417  0.50404350  0.86871128  1
  V  V20  1  0.49802819  0.23751470  0.24576015  1
  V  V21  1  0.12681741  0.61968009  0.49818973  1
  V  V22  1  0.62625374  0.49768159  0.12712020  1
  V  V23  1  0.24701637  0.86959319  0.63307754  1
  V  V24  1  0.24548015  0.00218895  0.74883587  1
  V  V25  1  0.75231644  0.37525434  0.62533895  1
  V  V26  1  0.12142949  0.87878151  0.75262078  1
  V  V27  1  0.62417732  0.87302983  0.75111351  1
  V  V28  1  0.49725152  0.62382480  0.12725950  1
  V  V29  1  -0.00045747  0.63769679  0.12313803  1
  V  V30  1  0.37102556  0.01140907  0.35693228  1
  V  V31  1  0.62722992  0.62746230  0.00226377  1
  V  V32  1  0.62561926  0.24813537  0.87777754  1
  V  V33  1  0.75148615  0.87172432  0.62350579  1
  V  V34  1  0.24512230  0.61932504  0.37333586  1
  V  V35  1  0.87754363  0.62198756  0.75579465  1
  V  V36  1  -0.00137189  0.74900744  0.74908333  1
  V  V37  1  0.50074305  0.87297393  0.87771408  1
  V  V38  1  0.49142639  0.62391380  0.62635318  1
  V  V39  1  0.88221662  -0.00653635  0.37385684  1
  V  V40  1  0.12096940  0.74781517  0.87749403  1
  V  V41  1  0.00418445  0.00279908  -0.01177021  1
  V  V42  1  0.23211369  0.77437073  0.46325933  1
  V  V43  1  0.24897345  0.25144182  0.49662282  1
  V  V44  1  0.00854454  0.11519894  0.12081225  1
  V  V45  1  0.88137156  0.12935170  0.24896316  1
  V  V46  1  0.24796873  0.49456766  0.74862595  1
  V  V47  1  0.62262029  0.50198007  0.62580492  1
  V  V48  1  0.49160819  0.74527189  0.75110879  1
  V  V49  1  0.75478904  0.12010429  0.87743628  1
  V  V50  1  0.24973364  0.62563304  0.87005401  1
  V  V51  1  0.74596209  -0.00523690  0.24756618  1
  V  V52  1  0.37119517  0.62303412  0.24967562  1
  V  V53  1  0.86597823  0.88017775  -0.00222404  1
  V  V54  1  0.49881435  0.49923009  0.00087121  1
  V  V55  1  0.37266318  0.87101644  0.00346552  1
  V  V56  1  0.75887651  0.50649457  0.25952589  1
  V  V57  1  0.12216998  0.49099229  0.62644296  1
  V  V58  1  0.24394614  0.25084542  -0.00065300  1
  V  V59  1  0.00545732  0.77668150  0.27535622  1
  V  V60  1  0.62503008  0.75931937  0.37284801  1
  V  V61  1  0.49930470  0.75481732  0.25232518  1
  V  V62  1  0.36664509  0.74734899  0.12859608  1
  V  V63  1  0.23717941  0.37874417  0.12548779  1
  V  V64  1  0.23180388  0.49650393  0.24344773  1
  V  V65  1  0.12875519  0.12236969  0.49525303  1
  V  V66  1  0.24500624  0.12435444  0.88605345  1
  V  V67  1  0.37289621  0.87714367  0.50212452  1
  V  V68  1  0.37544049  0.12491685  0.75282727  1
  V  V69  1  0.37783065  0.24017048  0.12583860  1
  V  V70  1  0.87524539  0.38442871  -0.00894183  1
  V  V71  1  0.62286444  0.62518919  0.49261073  1
  V  V72  1  0.75328595  0.24962362  0.50180539  1
  V  V73  1  0.00551212  -0.00833625  0.49889393  1
  V  V74  1  0.87842831  0.24678972  0.62707557  1
  V  V75  1  0.62715411  0.37439017  0.25099149  1
  V  V76  1  0.00638514  0.38557680  0.87011312  1
  V  V77  1  0.88739644  0.25256746  0.12573130  1
  V  V78  1  -0.00185279  0.38870020  0.36786240  1
  V  V79  1  0.49930801  0.37258883  0.37472835  1
  V  V80  1  0.75482980  0.12547728  0.37551391  1
  V  V81  1  0.75763242  -0.00313996  0.75513457  1
  V  V82  1  0.00770764  0.11905162  0.62537748  1
  V  V83  1  0.75362860  0.49979453  0.75472288  1
  V  V84  1  0.62326742  0.12394235  0.01090171  1
  Zn  Zn85  1  0.88413847  0.86858614  0.49731197  1
  Zn  Zn86  1  0.49735148  0.49924679  0.49965548  1
  Zn  Zn87  1  0.62572861  0.74777443  0.87697811  1
  Zn  Zn88  1  0.37240774  0.25212779  0.62439629  1
  Zn  Zn89  1  0.24670836  0.12782146  0.34952936  1
  Zn  Zn90  1  0.12379553  0.25001332  0.87288106  1
  Zn  Zn91  1  0.87592076  0.51409346  0.39144713  1
  Zn  Zn92  1  0.37175437  0.37395714  0.50088071  1
  Zn  Zn93  1  0.75267694  0.24823547  0.00098267  1
  Zn  Zn94  1  0.24946773  0.37220106  0.62700906  1
  Zn  Zn95  1  0.76696022  0.74083316  0.01200403  1
  Zn  Zn96  1  0.87312730  0.74826814  0.62443888  1
  Zn  Zn97  1  0.61990312  -0.00331618  0.13403259  1
  Zn  Zn98  1  0.49977598  0.37522290  0.87570693  1
  Zn  Zn99  1  0.88130662  0.11970114  0.75634707  1
  Zn  Zn100  1  -0.01222317  0.88307971  0.86942568  1
  Zn  Zn101  1  0.36892968  0.74393055  0.62199527  1
  Zn  Zn102  1  0.49692654  0.87689010  0.37321318  1
  Zn  Zn103  1  0.74692708  0.86233881  0.13117871  1
  Zn  Zn104  1  0.01085795  0.50669751  0.01172211  1
  Zn  Zn105  1  0.88862506  0.38258748  0.50410266  1
  Zn  Zn106  1  0.87954261  0.64235320  0.25226935  1
  Zn  Zn107  1  0.18336584  0.19294538  0.18029589  1
  Zn  Zn108  1  0.18786679  0.18573870  0.68422811  1
  Zn  Zn109  1  0.16594390  0.70886795  0.18501947  1
  Zn  Zn110  1  0.18548069  0.68308830  0.69018826  1
  Zn  Zn111  1  0.69317181  0.18802050  0.18908388  1
  Zn  Zn112  1  0.68935638  0.18455036  0.69031589  1
  Zn  Zn113  1  0.68643020  0.68755077  0.19035385  1
  Zn  Zn114  1  0.68215536  0.68709736  0.68744430  1
  Zn  Zn115  1  0.30884520  0.30800993  0.30803750  1
  Zn  Zn116  1  0.31451738  0.31417035  0.81342840  1
  Zn  Zn117  1  0.29820399  0.82377110  0.31277697  1
  Zn  Zn118  1  0.31217637  0.81198230  0.81553727  1
  Zn  Zn119  1  0.82223379  0.31604888  0.31251655  1
  Zn  Zn120  1  0.81547316  0.30816631  0.81206418  1
  Zn  Zn121  1  0.81624238  0.80991422  0.31362615  1
  Zn  Zn122  1  0.81376004  0.80914096  0.81980129  1
  Zn  Zn123  1  0.18090591  0.43432509  0.43590380  1
  Zn  Zn124  1  0.18785280  0.43363636  0.93179540  1
  Zn  Zn125  1  0.19160273  0.94577795  0.43379195  1
  Zn  Zn126  1  0.21276411  0.96765064  0.99741423  1
  Zn  Zn127  1  0.69040913  0.43680632  0.44152489  1
  Zn  Zn128  1  0.68872871  0.43844311  0.93864331  1
  Zn  Zn129  1  0.69018480  0.93598445  0.43521568  1
  Zn  Zn130  1  0.68456718  0.93830329  0.94186963  1
  Zn  Zn131  1  0.31004127  0.06576622  0.16770553  1
  Zn  Zn132  1  0.30972333  0.06326956  0.56651333  1
  Zn  Zn133  1  0.17773478  0.56475803  0.06119991  1
  Zn  Zn134  1  0.30936859  0.55978620  0.55780514  1
  Zn  Zn135  1  0.81835738  0.05915938  0.06175942  1
  Zn  Zn136  1  0.81883337  0.06013231  0.56409028  1
  Zn  Zn137  1  0.82163452  0.56382452  0.07229544  1
  Zn  Zn138  1  0.81081122  0.56637281  0.56554275  1
  Zn  Zn139  1  0.43423606  0.43198911  0.18815439  1
  Zn  Zn140  1  0.43502010  0.43461535  0.68721788  1
  Zn  Zn141  1  0.43484828  0.92999551  0.18581003  1
  Zn  Zn142  1  0.43464308  0.93592653  0.68901874  1
  Zn  Zn143  1  0.94839411  0.44366973  0.18986453  1
  Zn  Zn144  1  0.93692646  0.43796457  0.68787809  1
  Zn  Zn145  1  0.93428300  0.93381336  0.18233604  1
  Zn  Zn146  1  0.93703237  0.93720059  0.68280583  1
  Zn  Zn147  1  0.06517737  0.05766426  0.30745627  1
  Zn  Zn148  1  0.06521626  0.06447421  0.81529585  1
  Zn  Zn149  1  0.05732599  0.57208511  0.30669786  1
  Zn  Zn150  1  0.06615575  0.56231625  0.81320941  1
  Zn  Zn151  1  0.56314700  0.06229223  0.31761185  1
  Zn  Zn152  1  0.56685935  0.06018794  0.81762723  1
  Zn  Zn153  1  0.56242023  0.56261902  0.31164474  1
  Zn  Zn154  1  0.56285312  0.56391897  0.81292272  1
  Zn  Zn155  1  0.43796702  0.18788350  0.43710127  1
  Zn  Zn156  1  0.43564865  0.18725979  0.94217358  1
  Zn  Zn157  1  0.43076042  0.68821661  0.43817937  1
  Zn  Zn158  1  0.43528253  0.68475275  0.93950469  1
  Zn  Zn159  1  0.94103688  0.18623791  0.43986765  1
  Zn  Zn160  1  0.93699371  0.19159486  0.94006157  1
  Zn  Zn161  1  0.93853953  0.68950435  0.42972357  1
  Zn  Zn162  1  0.93855888  0.69013070  0.94104756  1
  Zn  Zn163  1  0.06050240  0.31450082  0.05771760  1
  Zn  Zn164  1  0.06340018  0.31063750  0.55494654  1
  Zn  Zn165  1  0.05448865  0.81768219  0.05925437  1
  Zn  Zn166  1  0.06692587  0.80916480  0.56647532  1
  Zn  Zn167  1  0.56336882  0.31210796  0.06348932  1
  Zn  Zn168  1  0.56251503  0.31277613  0.56277884  1
  Zn  Zn169  1  0.56856255  0.81303072  0.07041505  1
  Zn  Zn170  1  0.56118707  0.81031027  0.56288389  1
  O  O171  1  0.10590876  0.13173975  0.12083848  1
  O  O172  1  0.11429905  0.12757073  0.61564713  1
  O  O173  1  0.11318407  0.62944560  0.12663103  1
  O  O174  1  0.11848975  0.61730177  0.61920939  1
  O  O175  1  0.62944752  0.12455738  0.11367271  1
  O  O176  1  0.62079420  0.11796736  0.62058028  1
  O  O177  1  0.61752930  0.61549952  0.12006284  1
  O  O178  1  0.61345645  0.62070293  0.61723229  1
  O  O179  1  0.38301835  0.37790444  0.37352064  1
  O  O180  1  0.37794476  0.38255352  0.88352242  1
  O  O181  1  0.37283224  0.89135984  0.38691597  1
  O  O182  1  0.38612357  0.87730719  0.87991573  1
  O  O183  1  0.88763718  0.37777155  0.38121988  1
  O  O184  1  0.87971699  0.36973676  0.88670645  1
  O  O185  1  0.86726243  0.89157469  0.38196544  1
  O  O186  1  0.87272594  0.87974052  0.88408047  1
  O  O187  1  0.26877897  0.01091849  0.37654585  1
  O  O188  1  0.25584530  0.01242124  0.87973144  1
  O  O189  1  0.25533795  0.50064827  0.36592833  1
  O  O190  1  0.25629308  0.50634114  0.86814417  1
  O  O191  1  0.75664971  0.00858811  0.37026702  1
  O  O192  1  0.73993417  0.00812459  0.86526876  1
  O  O193  1  0.74816485  0.49285259  0.36124724  1
  O  O194  1  0.74487542  0.50909740  0.86408392  1
  O  O195  1  0.24481936  0.49560853  0.13603263  1
  O  O196  1  0.24286339  0.50052642  0.63256089  1
  O  O197  1  0.24183859  0.99502047  0.10906602  1
  O  O198  1  0.25650227  0.99018177  0.64304796  1
  O  O199  1  0.74815404  0.48841774  0.13307214  1
  O  O200  1  0.74070834  0.49758210  0.63819689  1
  O  O201  1  0.75100407  1.00737849  0.14351817  1
  O  O202  1  0.74470986  0.99220864  0.62948357  1
  O  O203  1  -0.00757359  0.37052237  0.26717648  1
  O  O204  1  -0.01135166  0.36641321  0.76373190  1
  O  O205  1  -0.00229257  0.87682625  0.25524735  1
  O  O206  1  0.00383154  0.86857160  0.74789404  1
  O  O207  1  0.50803420  0.37014376  0.26025299  1
  O  O208  1  0.50758815  0.36624998  0.75245891  1
  O  O209  1  0.49494730  0.85910205  0.25325615  1
  O  O210  1  0.50458287  0.87051732  0.75799323  1
  O  O211  1  0.50705761  0.13869380  0.25298898  1
  O  O212  1  0.49729916  0.12827189  0.74852169  1
  O  O213  1  0.49093709  0.63100414  0.24696784  1
  O  O214  1  0.50527399  0.63387082  0.74067363  1
  O  O215  1  0.99098726  0.11649083  0.23488923  1
  O  O216  1  1.00044026  0.13080143  0.74287321  1
  O  O217  1  1.00188166  0.64291732  0.24263199  1
  O  O218  1  0.99333685  0.63018438  0.74517548  1
  O  O219  1  0.37024797  0.26259320  0.00283856  1
  O  O220  1  0.36061435  0.24661834  0.49786412  1
  O  O221  1  0.36740431  0.75183628  0.00751640  1
  O  O222  1  0.35568688  0.76337234  0.49612528  1
  O  O223  1  0.87172169  0.26155964  0.00912063  1
  O  O224  1  0.87014588  0.24747604  0.51270215  1
  O  O225  1  0.87856146  0.77134498  -0.00658895  1
  O  O226  1  0.86496659  0.75092101  0.50305838  1
  O  O227  1  0.13405936  0.24070831  0.49165092  1
  O  O228  1  0.14052620  0.25482314  0.99621048  1
  O  O229  1  0.14117321  0.74134772  0.50758634  1
  O  O230  1  0.13156054  0.76106223  0.98792091  1
  O  O231  1  0.63200957  0.24284711  0.49619579  1
  O  O232  1  0.62714486  0.24329723  0.99365692  1
  O  O233  1  0.62724361  0.74387248  0.49244191  1
  O  O234  1  0.62059578  0.73238004  0.99981091  1
  O  O235  1  0.49190599  0.25832606  0.13482944  1
  O  O236  1  0.50117857  0.24168532  0.63278693  1
  O  O237  1  0.49555774  0.74209981  0.13361334  1
  O  O238  1  0.49577411  0.74212324  0.63169258  1
  O  O239  1  0.99044254  0.24131107  0.11614278  1
  O  O240  1  0.99490138  0.24504197  0.62978242  1
  O  O241  1  1.00394483  0.74186117  0.12666063  1
  O  O242  1  0.99939469  0.74134547  0.63555395  1
  O  O243  1  0.01222369  0.24662573  0.37380587  1
  O  O244  1  0.00030401  0.25535507  0.86634862  1
  O  O245  1  0.00335890  0.76736690  0.37678057  1
  O  O246  1  0.00535897  0.74944048  0.86330234  1
  O  O247  1  0.50580847  0.25543623  0.36888635  1
  O  O248  1  0.51146048  0.24871562  0.87053824  1
  O  O249  1  0.50242854  0.75117677  0.36968424  1
  O  O250  1  0.50026372  0.75477638  0.86979472  1
  O  O251  1  0.23761546  0.12782831  0.50353953  1
  O  O252  1  0.25672013  0.13465050  0.98667384  1
  O  O253  1  0.24307963  0.62893894  0.48953651  1
  O  O254  1  0.24397568  0.63936757  0.98788948  1
  O  O255  1  0.74776545  0.13046861  0.49753096  1
  O  O256  1  0.74244114  0.12419448  0.99424739  1
  O  O257  1  0.73693884  0.64011112  0.51091562  1
  O  O258  1  0.74632588  0.61898247  0.99505979  1
  O  O259  1  0.25798635  0.37018271  0.00353758  1
  O  O260  1  0.24873903  0.36395478  0.49923899  1
  O  O261  1  0.26645126  0.86360007  -0.01029471  1
  O  O262  1  0.25459528  0.87812884  0.51839215  1
  O  O263  1  0.76065275  0.37556815  0.00633777  1
  O  O264  1  0.74667535  0.36124455  0.50945147  1
  O  O265  1  0.75749698  0.87196869  -0.00437904  1
  O  O266  1  0.74712477  0.86443693  0.50865736  1
  O  O267  1  0.13496098  0.49758739  0.25687470  1
  O  O268  1  0.13562246  0.50481999  0.73988519  1
  O  O269  1  0.13733834  0.99421251  0.24872414  1
  O  O270  1  0.13524292  0.99251973  0.75736898  1
  O  O271  1  0.63214227  0.49320236  0.24537219  1
  O  O272  1  0.63049719  0.49420595  0.74594526  1
  O  O273  1  0.64135660  1.00848537  0.25408367  1
  O  O274  1  0.63255525  0.99239995  0.74409546  1
  O  O275  1  0.37900228  0.00420519  0.25325198  1
  O  O276  1  0.36721127  0.00340323  0.76006608  1
  O  O277  1  0.37249395  0.50312524  0.25889416  1
  O  O278  1  0.37135730  0.49771936  0.76272070  1
  O  O279  1  0.86766768  0.00961370  0.25746630  1
  O  O280  1  0.86112965  0.00049477  0.74476216  1
  O  O281  1  0.86084808  0.49477556  0.25297356  1
  O  O282  1  0.86383630  0.50855385  0.74588274  1
  O  O283  1  0.11370411  0.36242730  0.37559077  1
  O  O284  1  0.10942466  0.36968100  0.87197552  1
  O  O285  1  0.19995562  0.84405752  0.38769863  1
  O  O286  1  0.11820112  0.86173274  0.85915707  1
  O  O287  1  0.61956270  0.36809872  0.37226406  1
  O  O288  1  0.62506531  0.36598074  0.87088837  1
  O  O289  1  0.61775294  0.86334840  0.38032603  1
  O  O290  1  0.61337865  0.87171787  0.87315138  1
  O  O291  1  0.37921279  0.14164854  0.11206029  1
  O  O292  1  0.38175051  0.12622334  0.63523489  1
  O  O293  1  0.38258878  0.63604386  0.13205082  1
  O  O294  1  0.38692785  0.62462329  0.61651336  1
  O  O295  1  0.87897552  0.13410670  0.13144845  1
  O  O296  1  0.88724364  0.13120110  0.62711420  1
  O  O297  1  0.88894276  0.62582611  0.13656167  1
  O  O298  1  0.88298803  0.62684914  0.63671904  1
  O  O299  1  0.25836665  0.25947218  0.11495826  1
  O  O300  1  0.24996594  0.25171305  0.61470987  1
  O  O301  1  0.25578012  0.74164694  0.11563445  1
  O  O302  1  0.25372314  0.76302338  0.63937706  1
  O  O303  1  0.75825192  0.26273942  0.12452618  1
  O  O304  1  0.75793035  0.25165316  0.62273961  1
  O  O305  1  0.74569814  0.74827560  0.12237361  1
  O  O306  1  0.74754530  0.75778574  0.62026647  1
  O  O307  1  0.24023190  0.24739247  0.37930662  1
  O  O308  1  0.25173713  0.24142082  0.87955636  1
  O  O309  1  0.26959612  0.72257284  0.36768500  1
  O  O310  1  0.24354007  0.74293534  0.87749653  1
  O  O311  1  0.74910771  0.24558414  0.38220123  1
  O  O312  1  0.73825715  0.24342251  0.87448694  1
  O  O313  1  0.73920746  0.75525660  0.38348950  1
  O  O314  1  0.74573515  0.73330112  0.87888958  1
  O  O315  1  -0.01113761  0.11423252  0.00888138  1
  O  O316  1  0.01126941  0.11853294  0.50672905  1
  O  O317  1  -0.00771959  0.62430939  0.01422261  1
  O  O318  1  0.01003970  0.63534409  0.51222682  1
  O  O319  1  0.50889527  0.11366790  -0.00750627  1
  O  O320  1  0.50525141  0.11796988  0.50604250  1
  O  O321  1  0.50652202  0.61676768  0.00590222  1
  O  O322  1  0.50532334  0.62471124  0.50734633  1
  O  O323  1  0.49991350  0.37425258  0.48629989  1
  O  O324  1  0.49505562  0.38235313  0.99915089  1
  O  O325  1  0.49017790  0.88237344  0.50136517  1
  O  O326  1  0.49350762  0.87616453  0.99302170  1
  O  O327  1  1.00084972  0.36571137  0.47958571  1
  O  O328  1  0.99111882  0.37559753  0.98605381  1
  O  O329  1  1.00380125  0.88769938  0.51049366  1
  O  O330  1  0.99042721  0.88967185  0.99451586  1
  O  O331  1  0.49334916  0.48994031  0.37432238  1
  O  O332  1  0.49325203  0.50069124  0.88111106  1
  O  O333  1  0.48959115  0.99867696  0.38215646  1
  O  O334  1  0.49583769  0.99034380  0.88113079  1
  O  O335  1  1.00088373  0.49166898  0.37125740  1
  O  O336  1  0.99894416  0.48673007  0.86980820  1
  O  O337  1  0.99258329  1.00733064  0.38464951  1
  O  O338  1  0.99504569  1.00527228  0.88290366  1
  O  O339  1  -0.00554620  0.01130042  0.11377499  1
  O  O340  1  -0.00418348  0.01023228  0.61573946  1
  O  O341  1  0.00248208  0.51781996  0.12838083  1
  O  O342  1  0.00793576  0.51003233  0.63233752  1
  O  O343  1  0.49796117  -0.00337865  0.11415565  1
  O  O344  1  0.50512758  0.00393551  0.62003616  1
  O  O345  1  0.50362266  0.50332621  0.12133779  1
  O  O346  1  0.50533411  0.50604905  0.62415813  1
  O  O347  1  0.25586567  0.38915242  0.24019379  1
  O  O348  1  0.25364141  0.38925557  0.74999269  1
  O  O349  1  0.25898406  0.88107475  0.22524011  1
  O  O350  1  0.24397993  0.88352347  0.75174437  1
  O  O351  1  0.74637402  0.37875402  0.24351710  1
  O  O352  1  0.74713864  0.38139735  0.74680865  1
  O  O353  1  0.75547200  0.89274718  0.25376512  1
  O  O354  1  0.74417173  0.87813615  0.74518304  1
  O  O355  1  0.25787614  0.13465275  0.23800373  1
  O  O356  1  0.25516787  0.11828640  0.75672791  1
  O  O357  1  0.25368492  0.60890324  0.25419227  1
  O  O358  1  0.24982516  0.61597544  0.76219625  1
  O  O359  1  0.75987833  0.12041495  0.25818900  1
  O  O360  1  0.74995544  0.11349423  0.75788213  1
  O  O361  1  0.74904329  0.60732031  0.24653362  1
  O  O362  1  0.75494619  0.61903421  0.75577707  1
  O  O363  1  0.37851965  0.11198278  0.37471711  1
  O  O364  1  0.36773556  0.12127882  0.87011041  1
  O  O365  1  0.37168838  0.61112260  0.36931111  1
  O  O366  1  0.36459091  0.61480055  0.88157110  1
  O  O367  1  0.87295972  0.12062415  0.36810585  1
  O  O368  1  0.85821111  0.13465786  0.87416900  1
  O  O369  1  0.87761083  0.62333380  0.36571275  1
  O  O370  1  0.86895044  0.62727865  0.86439538  1
  O  O371  1  0.13774628  0.36826485  0.12190360  1
  O  O372  1  0.12367159  0.38800391  0.61924069  1
  O  O373  1  0.12877399  0.87788688  0.12155825  1
  O  O374  1  0.13404913  0.87118226  0.64071840  1
  O  O375  1  0.63592901  0.37896073  0.12874935  1
  O  O376  1  0.63117853  0.38036512  0.63167940  1
  O  O377  1  0.63379305  0.88522896  0.12029096  1
  O  O378  1  0.63294977  0.87887322  0.62911549  1
  O  O379  1  0.12509231  0.25056237  0.26186616  1
  O  O380  1  0.11247306  0.24877144  0.74711797  1
  O  O381  1  0.10815269  0.76397463  0.25882510  1
  O  O382  1  0.11521581  0.75410089  0.75349443  1
  O  O383  1  0.62166183  0.25572557  0.25546913  1
  O  O384  1  0.61948090  0.25265595  0.75733529  1
  O  O385  1  0.61256989  0.73700262  0.26479574  1
  O  O386  1  0.61363785  0.75689619  0.75268025  1
  O  O387  1  0.38630689  0.25704188  0.23855609  1
  O  O388  1  0.38566773  0.24401692  0.75163872  1
  O  O389  1  0.37768129  0.74514831  0.24430979  1
  O  O390  1  0.38845577  0.75611675  0.74801741  1
  O  O391  1  0.87073632  0.23861809  0.24091670  1
  O  O392  1  0.88179830  0.24476429  0.73889149  1
  O  O393  1  0.89515901  0.75834472  0.25607943  1
  O  O394  1  0.88175816  0.74231134  0.74855304  1
  O  O395  1  0.37515373  0.49641246  0.48420669  1
  O  O396  1  0.38174657  0.48820044  0.98960838  1
  O  O397  1  0.38509097  0.99760767  0.50262329  1
  O  O398  1  0.38326835  0.98639926  0.99325048  1
  O  O399  1  0.85920713  0.49203197  0.50215298  1
  O  O400  1  0.87848049  0.48535848  1.00468031  1
  O  O401  1  0.88668750  1.00031462  0.49197170  1
  O  O402  1  0.88233836  0.99144632  0.99624689  1
  O  O403  1  0.10425894  -0.00014283  -0.00826671  1
  O  O404  1  0.11877252  0.00865659  0.49078022  1
  O  O405  1  0.12244517  0.50023770  -0.01025766  1
  O  O406  1  0.13112253  0.51230448  0.50953469  1
  O  O407  1  0.61446582  0.00959376  0.00008714  1
  O  O408  1  0.61420743  0.00293705  0.50312022  1
  O  O409  1  0.62010091  0.50663361  0.00651169  1
  O  O410  1  0.62413528  0.50810848  0.50700772  1
  O  O411  1  0.36675201  0.37191359  0.11536966  1
  O  O412  1  0.37162997  0.37066086  0.61902111  1
  O  O413  1  0.38256476  0.85744952  0.11396809  1
  O  O414  1  0.36944549  0.87359311  0.61584829  1
  O  O415  1  0.87363145  0.37021215  0.11905686  1
  O  O416  1  0.86967594  0.36485181  0.62502962  1
  O  O417  1  0.86435573  0.88472950  0.10674090  1
  O  O418  1  0.86160873  0.87245843  0.62125737  1
  O  O419  1  0.12692413  0.13379855  0.37890768  1
  O  O420  1  0.14164768  0.13064131  0.87130036  1
  O  O421  1  0.13374887  0.61796677  0.38471761  1
  O  O422  1  0.13161699  0.63946820  0.86814266  1
  O  O423  1  0.63307913  0.13112133  0.38387280  1
  O  O424  1  0.63342522  0.13203891  0.88273450  1
  O  O425  1  0.61812073  0.63008545  0.38903309  1
  O  O426  1  0.63337598  0.62256546  0.88550505  1
