# generated using pymatgen
data_V85Zn86O256
_symmetry_space_group_name_H-M   'P 1'
_cell_length_a   16.95693582
_cell_length_b   16.95315415
_cell_length_c   16.94647130
_cell_angle_alpha   90.01173211
_cell_angle_beta   89.96547146
_cell_angle_gamma   90.09966041
_symmetry_Int_Tables_number   1
_chemical_formula_structural   V85Zn86O256
_chemical_formula_sum   'V85 Zn86 O256'
_cell_volume   4871.65385524
_cell_formula_units_Z   1
loop_
 _symmetry_equiv_pos_site_id
 _symmetry_equiv_pos_as_xyz
  1  'x, y, z'
loop_
 _atom_site_type_symbol
 _atom_site_label
 _atom_site_symmetry_multiplicity
 _atom_site_fract_x
 _atom_site_fract_y
 _atom_site_fract_z
 _atom_site_occupancy
  V  V0  1  -0.00076848  -0.00156495  0.49957495  1
  V  V1  1  -0.00370676  0.63153262  0.11970277  1
  V  V2  1  0.12598596  0.36610439  0.74938601  1
  V  V3  1  0.39912994  0.38740435  0.49872691  1
  V  V4  1  0.74829911  0.87050058  0.62856087  1
  V  V5  1  0.87524650  0.63306546  0.24570720  1
  V  V6  1  0.24868435  0.25386315  0.00009570  1
  V  V7  1  -0.01423429  0.11282149  0.14474985  1
  V  V8  1  0.38170639  0.87330448  -0.00633444  1
  V  V9  1  0.37849001  0.25176900  0.62720034  1
  V  V10  1  0.37773001  0.37888182  -0.00020220  1
  V  V11  1  0.87491354  0.74751693  0.62523420  1
  V  V12  1  0.37942795  0.74441113  0.62161373  1
  V  V13  1  0.61081833  0.86563907  0.75908457  1
  V  V14  1  0.61181275  0.49458070  0.12237739  1
  V  V15  1  0.74816126  0.25016431  -0.00124581  1
  V  V16  1  0.87278802  0.61890251  0.75542066  1
  V  V17  1  -0.00036725  0.74873354  0.74775259  1
  V  V18  1  0.50531147  -0.00545447  -0.00512728  1
  V  V19  1  0.37659821  0.50092009  0.37428281  1
  V  V20  1  0.75210811  0.25032363  0.50034647  1
  V  V21  1  0.13561041  0.00683978  0.62541577  1
  V  V22  1  0.25492103  0.49900182  0.74712170  1
  V  V23  1  0.12341724  0.12805083  -0.00011621  1
  V  V24  1  0.87712025  0.48986965  0.37249786  1
  V  V25  1  0.49781159  -0.00626918  0.49775439  1
  V  V26  1  0.13096050  0.62431487  0.49426048  1
  V  V27  1  -0.00576507  0.50022133  -0.00738322  1
  V  V28  1  0.11944536  0.26232394  0.37812304  1
  V  V29  1  0.75432919  0.86852564  0.13704748  1
  V  V30  1  0.75171034  0.62379512  0.37453512  1
  V  V31  1  0.62707686  -0.00887763  0.14149460  1
  V  V32  1  0.13051241  0.74821314  0.37176255  1
  V  V33  1  0.50457148  0.37439912  0.87253844  1
  V  V34  1  0.62330083  0.24948311  0.86557345  1
  V  V35  1  -0.00082795  0.87461265  0.87281814  1
  V  V36  1  0.12565194  0.50011545  0.62368120  1
  V  V37  1  0.62040889  0.24874429  0.37718310  1
  V  V38  1  0.74864771  0.62365419  0.87540996  1
  V  V39  1  0.87530164  0.87218591  0.49791188  1
  V  V40  1  0.11978493  0.13037124  0.48794337  1
  V  V41  1  0.12642423  0.74963093  0.87152582  1
  V  V42  1  0.61967426  0.37582502  0.25791633  1
  V  V43  1  0.37068856  0.00405343  0.87162855  1
  V  V44  1  0.87789089  0.12726513  0.74907226  1
  V  V45  1  0.12758423  0.88265294  0.74700165  1
  V  V46  1  0.62709427  -0.00493995  0.62797293  1
  V  V47  1  0.00002879  0.49319556  0.49440114  1
  V  V48  1  0.62470897  0.75208514  0.37089110  1
  V  V49  1  0.38065345  0.49932433  0.87347217  1
  V  V50  1  0.74901693  0.37739741  0.12386797  1
  V  V51  1  0.50363986  0.12250914  0.62706297  1
  V  V52  1  0.12898028  0.38361119  0.25177170  1
  V  V53  1  0.74718488  0.74556559  0.50083531  1
  V  V54  1  0.87352266  0.24912367  0.12960957  1
  V  V55  1  0.87129822  0.25596776  0.62978461  1
  V  V56  1  0.50228103  0.74804954  0.24785470  1
  V  V57  1  0.43641822  0.68365574  0.79100954  1
  V  V58  1  0.25346106  0.87523369  0.62226577  1
  V  V59  1  0.75127751  0.49907538  0.24969099  1
  V  V60  1  -0.00298878  0.87789363  0.37335154  1
  V  V61  1  0.62553590  0.12057515  0.00282842  1
  V  V62  1  0.62577352  0.48592454  0.62204793  1
  V  V63  1  0.49542423  0.87601530  0.36972174  1
  V  V64  1  0.74773852  0.48721684  0.74871123  1
  V  V65  1  0.74998397  0.12225562  0.87662031  1
  V  V66  1  0.26136842  0.01431493  0.26118887  1
  V  V67  1  0.50083877  0.62015543  0.61713843  1
  V  V68  1  0.74927819  -0.00506080  0.75174024  1
  V  V69  1  0.28051298  0.22159683  0.47788467  1
  V  V70  1  0.37600013  0.74651104  0.12573555  1
  V  V71  1  0.87679528  -0.00115336  0.87432467  1
  V  V72  1  0.13021505  0.00300382  0.12387123  1
  V  V73  1  0.12805918  0.87887506  0.24977638  1
  V  V74  1  -0.00404276  -0.00024606  -0.00226601  1
  V  V75  1  0.25129594  0.62633251  0.86631709  1
  V  V76  1  -0.00244384  0.26021705  0.25228964  1
  V  V77  1  0.61887283  0.61958334  0.00111885  1
  V  V78  1  -0.00602623  0.36948691  0.87021000  1
  V  V79  1  0.12786778  0.50212646  0.12437152  1
  V  V80  1  0.35843568  0.61842203  0.25420139  1
  V  V81  1  -0.00034342  0.13165823  0.63047865  1
  V  V82  1  0.25278541  0.37400191  0.61224008  1
  V  V83  1  0.25271379  0.87463991  0.12319038  1
  V  V84  1  0.00026893  0.62353169  0.62354001  1
  Zn  Zn85  1  0.61976488  0.61643716  0.49670495  1
  Zn  Zn86  1  0.50179020  0.24869687  0.75050989  1
  Zn  Zn87  1  0.36745019  0.11633200  0.74160638  1
  Zn  Zn88  1  0.24412997  0.12382310  0.86421256  1
  Zn  Zn89  1  -0.00166590  0.75261411  0.24407323  1
  Zn  Zn90  1  0.63425693  0.11492674  0.49500437  1
  Zn  Zn91  1  0.37261712  0.24029193  0.13379638  1
  Zn  Zn92  1  0.87268756  0.86527505  0.00498212  1
  Zn  Zn93  1  0.87186636  0.37956840  -0.00558554  1
  Zn  Zn94  1  0.25042271  0.74840777  -0.00339126  1
  Zn  Zn95  1  0.75030912  0.11158466  0.34358005  1
  Zn  Zn96  1  0.24908535  0.37837620  0.12563544  1
  Zn  Zn97  1  0.61440108  0.74776274  0.87572541  1
  Zn  Zn98  1  0.25299478  0.74721333  0.49412578  1
  Zn  Zn99  1  0.12590574  0.62344875  -0.00421923  1
  Zn  Zn100  1  0.75071767  0.74826444  0.00516734  1
  Zn  Zn101  1  0.49318659  0.12249350  0.13768206  1
  Zn  Zn102  1  0.48908823  0.24756173  0.25444052  1
  Zn  Zn103  1  0.87253805  0.37736107  0.50568933  1
  Zn  Zn104  1  0.37240619  0.87240125  0.49406332  1
  Zn  Zn105  1  0.12206245  0.24766985  0.87084507  1
  Zn  Zn106  1  0.49390824  0.61221446  0.12704712  1
  Zn  Zn107  1  0.18505847  0.18999679  0.18869326  1
  Zn  Zn108  1  0.19595680  0.18797576  0.68032199  1
  Zn  Zn109  1  0.18398675  0.68917473  0.18379578  1
  Zn  Zn110  1  0.19074627  0.68871731  0.68496594  1
  Zn  Zn111  1  0.67462057  0.19108245  0.18430652  1
  Zn  Zn112  1  0.69394360  0.18352379  0.68369622  1
  Zn  Zn113  1  0.68494906  0.68426294  0.18676211  1
  Zn  Zn114  1  0.68263554  0.68295050  0.68877492  1
  Zn  Zn115  1  0.31040196  0.32150533  0.31598783  1
  Zn  Zn116  1  0.30991651  0.31077842  0.81348480  1
  Zn  Zn117  1  0.31362456  0.81323239  0.30854790  1
  Zn  Zn118  1  0.30851031  0.82292314  0.81023713  1
  Zn  Zn119  1  0.80654457  0.30648929  0.31272402  1
  Zn  Zn120  1  0.81362246  0.30993237  0.81365310  1
  Zn  Zn121  1  0.81158316  0.81541673  0.31229150  1
  Zn  Zn122  1  0.81074960  0.80784541  0.81680207  1
  Zn  Zn123  1  0.19275521  0.44329071  0.43172005  1
  Zn  Zn124  1  0.18393947  0.43827589  0.93598852  1
  Zn  Zn125  1  0.18767891  0.94046470  0.43563929  1
  Zn  Zn126  1  0.18947130  0.93750195  0.93893356  1
  Zn  Zn127  1  0.69158374  0.43318050  0.44197464  1
  Zn  Zn128  1  0.68565044  0.43855690  0.93489282  1
  Zn  Zn129  1  0.68260964  0.93343906  0.43369226  1
  Zn  Zn130  1  0.69121338  0.93148479  0.94131032  1
  Zn  Zn131  1  0.31194087  0.06254016  0.05882075  1
  Zn  Zn132  1  0.31866561  0.06723227  0.54381099  1
  Zn  Zn133  1  0.31050994  0.56237160  0.05716529  1
  Zn  Zn134  1  0.31540556  0.56385753  0.56137934  1
  Zn  Zn135  1  0.80654781  0.06397130  0.16872828  1
  Zn  Zn136  1  0.81735436  0.06094640  0.47616612  1
  Zn  Zn137  1  0.81180990  0.56302266  0.06063217  1
  Zn  Zn138  1  0.81078252  0.55963797  0.56557506  1
  Zn  Zn139  1  0.42330848  0.41486354  0.20251115  1
  Zn  Zn140  1  0.44318216  0.43758304  0.69097128  1
  Zn  Zn141  1  0.43986838  0.93737329  0.18519889  1
  Zn  Zn142  1  0.43713714  0.93378758  0.68700916  1
  Zn  Zn143  1  0.93964103  0.44013355  0.18312697  1
  Zn  Zn144  1  0.93892323  0.43956150  0.69148235  1
  Zn  Zn145  1  0.94088217  0.92966666  0.18170203  1
  Zn  Zn146  1  0.93888010  0.94074050  0.68295957  1
  Zn  Zn147  1  -0.05824884  0.06689881  0.31707903  1
  Zn  Zn148  1  0.06466099  0.06429178  0.81071626  1
  Zn  Zn149  1  0.05992330  0.56456052  0.31040266  1
  Zn  Zn150  1  0.06414165  0.55747476  0.81082269  1
  Zn  Zn151  1  0.55502725  0.06877319  0.31397358  1
  Zn  Zn152  1  0.55862731  0.06018769  0.81313898  1
  Zn  Zn153  1  0.55844280  0.56344955  0.31215951  1
  Zn  Zn154  1  0.57022565  0.55340935  0.81208139  1
  Zn  Zn155  1  0.44958241  0.18653758  0.44464840  1
  Zn  Zn156  1  0.43526636  0.18441150  0.95221091  1
  Zn  Zn157  1  0.43653572  0.68319694  0.43462367  1
  Zn  Zn158  1  0.43782484  0.67938533  0.95423572  1
  Zn  Zn159  1  0.93866685  0.19639374  0.43945968  1
  Zn  Zn160  1  0.93704078  0.18795074  0.94305675  1
  Zn  Zn161  1  0.94143996  0.68551573  0.43338497  1
  Zn  Zn162  1  0.93475602  0.68722813  0.93710018  1
  Zn  Zn163  1  0.05945143  0.31401016  0.06336917  1
  Zn  Zn164  1  0.05985849  0.31352685  0.56494326  1
  Zn  Zn165  1  0.06386811  0.81184566  0.05784326  1
  Zn  Zn166  1  0.06621188  0.81137912  0.56089665  1
  Zn  Zn167  1  0.55679919  0.30997160  0.06140705  1
  Zn  Zn168  1  0.56810519  0.30915152  0.56353340  1
  Zn  Zn169  1  0.56677199  0.81073406  0.06237088  1
  Zn  Zn170  1  0.56108710  0.80844802  0.56271260  1
  O  O171  1  0.11472893  0.11653658  0.12185803  1
  O  O172  1  0.11557062  0.12095413  0.62281923  1
  O  O173  1  0.11639755  0.62030939  0.12006721  1
  O  O174  1  0.11933675  0.61953881  0.61942256  1
  O  O175  1  0.62392615  0.11009732  0.11616996  1
  O  O176  1  0.61897447  0.11151046  0.63019094  1
  O  O177  1  0.62414966  0.61112369  0.11951036  1
  O  O178  1  0.61591181  0.61806507  0.62191096  1
  O  O179  1  0.37775667  0.38599792  0.39133415  1
  O  O180  1  0.37818517  0.38268678  0.88017886  1
  O  O181  1  0.39038120  0.86602538  0.37595700  1
  O  O182  1  0.36870839  0.88286016  0.88740010  1
  O  O183  1  0.86910138  0.38761067  0.37480793  1
  O  O184  1  0.88992008  0.37353657  0.87335450  1
  O  O185  1  0.88565621  0.86813023  0.38327362  1
  O  O186  1  0.88309568  0.88274758  0.87036327  1
  O  O187  1  0.25034432  -0.00202813  0.36043005  1
  O  O188  1  0.26613018  0.00292021  0.88360465  1
  O  O189  1  0.27291882  0.50742156  0.38637279  1
  O  O190  1  0.25440761  0.50702552  0.86531350  1
  O  O191  1  0.75161982  0.01025110  0.39670580  1
  O  O192  1  0.75789808  0.00243841  0.87179840  1
  O  O193  1  0.75691594  0.50608382  0.37101397  1
  O  O194  1  0.74344813  0.50962162  0.86057448  1
  O  O195  1  0.23135141  0.50268023  0.11563715  1
  O  O196  1  0.24709724  0.49357221  0.62960435  1
  O  O197  1  0.24151995  0.99313441  0.12111709  1
  O  O198  1  0.23960976  0.99546610  0.61391149  1
  O  O199  1  0.74676933  0.48845489  0.12852772  1
  O  O200  1  0.73947064  0.50305773  0.63683033  1
  O  O201  1  0.73454212  0.98716068  0.12439960  1
  O  O202  1  0.73548273  0.98966262  0.63251577  1
  O  O203  1  0.00944706  0.36650480  0.24246717  1
  O  O204  1  0.00976828  0.38164941  0.76230934  1
  O  O205  1  0.00854946  0.87409480  0.25570765  1
  O  O206  1  0.00788092  0.87014168  0.75201194  1
  O  O207  1  0.51932478  0.38128004  0.25739048  1
  O  O208  1  0.49477139  0.36679811  0.76593608  1
  O  O209  1  0.49335782  0.85916512  0.25475146  1
  O  O210  1  0.51266222  0.87384089  0.75049811  1
  O  O211  1  0.48973528  0.13243266  0.25320380  1
  O  O212  1  0.49254544  0.12442753  0.73846454  1
  O  O213  1  0.48972452  0.63497716  0.24466695  1
  O  O214  1  0.50207557  0.62108682  0.74121153  1
  O  O215  1  1.00809071  0.14303433  0.24347613  1
  O  O216  1  0.99169569  0.11975451  0.74152326  1
  O  O217  1  0.99191168  0.62776481  0.23871011  1
  O  O218  1  0.99285494  0.62621884  0.74503448  1
  O  O219  1  0.36414820  0.26434690  -0.00299608  1
  O  O220  1  0.38219191  0.27078059  0.50910738  1
  O  O221  1  0.37294327  0.75532214  0.00799315  1
  O  O222  1  0.37119880  0.74975146  0.50679026  1
  O  O223  1  0.86062084  0.25394656  0.00364280  1
  O  O224  1  0.86800344  0.25367574  0.50997646  1
  O  O225  1  0.86563422  0.75222502  -0.00863752  1
  O  O226  1  0.87023660  0.75243678  0.50461697  1
  O  O227  1  0.11797332  0.24435527  0.49206000  1
  O  O228  1  0.12836088  0.24304100  1.00132123  1
  O  O229  1  0.12532308  0.74121960  0.49090700  1
  O  O230  1  0.12823866  0.74978810  0.98229824  1
  O  O231  1  0.63456548  0.24922811  0.49217813  1
  O  O232  1  0.63369429  0.24214969  0.99527970  1
  O  O233  1  0.63342693  0.74449951  0.49359156  1
  O  O234  1  0.62600903  0.73637311  0.99640562  1
  O  O235  1  0.49902873  0.24629565  0.13187915  1
  O  O236  1  0.49800857  0.24029457  0.62609082  1
  O  O237  1  0.48837137  0.74918272  0.12992100  1
  O  O238  1  0.48791590  0.74136331  0.62556269  1
  O  O239  1  0.99033391  0.24450936  0.13135371  1
  O  O240  1  0.99357439  0.23753970  0.62108855  1
  O  O241  1  1.00533080  0.73628439  0.12197349  1
  O  O242  1  0.99674789  0.74429132  0.62959783  1
  O  O243  1  0.00858340  0.25310832  0.36688395  1
  O  O244  1  0.00264416  0.26489397  0.88081233  1
  O  O245  1  0.01112955  0.76157955  0.37324962  1
  O  O246  1  0.00875785  0.75321691  0.86587895  1
  O  O247  1  0.51634321  0.25131941  0.37985084  1
  O  O248  1  0.50828001  0.25141538  0.87597664  1
  O  O249  1  0.50673497  0.75083972  0.36726092  1
  O  O250  1  0.49171708  0.73261841  0.86476551  1
  O  O251  1  0.22276166  0.13065871  0.51763936  1
  O  O252  1  0.23361094  0.13164872  0.99954104  1
  O  O253  1  0.23410533  0.62623965  0.50741621  1
  O  O254  1  0.24901754  0.62766235  0.98033691  1
  O  O255  1  0.74635399  0.14236750  0.51520042  1
  O  O256  1  0.73873563  0.13373609  0.99207714  1
  O  O257  1  0.75380453  0.63531241  0.49487077  1
  O  O258  1  0.74061783  0.62147830  0.99173733  1
  O  O259  1  0.25335200  0.36863209  -0.00250330  1
  O  O260  1  0.25402100  0.37789128  0.50941496  1
  O  O261  1  0.25672852  0.87191590  0.00991100  1
  O  O262  1  0.24834557  0.87325480  0.51020847  1
  O  O263  1  0.75003736  0.36904222  0.00515628  1
  O  O264  1  0.75486713  0.35818176  0.50277375  1
  O  O265  1  0.75094329  0.87048915  0.01380610  1
  O  O266  1  0.75316080  0.86093272  0.50703011  1
  O  O267  1  0.11524724  0.49456768  0.23937957  1
  O  O268  1  0.13659188  0.49051983  0.74322621  1
  O  O269  1  0.13835523  0.98659122  0.23807510  1
  O  O270  1  0.12101906  0.99034403  0.74043820  1
  O  O271  1  0.63397430  0.49616812  0.24564099  1
  O  O272  1  0.63995695  0.50087779  0.73873706  1
  O  O273  1  0.61900582  1.00110705  0.23896979  1
  O  O274  1  0.62775373  0.98757230  0.74765296  1
  O  O275  1  0.35832633  -0.00461035  0.24044059  1
  O  O276  1  0.38165531  -0.00500936  0.76855651  1
  O  O277  1  0.37509106  0.50968722  0.25747329  1
  O  O278  1  0.36205274  0.49266064  0.75716422  1
  O  O279  1  0.90910841  0.03308431  0.21351842  1
  O  O280  1  0.87076415  0.00828285  0.75237314  1
  O  O281  1  0.87164288  0.50604144  0.25568309  1
  O  O282  1  0.86133954  0.50854152  0.74038108  1
  O  O283  1  0.12585097  0.37132926  0.36933476  1
  O  O284  1  0.11856670  0.37209860  0.86465308  1
  O  O285  1  0.11875574  0.87256703  0.36590167  1
  O  O286  1  0.12339263  0.87105966  0.86498429  1
  O  O287  1  0.63794873  0.36208263  0.36888561  1
  O  O288  1  0.61631251  0.36311860  0.88143681  1
  O  O289  1  0.61510483  0.85825133  0.37736996  1
  O  O290  1  0.62805415  0.86998780  0.86300807  1
  O  O291  1  0.38621551  0.13392025  0.09500331  1
  O  O292  1  0.38453383  0.13454427  0.61972053  1
  O  O293  1  0.37352944  0.62916417  0.13044802  1
  O  O294  1  0.38320753  0.63080561  0.62787625  1
  O  O295  1  0.88167490  0.14255899  0.11083975  1
  O  O296  1  0.88500884  0.13339625  0.63539960  1
  O  O297  1  0.88264614  0.61828309  0.13395060  1
  O  O298  1  0.88063193  0.62961939  0.63262534  1
  O  O299  1  0.24977293  0.25464669  0.11332338  1
  O  O300  1  0.26302838  0.25571812  0.60556518  1
  O  O301  1  0.25932593  0.75635641  0.12202865  1
  O  O302  1  0.26018932  0.75712935  0.62264051  1
  O  O303  1  0.75165163  0.26145889  0.11720308  1
  O  O304  1  0.75986893  0.25081657  0.61929565  1
  O  O305  1  0.73957780  0.76454098  0.12716451  1
  O  O306  1  0.75378119  0.74966907  0.61838040  1
  O  O307  1  0.24179297  0.25942608  0.38680350  1
  O  O308  1  0.24514570  0.24716528  0.88681889  1
  O  O309  1  0.23504548  0.75922128  0.37501651  1
  O  O310  1  0.24362887  0.74403148  0.86875439  1
  O  O311  1  0.74600480  0.24289645  0.38757983  1
  O  O312  1  0.74363200  0.24545219  0.88176173  1
  O  O313  1  0.74340379  0.74598498  0.38092564  1
  O  O314  1  0.74378696  0.73210704  0.87139517  1
  O  O315  1  0.00689777  0.11796240  0.00979496  1
  O  O316  1  0.00706054  0.11858458  0.50758942  1
  O  O317  1  0.00237740  0.61767270  0.00143081  1
  O  O318  1  0.00873885  0.61723728  0.50508414  1
  O  O319  1  0.51685476  0.11532967  -0.00343822  1
  O  O320  1  0.51131990  0.11343698  0.51175306  1
  O  O321  1  0.51239829  0.61705700  0.00915397  1
  O  O322  1  0.50070400  0.62759833  0.51313071  1
  O  O323  1  0.49661220  0.38050004  0.50438067  1
  O  O324  1  0.48938808  0.37098914  0.98621437  1
  O  O325  1  0.50059266  0.87720094  0.49121441  1
  O  O326  1  0.49221320  0.87987873  1.00308898  1
  O  O327  1  0.99731759  0.38982658  0.50425006  1
  O  O328  1  0.99895295  0.38173434  0.98814248  1
  O  O329  1  1.00017337  0.88086567  0.49325697  1
  O  O330  1  1.00204564  0.88214680  0.99009465  1
  O  O331  1  0.47966002  0.51857834  0.38050229  1
  O  O332  1  0.49138509  0.49047582  0.86675875  1
  O  O333  1  0.51156557  0.98712352  0.38479601  1
  O  O334  1  0.49043232  1.00074406  0.88770511  1
  O  O335  1  0.98941456  0.50731332  0.38357233  1
  O  O336  1  1.00662959  0.48775416  0.88232802  1
  O  O337  1  1.00021207  0.98795545  0.38381997  1
  O  O338  1  0.99789005  0.99543053  0.87970643  1
  O  O339  1  0.01611191  -0.00121428  0.11436361  1
  O  O340  1  0.01344100  0.00627363  0.61822588  1
  O  O341  1  0.00709002  0.51006671  0.11499784  1
  O  O342  1  0.00683852  0.50520776  0.61894663  1
  O  O343  1  0.51185655  -0.00253889  0.11448895  1
  O  O344  1  0.50853430  0.00226597  0.62307694  1
  O  O345  1  0.51109865  0.49123130  0.13437423  1
  O  O346  1  0.51559231  0.50570925  0.63234894  1
  O  O347  1  0.23300337  0.37722172  0.24653201  1
  O  O348  1  0.24529740  0.37948109  0.73857468  1
  O  O349  1  0.24577379  0.87747060  0.23698273  1
  O  O350  1  0.23983734  0.87580638  0.73443190  1
  O  O351  1  0.74446412  0.37939736  0.24131670  1
  O  O352  1  0.75480845  0.38889936  0.75568848  1
  O  O353  1  0.75213686  0.87645199  0.23818015  1
  O  O354  1  0.74709594  0.87797578  0.74450340  1
  O  O355  1  0.24792154  0.11318366  0.24507104  1
  O  O356  1  0.25528893  0.12685967  0.75070049  1
  O  O357  1  0.26067801  0.62725473  0.24428534  1
  O  O358  1  0.24573358  0.61515934  0.75712913  1
  O  O359  1  0.75769664  0.13746556  0.23632750  1
  O  O360  1  0.75732488  0.11430296  0.75652384  1
  O  O361  1  0.75742059  0.61813852  0.25290331  1
  O  O362  1  0.75639961  0.61854434  0.75477779  1
  O  O363  1  0.34600156  0.14221483  0.44375829  1
  O  O364  1  0.37499499  0.11087657  0.87921293  1
  O  O365  1  0.37038125  0.62534442  0.35905970  1
  O  O366  1  0.37399669  0.62241814  0.86422816  1
  O  O367  1  0.87328251  0.11959579  0.38849340  1
  O  O368  1  0.87236310  0.11926768  0.87047471  1
  O  O369  1  0.86968685  0.61806645  0.36685532  1
  O  O370  1  0.86878712  0.62356607  0.86125314  1
  O  O371  1  0.12308137  0.38500967  0.13155349  1
  O  O372  1  0.13343068  0.38025805  0.62792182  1
  O  O373  1  0.13277895  0.87890941  0.12777175  1
  O  O374  1  0.13059843  0.88233378  0.62949157  1
  O  O375  1  0.63246777  0.37838064  0.13125622  1
  O  O376  1  0.62162992  0.38702599  0.62791719  1
  O  O377  1  0.63031964  0.88575476  0.12469299  1
  O  O378  1  0.62793471  0.87606562  0.63556258  1
  O  O379  1  0.11985096  0.25979117  0.25949273  1
  O  O380  1  0.13046230  0.26324089  0.74485056  1
  O  O381  1  0.12339092  0.76151869  0.25324085  1
  O  O382  1  0.12145546  0.75907650  0.75483211  1
  O  O383  1  0.62513079  0.25933864  0.26338661  1
  O  O384  1  0.62734349  0.24145256  0.76287123  1
  O  O385  1  0.61414465  0.74132287  0.25838857  1
  O  O386  1  0.62624677  0.76186778  0.75215238  1
  O  O387  1  0.38381726  0.29962438  0.23478588  1
  O  O388  1  0.37433728  0.25343380  0.73389251  1
  O  O389  1  0.37739587  0.73885633  0.24240167  1
  O  O390  1  0.37309688  0.75188552  0.74346977  1
  O  O391  1  0.88382206  0.25881688  0.24089868  1
  O  O392  1  0.86803501  0.23526343  0.74620491  1
  O  O393  1  0.87731578  0.73653893  0.25573466  1
  O  O394  1  0.88062062  0.74107319  0.74456320  1
  O  O395  1  0.37942210  0.49134514  0.49971342  1
  O  O396  1  0.36946832  0.49890143  0.97980515  1
  O  O397  1  0.39353618  0.98989461  0.50768456  1
  O  O398  1  0.38395763  0.98994984  0.99357989  1
  O  O399  1  0.88153439  0.49994954  0.49310259  1
  O  O400  1  0.88919987  0.49791205  1.00327399  1
  O  O401  1  0.89347854  0.98734839  0.51578228  1
  O  O402  1  0.89220902  0.99505587  0.99443475  1
  O  O403  1  0.11955001  0.00693661  0.00396859  1
  O  O404  1  0.11668345  0.01036063  0.50332861  1
  O  O405  1  0.11333385  0.50181248  0.00477407  1
  O  O406  1  0.11842300  0.50574456  0.50176141  1
  O  O407  1  0.61981957  0.00441024  -0.00058284  1
  O  O408  1  0.61630015  -0.00597847  0.51367220  1
  O  O409  1  0.62988838  0.50467154  0.01188803  1
  O  O410  1  0.63632570  0.50094252  0.51656053  1
  O  O411  1  0.36771469  0.39576882  0.10304925  1
  O  O412  1  0.37281130  0.37446803  0.61617511  1
  O  O413  1  0.36936902  0.86731044  0.11647789  1
  O  O414  1  0.36780377  0.86657748  0.62399512  1
  O  O415  1  0.86752505  0.36705650  0.12082656  1
  O  O416  1  0.88569528  0.35895083  0.63007237  1
  O  O417  1  0.85973401  0.87702962  0.12456930  1
  O  O418  1  0.86968904  0.86622988  0.62089469  1
  O  O419  1  0.12260325  0.13731418  0.38923152  1
  O  O420  1  0.12265977  0.12802599  0.88485709  1
  O  O421  1  0.11831805  0.63523761  0.38145704  1
  O  O422  1  0.13279623  0.63350947  0.86973943  1
  O  O423  1  0.63068815  0.13710321  0.37622129  1
  O  O424  1  0.63068322  0.12887365  0.87968794  1
  O  O425  1  0.63315287  0.63172786  0.37707683  1
  O  O426  1  0.62947775  0.62246023  0.88367852  1
