# generated using pymatgen
data_V85Zn86O256
_symmetry_space_group_name_H-M   'P 1'
_cell_length_a   16.96338808
_cell_length_b   16.94064364
_cell_length_c   16.95492002
_cell_angle_alpha   90.00542170
_cell_angle_beta   90.00570639
_cell_angle_gamma   90.08654878
_symmetry_Int_Tables_number   1
_chemical_formula_structural   V85Zn86O256
_chemical_formula_sum   'V85 Zn86 O256'
_cell_volume   4872.34184044
_cell_formula_units_Z   1
loop_
 _symmetry_equiv_pos_site_id
 _symmetry_equiv_pos_as_xyz
  1  'x, y, z'
loop_
 _atom_site_type_symbol
 _atom_site_label
 _atom_site_symmetry_multiplicity
 _atom_site_fract_x
 _atom_site_fract_y
 _atom_site_fract_z
 _atom_site_occupancy
  V  V0  1  0.62531595  0.25257067  0.37556353  1
  V  V1  1  0.12069646  0.35343838  0.75114016  1
  V  V2  1  0.24832558  0.87420043  0.62139736  1
  V  V3  1  0.75399170  0.00511777  0.75973983  1
  V  V4  1  0.75480778  0.24864755  -0.00773297  1
  V  V5  1  0.62137529  0.50491353  0.12423934  1
  V  V6  1  0.62813906  0.24525466  0.87332819  1
  V  V7  1  0.74368408  -0.00497627  0.25050514  1
  V  V8  1  0.62845655  0.38094792  0.75145601  1
  V  V9  1  0.37777617  0.87200374  0.49823864  1
  V  V10  1  0.23686174  0.49944432  0.74431537  1
  V  V11  1  0.00671559  0.61921107  0.60653808  1
  V  V12  1  0.24662356  -0.00107522  0.74727656  1
  V  V13  1  0.24465502  0.25019397  -0.00174565  1
  V  V14  1  0.37877888  0.37464121  0.00154213  1
  V  V15  1  0.00245251  -0.00246566  0.00259060  1
  V  V16  1  0.75505896  0.87172042  0.62733259  1
  V  V17  1  0.87338583  0.38506419  0.49975629  1
  V  V18  1  0.00318537  0.12770822  0.13294506  1
  V  V19  1  0.74800594  0.12476846  0.37576979  1
  V  V20  1  -0.00413256  0.87453266  0.87128693  1
  V  V21  1  0.87218194  0.13063470  0.25277643  1
  V  V22  1  0.62404214  0.75074270  0.36177040  1
  V  V23  1  0.62662912  -0.00359018  0.12434277  1
  V  V24  1  0.12596544  0.37570530  0.24640705  1
  V  V25  1  0.03874648  0.40584136  0.41781178  1
  V  V26  1  0.38693676  0.63014993  0.24413432  1
  V  V27  1  0.50125480  -0.00426715  0.49877469  1
  V  V28  1  -0.00250353  0.26738196  0.25250698  1
  V  V29  1  0.88708538  0.24064028  0.62793595  1
  V  V30  1  0.11445690  0.00679669  0.60167848  1
  V  V31  1  0.60959563  0.50673828  0.62339158  1
  V  V32  1  0.25379057  0.00456771  0.24987243  1
  V  V33  1  0.12353516  0.12472783  0.00574720  1
  V  V34  1  0.75922932  0.61828972  0.87081918  1
  V  V35  1  0.25320802  0.24401706  0.49806196  1
  V  V36  1  0.24165595  0.62811928  0.86894485  1
  V  V37  1  0.87669834  -0.00028144  0.38240390  1
  V  V38  1  0.74783514  0.25086551  0.50651400  1
  V  V39  1  0.25114775  0.37567852  0.12419528  1
  V  V40  1  0.74597560  0.86116100  0.12487891  1
  V  V41  1  -0.00224137  0.36686217  0.87094481  1
  V  V42  1  0.89161623  0.74417372  0.12377162  1
  V  V43  1  0.07653545  -0.05567249  0.19145658  1
  V  V44  1  0.26014300  0.13020709  0.36922771  1
  V  V45  1  0.38160505  0.50499633  0.38100423  1
  V  V46  1  0.50115362  0.24808917  0.75118124  1
  V  V47  1  0.38425671  0.37495844  0.50353364  1
  V  V48  1  0.63219718  0.63170431  -0.00301815  1
  V  V49  1  0.49896953  0.12184344  0.62632734  1
  V  V50  1  0.86902288  0.86738190  -0.00172709  1
  V  V51  1  0.11319047  0.76114239  0.37368188  1
  V  V52  1  0.62821978  0.12446444  -0.00080332  1
  V  V53  1  0.37336520  0.00061922  0.87586424  1
  V  V54  1  0.49843902  0.50456038  0.00150860  1
  V  V55  1  0.75234444  0.37783675  0.12456781  1
  V  V56  1  0.75100083  0.38714624  0.62937164  1
  V  V57  1  0.87473619  0.25434555  0.12585800  1
  V  V58  1  0.38102882  0.74568760  0.62359524  1
  V  V59  1  0.37455377  0.12457860  0.75135437  1
  V  V60  1  0.87738034  0.38931453  -0.00495287  1
  V  V61  1  0.37706522  0.61916277  0.74687672  1
  V  V62  1  0.37977083  0.00202454  0.36926440  1
  V  V63  1  0.75318589  0.50505513  0.25221585  1
  V  V64  1  0.49905162  0.87228022  0.87530043  1
  V  V65  1  0.25034167  0.37266637  0.62527534  1
  V  V66  1  0.37393019  0.49909980  0.87250322  1
  V  V67  1  0.24266542  0.62736744  0.38304778  1
  V  V68  1  0.50343202  0.38037611  0.37573644  1
  V  V69  1  0.62601863  -0.00487662  0.62837079  1
  V  V70  1  0.88297833  0.87500550  0.50436329  1
  V  V71  1  0.25175651  0.50095014  0.24978938  1
  V  V72  1  0.25146514  0.88574591  0.12652054  1
  V  V73  1  0.62415230  0.12288683  0.50156353  1
  V  V74  1  0.22725860  0.71917404  0.02956693  1
  V  V75  1  0.50028907  0.74223939  0.75470429  1
  V  V76  1  0.87767989  0.60839107  0.74677963  1
  V  V77  1  0.49654966  0.24616250  0.24838996  1
  V  V78  1  0.88808573  0.63074330  0.25144067  1
  V  V79  1  0.61421387  0.62683487  0.50254041  1
  V  V80  1  0.24379971  0.12780664  0.87558349  1
  V  V81  1  0.10376660  0.23411359  0.38891476  1
  V  V82  1  0.50314984  0.86946178  0.35785046  1
  V  V83  1  0.36491176  0.86796932  -0.00283171  1
  V  V84  1  0.12059767  0.87626209  0.74774732  1
  Zn  Zn85  1  0.12253119  0.74684286  0.87318161  1
  Zn  Zn86  1  0.62621266  0.87177977  0.75365535  1
  Zn  Zn87  1  0.50081390  0.37369151  0.87575684  1
  Zn  Zn88  1  0.11881943  0.49518828  0.59880823  1
  Zn  Zn89  1  0.37221018  0.24128550  0.12875574  1
  Zn  Zn90  1  0.37584658  0.24747001  0.62608532  1
  Zn  Zn91  1  0.87683944  0.74721309  0.62633705  1
  Zn  Zn92  1  -0.00024429  0.87804270  0.36970955  1
  Zn  Zn93  1  0.88560964  0.14040173  0.77064725  1
  Zn  Zn94  1  -0.00299770  0.74557140  0.74647460  1
  Zn  Zn95  1  0.49850274  0.12129530  0.12851498  1
  Zn  Zn96  1  0.38610388  0.75760017  0.14139067  1
  Zn  Zn97  1  0.63280656  0.75001489  0.87748914  1
  Zn  Zn98  1  0.74713879  0.74913554  0.50108008  1
  Zn  Zn99  1  0.87989260  0.50319546  0.37659832  1
  Zn  Zn100  1  0.75201630  0.62712626  0.37907788  1
  Zn  Zn101  1  0.49824998  0.00251994  0.00012726  1
  Zn  Zn102  1  0.03924723  0.62817769  0.10406420  1
  Zn  Zn103  1  0.02319538  0.50764737  -0.00171013  1
  Zn  Zn104  1  0.24459101  0.74278918  0.50391805  1
  Zn  Zn105  1  0.86867173  0.00999018  0.88433619  1
  Zn  Zn106  1  0.62605904  0.37793049  0.25028310  1
  Zn  Zn107  1  0.18678515  0.18755333  0.19096658  1
  Zn  Zn108  1  0.18818866  0.18025492  0.67947229  1
  Zn  Zn109  1  0.20168282  0.69448367  0.20203829  1
  Zn  Zn110  1  0.18066094  0.68694222  0.68341380  1
  Zn  Zn111  1  0.68415676  0.18892201  0.18651785  1
  Zn  Zn112  1  0.69155476  0.18525876  0.68903811  1
  Zn  Zn113  1  0.68845448  0.68147947  0.18859366  1
  Zn  Zn114  1  0.69026826  0.68388564  0.69336034  1
  Zn  Zn115  1  0.31744231  0.31429413  0.31369282  1
  Zn  Zn116  1  0.31097577  0.31115940  0.81394855  1
  Zn  Zn117  1  0.31087258  0.81342192  0.31222258  1
  Zn  Zn118  1  0.31124327  0.80948862  0.80933145  1
  Zn  Zn119  1  0.80927795  0.31867658  0.31603382  1
  Zn  Zn120  1  0.81445854  0.31640951  0.81059771  1
  Zn  Zn121  1  0.81174246  0.81081986  0.31196770  1
  Zn  Zn122  1  0.81331260  0.80520327  0.80891188  1
  Zn  Zn123  1  0.20517682  0.43023805  0.43286651  1
  Zn  Zn124  1  0.18747452  0.43014157  0.92429899  1
  Zn  Zn125  1  0.19243251  0.93277254  0.43271789  1
  Zn  Zn126  1  0.18205636  0.94007064  0.93700518  1
  Zn  Zn127  1  0.68795948  0.44327850  0.44158837  1
  Zn  Zn128  1  0.68953059  0.44023550  0.93513844  1
  Zn  Zn129  1  0.68860119  0.93063949  0.43842079  1
  Zn  Zn130  1  0.68608979  0.93277627  0.93974802  1
  Zn  Zn131  1  0.31483188  0.06374646  0.06386866  1
  Zn  Zn132  1  0.31149080  0.06004536  0.55910207  1
  Zn  Zn133  1  0.20471826  0.55170023  0.05864393  1
  Zn  Zn134  1  0.31553743  0.55893902  0.56387162  1
  Zn  Zn135  1  0.81284321  0.06358568  0.06276703  1
  Zn  Zn136  1  0.81056805  0.05937653  0.56512574  1
  Zn  Zn137  1  0.81163219  0.56780024  0.06215765  1
  Zn  Zn138  1  0.80752315  0.56787527  0.56494722  1
  Zn  Zn139  1  0.43699623  0.43828069  0.18865054  1
  Zn  Zn140  1  0.43908963  0.43495927  0.68971260  1
  Zn  Zn141  1  0.43678540  0.94222866  0.18481037  1
  Zn  Zn142  1  0.43665923  0.93352784  0.68987409  1
  Zn  Zn143  1  0.94286932  0.45607843  0.17584878  1
  Zn  Zn144  1  0.94362756  0.43539997  0.68366654  1
  Zn  Zn145  1  0.91269825  0.93791933  0.18871491  1
  Zn  Zn146  1  0.95756403  0.98262490  0.70252397  1
  Zn  Zn147  1  0.05438028  0.07805877  0.33738627  1
  Zn  Zn148  1  0.06141976  0.06681896  0.81693499  1
  Zn  Zn149  1  0.06732289  0.56305051  0.30890905  1
  Zn  Zn150  1  0.05519020  0.55559219  0.81552023  1
  Zn  Zn151  1  0.56399088  0.06228306  0.31208009  1
  Zn  Zn152  1  0.56508928  0.06168541  0.81475944  1
  Zn  Zn153  1  0.56578762  0.56453784  0.31385253  1
  Zn  Zn154  1  0.56369469  0.56135383  0.81615714  1
  Zn  Zn155  1  0.43954573  0.18822799  0.43665772  1
  Zn  Zn156  1  0.43818154  0.18742052  0.94150210  1
  Zn  Zn157  1  0.43981235  0.68776217  0.43576368  1
  Zn  Zn158  1  0.45122321  0.70673675  0.97531707  1
  Zn  Zn159  1  0.93082483  0.20539289  0.43274965  1
  Zn  Zn160  1  0.94016321  0.18981728  0.93945724  1
  Zn  Zn161  1  0.93497998  0.69321600  0.43794184  1
  Zn  Zn162  1  0.93768424  0.68370721  0.93589809  1
  Zn  Zn163  1  0.06313188  0.31794876  0.06066279  1
  Zn  Zn164  1  0.06584537  0.30735506  0.56910772  1
  Zn  Zn165  1  0.06134911  0.81080986  0.05771286  1
  Zn  Zn166  1  0.06300817  0.80632956  0.55948319  1
  Zn  Zn167  1  0.56607494  0.31561411  0.06313062  1
  Zn  Zn168  1  0.56366235  0.31326159  0.56662853  1
  Zn  Zn169  1  0.55929690  0.81577595  0.06585741  1
  Zn  Zn170  1  0.56205253  0.80964355  0.56150747  1
  O  O171  1  0.11768183  0.12972973  0.11664741  1
  O  O172  1  0.12997503  0.10522266  0.62067406  1
  O  O173  1  0.16311466  0.65117871  0.10318334  1
  O  O174  1  0.11289307  0.61742665  0.62013952  1
  O  O175  1  0.62400776  0.11471884  0.11820181  1
  O  O176  1  0.62113558  0.11264036  0.62165874  1
  O  O177  1  0.63422662  0.61157988  0.11452323  1
  O  O178  1  0.62741259  0.61257854  0.62241418  1
  O  O179  1  0.38405964  0.38280587  0.38252366  1
  O  O180  1  0.37494142  0.38039658  0.88203418  1
  O  O181  1  0.38310208  0.88017517  0.37960019  1
  O  O182  1  0.37539861  0.88171221  0.87768080  1
  O  O183  1  0.86852506  0.37818539  0.39451809  1
  O  O184  1  0.88621074  0.37096939  0.88061907  1
  O  O185  1  0.87338990  0.88304260  0.38172499  1
  O  O186  1  0.87871069  0.87583665  0.88405093  1
  O  O187  1  0.26091864  0.00650000  0.36924304  1
  O  O188  1  0.25485495  0.00631759  0.86840247  1
  O  O189  1  0.26218249  0.50677648  0.36994399  1
  O  O190  1  0.25584390  0.50322322  0.86084343  1
  O  O191  1  0.75203444  0.00345343  0.36788935  1
  O  O192  1  0.74499353  -0.00434500  0.86290324  1
  O  O193  1  0.75122487  0.49919584  0.36184177  1
  O  O194  1  0.74204467  0.51736470  0.86984161  1
  O  O195  1  0.25840116  0.48423806  0.13695254  1
  O  O196  1  0.24260846  0.49073236  0.62614582  1
  O  O197  1  0.25076541  0.99529367  0.13430229  1
  O  O198  1  0.25029606  0.98703950  0.62762045  1
  O  O199  1  0.74636327  0.49520044  0.13362898  1
  O  O200  1  0.74202030  0.48885537  0.62477634  1
  O  O201  1  0.74515823  0.99286905  0.13218066  1
  O  O202  1  0.74203120  0.99147395  0.63338325  1
  O  O203  1  0.00934641  0.37292850  0.23455852  1
  O  O204  1  0.01144309  0.37148033  0.75569293  1
  O  O205  1  0.00742781  0.88985840  0.24277434  1
  O  O206  1  0.00516374  0.88408884  0.75736829  1
  O  O207  1  0.50414689  0.36839211  0.25977588  1
  O  O208  1  0.51162991  0.36523548  0.75004744  1
  O  O209  1  0.49624216  0.87626394  0.25873759  1
  O  O210  1  0.49828341  0.86676063  0.76262536  1
  O  O211  1  0.50740885  0.14235544  0.25200276  1
  O  O212  1  0.49480249  0.12816060  0.74700044  1
  O  O213  1  0.48615127  0.61588256  0.25173662  1
  O  O214  1  0.48947897  0.63015559  0.75560514  1
  O  O215  1  0.99205388  0.14181153  0.25128173  1
  O  O216  1  0.98307836  0.08869375  0.74461685  1
  O  O217  1  0.98894621  0.62150259  0.24852855  1
  O  O218  1  0.98844671  0.62334720  0.75050796  1
  O  O219  1  0.36797092  0.26058764  -0.00107414  1
  O  O220  1  0.37189548  0.25667484  0.50207597  1
  O  O221  1  0.34469078  0.76558797  -0.00866915  1
  O  O222  1  0.37531260  0.75292495  0.50936447  1
  O  O223  1  0.86744656  0.25863761  0.00876775  1
  O  O224  1  0.86476466  0.25866927  0.50893644  1
  O  O225  1  0.87842933  0.75761305  0.00937612  1
  O  O226  1  0.86740222  0.75907771  0.50493689  1
  O  O227  1  0.13851750  0.26126252  0.49019289  1
  O  O228  1  0.13735106  0.24332760  1.00598472  1
  O  O229  1  0.12979974  0.75146528  0.48164617  1
  O  O230  1  0.14388216  0.76650387  0.99132024  1
  O  O231  1  0.62989269  0.24530109  0.49632702  1
  O  O232  1  0.63285527  0.24634745  0.99331720  1
  O  O233  1  0.62612376  0.74096213  0.49625709  1
  O  O234  1  0.62189064  0.73383508  1.00060969  1
  O  O235  1  0.50738465  0.25365331  0.14170877  1
  O  O236  1  0.50157652  0.24022228  0.63421104  1
  O  O237  1  0.47896736  0.74356764  0.08208291  1
  O  O238  1  0.48689201  0.75726287  0.63630444  1
  O  O239  1  0.99299354  0.24885521  0.13335060  1
  O  O240  1  0.98586568  0.24524622  0.62095033  1
  O  O241  1  0.99591300  0.74292059  0.12375131  1
  O  O242  1  1.00070634  0.73275748  0.62470693  1
  O  O243  1  0.00304954  0.29032769  0.36823737  1
  O  O244  1  0.00617277  0.26574264  0.88503222  1
  O  O245  1  0.00896868  0.75522310  0.37330542  1
  O  O246  1  0.00243372  0.76485820  0.87228280  1
  O  O247  1  0.50470498  0.25914368  0.36737811  1
  O  O248  1  0.50911464  0.25070502  0.86770006  1
  O  O249  1  0.51263559  0.75815675  0.37867120  1
  O  O250  1  0.49559586  0.75654951  0.87255683  1
  O  O251  1  0.25920406  0.13783480  0.49029340  1
  O  O252  1  0.24108865  0.13021069  0.99847883  1
  O  O253  1  0.25603947  0.62178485  0.48686418  1
  O  O254  1  0.26044211  0.62677499  0.98276487  1
  O  O255  1  0.74264158  0.13243500  0.49737958  1
  O  O256  1  0.73951838  0.13650794  1.00866991  1
  O  O257  1  0.73852400  0.62787530  0.49748788  1
  O  O258  1  0.74388782  0.62054291  0.98615269  1
  O  O259  1  0.25779579  0.36616522  0.00659276  1
  O  O260  1  0.26662691  0.36357249  0.50386920  1
  O  O261  1  0.25382354  0.89027574  0.01197867  1
  O  O262  1  0.26022472  0.87090015  0.50627334  1
  O  O263  1  0.75618965  0.36959327  0.00464824  1
  O  O264  1  0.75578101  0.36995292  0.50884988  1
  O  O265  1  0.76160445  0.87994027  0.00971131  1
  O  O266  1  0.75551000  0.87370412  0.51153411  1
  O  O267  1  0.14216381  0.49075620  0.25601134  1
  O  O268  1  0.13438605  0.49041409  0.74947374  1
  O  O269  1  0.12890285  1.00521296  0.25518695  1
  O  O270  1  0.13211906  0.98965999  0.74183627  1
  O  O271  1  0.63316471  0.50040667  0.24158975  1
  O  O272  1  0.61847614  0.49114269  0.73859219  1
  O  O273  1  0.63627188  1.00498736  0.24192684  1
  O  O274  1  0.63232889  0.99752375  0.74354276  1
  O  O275  1  0.37089221  -0.00053750  0.26200376  1
  O  O276  1  0.36840021  0.00224442  0.75934577  1
  O  O277  1  0.36886788  0.50225573  0.26203585  1
  O  O278  1  0.36606844  0.50323825  0.74832295  1
  O  O279  1  0.86022475  0.01064526  0.25787042  1
  O  O280  1  0.85601390  -0.01005357  0.75726478  1
  O  O281  1  0.86943426  0.51172128  0.24977040  1
  O  O282  1  0.87836841  0.50876220  0.74662791  1
  O  O283  1  0.13073499  0.36531603  0.36268180  1
  O  O284  1  0.12288853  0.36461780  0.85625587  1
  O  O285  1  0.12124355  0.86660072  0.37203414  1
  O  O286  1  0.11606227  0.87784000  0.86404508  1
  O  O287  1  0.61845217  0.37188997  0.37808154  1
  O  O288  1  0.62567035  0.36522330  0.86729182  1
  O  O289  1  0.61731445  0.86155882  0.37647882  1
  O  O290  1  0.61337187  0.86932248  0.87632946  1
  O  O291  1  0.38698789  0.13018083  0.11421051  1
  O  O292  1  0.38148510  0.12209313  0.63233535  1
  O  O293  1  0.36719981  0.62648870  0.14731001  1
  O  O294  1  0.36910316  0.63283264  0.63515872  1
  O  O295  1  0.88096410  0.13262394  0.13359906  1
  O  O296  1  0.86855691  0.14087824  0.61922961  1
  O  O297  1  0.86777008  0.63548554  0.13665882  1
  O  O298  1  0.88332921  0.62240381  0.63348615  1
  O  O299  1  0.25283599  0.25845262  0.12116809  1
  O  O300  1  0.25313021  0.25349225  0.61509631  1
  O  O301  1  0.25969678  0.76887485  0.12823937  1
  O  O302  1  0.25743174  0.75894805  0.62502676  1
  O  O303  1  0.75347623  0.25982012  0.11851347  1
  O  O304  1  0.74678987  0.25855842  0.61497758  1
  O  O305  1  0.75150434  0.75957468  0.13018811  1
  O  O306  1  0.74639988  0.76291166  0.62818582  1
  O  O307  1  0.25382609  0.24445988  0.38025178  1
  O  O308  1  0.25378100  0.24020476  0.88667306  1
  O  O309  1  0.25142024  0.73606623  0.37907591  1
  O  O310  1  0.24442261  0.73659135  0.86445338  1
  O  O311  1  0.74566918  0.24750672  0.38774028  1
  O  O312  1  0.74441591  0.25614076  0.88617864  1
  O  O313  1  0.73500474  0.75181151  0.37587736  1
  O  O314  1  0.74587910  0.73064283  0.86636534  1
  O  O315  1  0.00466354  0.11758562  0.01225121  1
  O  O316  1  0.03153931  0.15877225  0.42643115  1
  O  O317  1  0.01084610  0.62402588  -0.00771994  1
  O  O318  1  -0.00664873  0.62160036  0.50836167  1
  O  O319  1  0.51663299  0.12448179  -0.00131230  1
  O  O320  1  0.50569357  0.11739940  0.50505608  1
  O  O321  1  0.51024784  0.60738655  -0.00991414  1
  O  O322  1  0.51391429  0.62647363  0.49930586  1
  O  O323  1  0.49086596  0.36684415  0.49338246  1
  O  O324  1  0.49471850  0.37941161  0.99813763  1
  O  O325  1  0.49513340  0.88084585  0.49434278  1
  O  O326  1  0.48551139  0.87995946  0.98690982  1
  O  O327  1  0.98331434  0.36828211  0.50658555  1
  O  O328  1  0.99009329  0.37591871  0.99500356  1
  O  O329  1  0.98509704  0.86945618  0.49693864  1
  O  O330  1  0.99203650  0.88041746  0.99608999  1
  O  O331  1  0.49641779  0.48847578  0.37266804  1
  O  O332  1  0.49230395  0.49402519  0.88081202  1
  O  O333  1  0.49681976  0.99296005  0.37713874  1
  O  O334  1  0.49078483  0.99273593  0.87381331  1
  O  O335  1  0.99861310  0.48606852  0.36664466  1
  O  O336  1  1.01276435  0.47452763  0.88204225  1
  O  O337  1  0.98056253  0.99744440  0.36892355  1
  O  O338  1  0.99616962  0.98884857  0.88932345  1
  O  O339  1  0.00563751  0.00046444  0.13129817  1
  O  O340  1  0.01519855  -0.00782892  0.60528550  1
  O  O341  1  0.01004084  0.51774208  0.11508566  1
  O  O342  1  0.00422448  0.51281899  0.62531837  1
  O  O343  1  0.51265653  -0.00043910  0.12150530  1
  O  O344  1  0.50668735  0.00157314  0.62230178  1
  O  O345  1  0.51119066  0.49106585  0.11659713  1
  O  O346  1  0.51132205  0.49595663  0.62327650  1
  O  O347  1  0.24760319  0.37870996  0.24507364  1
  O  O348  1  0.24148049  0.37696131  0.74412759  1
  O  O349  1  0.25496953  0.89166478  0.24414079  1
  O  O350  1  0.24310619  0.87869814  0.74097541  1
  O  O351  1  0.75024359  0.38306103  0.24064190  1
  O  O352  1  0.73681995  0.36938498  0.74259588  1
  O  O353  1  0.75694935  0.88538601  0.23913414  1
  O  O354  1  0.74473906  0.88127310  0.74303137  1
  O  O355  1  0.25578693  0.11444647  0.25163837  1
  O  O356  1  0.25559613  0.11920960  0.75456909  1
  O  O357  1  0.26000906  0.61489160  0.26499699  1
  O  O358  1  0.25229825  0.61533639  0.74769207  1
  O  O359  1  0.75352169  0.12212703  0.25611548  1
  O  O360  1  0.75469639  0.10772954  0.74447816  1
  O  O361  1  0.75929719  0.61789064  0.25463624  1
  O  O362  1  0.76592107  0.62217876  0.75432668  1
  O  O363  1  0.37128844  0.11615789  0.37678961  1
  O  O364  1  0.36895859  0.11741825  0.87207617  1
  O  O365  1  0.37062342  0.61755368  0.37261922  1
  O  O366  1  0.36175021  0.61631456  0.85616449  1
  O  O367  1  0.86486570  0.12144139  0.37357809  1
  O  O368  1  0.87157331  0.12405575  0.88281931  1
  O  O369  1  0.87417030  0.62452727  0.36433471  1
  O  O370  1  0.86689369  0.62456674  0.86374516  1
  O  O371  1  0.13684459  0.36499437  0.13913182  1
  O  O372  1  0.12975163  0.37537342  0.63669962  1
  O  O373  1  0.12914666  0.87832562  0.13062167  1
  O  O374  1  0.13263983  0.88024474  0.62625848  1
  O  O375  1  0.63925963  0.38481509  0.12370066  1
  O  O376  1  0.63040034  0.38385294  0.63094329  1
  O  O377  1  0.63284075  0.88545368  0.11569359  1
  O  O378  1  0.62843557  0.88499866  0.62596549  1
  O  O379  1  0.11316449  0.25440641  0.26127788  1
  O  O380  1  0.12837783  0.25517606  0.74304023  1
  O  O381  1  0.13282062  0.74268108  0.27547446  1
  O  O382  1  0.11872500  0.76507953  0.74651917  1
  O  O383  1  0.62031263  0.25558175  0.25943044  1
  O  O384  1  0.62246429  0.25288247  0.75676007  1
  O  O385  1  0.62278077  0.74131804  0.26280886  1
  O  O386  1  0.60901366  0.74841069  0.75015250  1
  O  O387  1  0.39306937  0.25470531  0.25021031  1
  O  O388  1  0.38260997  0.24341917  0.74969630  1
  O  O389  1  0.37614423  0.73716560  0.25622397  1
  O  O390  1  0.38313190  0.74145732  0.74430704  1
  O  O391  1  0.88034605  0.25303706  0.24844413  1
  O  O392  1  0.86787056  0.24983595  0.73264893  1
  O  O393  1  0.87434934  0.73846694  0.24269736  1
  O  O394  1  0.88011623  0.73921789  0.74358910  1
  O  O395  1  0.37422672  0.49057643  0.48963233  1
  O  O396  1  0.38373706  0.48506201  0.99473175  1
  O  O397  1  0.38134676  0.99394467  0.48861054  1
  O  O398  1  0.37352132  0.99411074  0.98591288  1
  O  O399  1  0.86805643  0.48803586  0.50137523  1
  O  O400  1  0.87072920  0.48931763  1.00168143  1
  O  O401  1  0.86486275  0.99179096  0.49100377  1
  O  O402  1  0.88627237  0.99082321  1.00821706  1
  O  O403  1  0.11022738  0.00532898  0.00493175  1
  O  O404  1  0.13477066  -0.00054993  0.50331503  1
  O  O405  1  0.13711320  0.48316630  0.00491938  1
  O  O406  1  0.10889342  0.45699889  0.48575733  1
  O  O407  1  0.62705763  0.00872384  0.00603651  1
  O  O408  1  0.62071882  0.00250237  0.50748947  1
  O  O409  1  0.61855981  0.50295339  0.00606852  1
  O  O410  1  0.62711679  0.50771797  0.51479601  1
  O  O411  1  0.36976890  0.36909762  0.11835532  1
  O  O412  1  0.37125202  0.37254496  0.61824583  1
  O  O413  1  0.36776077  0.87960882  0.11473745  1
  O  O414  1  0.36800534  0.86776847  0.62088690  1
  O  O415  1  0.86636110  0.37552385  0.11883346  1
  O  O416  1  0.86738114  0.36737143  0.61945103  1
  O  O417  1  0.86820931  0.86111272  0.11876422  1
  O  O418  1  0.86532732  0.87708374  0.61806035  1
  O  O419  1  0.15273129  0.13434706  0.36074702  1
  O  O420  1  0.13000467  0.11743702  0.89237854  1
  O  O421  1  0.14059183  0.62211306  0.37652334  1
  O  O422  1  0.13753444  0.62430452  0.86218237  1
  O  O423  1  0.62974994  0.13069145  0.38253203  1
  O  O424  1  0.62643143  0.13736345  0.88078952  1
  O  O425  1  0.62560281  0.63481058  0.38326421  1
  O  O426  1  0.63274433  0.62626759  0.88113812  1
