# generated using pymatgen
data_V85Zn86O256
_symmetry_space_group_name_H-M   'P 1'
_cell_length_a   16.97597904
_cell_length_b   16.97764206
_cell_length_c   16.96905372
_cell_angle_alpha   90.01194132
_cell_angle_beta   89.92386819
_cell_angle_gamma   89.99515719
_symmetry_Int_Tables_number   1
_chemical_formula_structural   V85Zn86O256
_chemical_formula_sum   'V85 Zn86 O256'
_cell_volume   4890.68209298
_cell_formula_units_Z   1
loop_
 _symmetry_equiv_pos_site_id
 _symmetry_equiv_pos_as_xyz
  1  'x, y, z'
loop_
 _atom_site_type_symbol
 _atom_site_label
 _atom_site_symmetry_multiplicity
 _atom_site_fract_x
 _atom_site_fract_y
 _atom_site_fract_z
 _atom_site_occupancy
  V  V0  1  0.74293351  0.37241174  0.13132662  1
  V  V1  1  0.62539656  0.86555608  0.75267850  1
  V  V2  1  0.11886916  0.37014297  0.24822839  1
  V  V3  1  0.90424219  0.03220043  0.35931912  1
  V  V4  1  0.93013336  0.04781593  0.92813936  1
  V  V5  1  0.75071114  0.24519936  0.01037104  1
  V  V6  1  0.37837245  0.12606115  0.25106323  1
  V  V7  1  0.38032784  -0.00308672  0.88322921  1
  V  V8  1  0.75068511  -0.00052652  0.25496964  1
  V  V9  1  0.12825687  0.24482271  0.88178563  1
  V  V10  1  0.12305356  0.03471871  0.09224109  1
  V  V11  1  0.49875588  0.75318439  0.25001637  1
  V  V12  1  0.88909024  0.23668530  0.14270431  1
  V  V13  1  0.62357004  0.74343758  0.38224566  1
  V  V14  1  -0.00888295  0.87235387  0.88589096  1
  V  V15  1  0.37209295  0.37955291  0.49978042  1
  V  V16  1  0.87338537  0.62831457  0.24146342  1
  V  V17  1  0.62149664  0.25064464  0.87722134  1
  V  V18  1  0.37679218  0.74717117  0.63062230  1
  V  V19  1  0.00145924  0.25276484  0.75060417  1
  V  V20  1  0.87256816  0.11622932  0.74191543  1
  V  V21  1  -0.00514468  0.13053196  0.61947851  1
  V  V22  1  0.24876891  0.62475984  0.37101240  1
  V  V23  1  0.37601847  0.87458795  0.49854839  1
  V  V24  1  0.25020947  0.75021270  0.49883852  1
  V  V25  1  0.37872685  0.00048465  0.37293412  1
  V  V26  1  0.50174500  0.37870090  0.37045507  1
  V  V27  1  0.74663500  0.74039642  0.50271603  1
  V  V28  1  0.63096344  0.73785777  0.88635868  1
  V  V29  1  0.37019734  0.49581256  0.86948096  1
  V  V30  1  0.00068257  0.74570190  0.23859009  1
  V  V31  1  0.37447573  0.25761590  0.62950119  1
  V  V32  1  -0.00130141  0.62962682  0.62582013  1
  V  V33  1  0.62516493  -0.00195048  0.62771649  1
  V  V34  1  0.25431639  0.36339659  0.12662836  1
  V  V35  1  0.25088431  0.25410784  0.50567296  1
  V  V36  1  0.62358118  0.12126755  0.00286401  1
  V  V37  1  0.00189846  -0.00480897  0.49880175  1
  V  V38  1  0.12609208  0.12467701  0.49941136  1
  V  V39  1  0.49978732  0.50636915  -0.00218891  1
  V  V40  1  0.00053098  0.49812327  0.49787648  1
  V  V41  1  0.12470449  0.75009731  0.36717293  1
  V  V42  1  0.11807268  0.49785990  0.11931340  1
  V  V43  1  0.62650278  -0.00805640  0.12738513  1
  V  V44  1  0.37055587  0.77121207  0.11896974  1
  V  V45  1  0.62228792  0.50427921  0.12146037  1
  V  V46  1  0.82533920  0.30711655  0.67502574  1
  V  V47  1  -0.00356136  0.86720972  0.36783850  1
  V  V48  1  0.87173824  0.87313803  0.49113467  1
  V  V49  1  0.12404003  0.62243225  0.50136328  1
  V  V50  1  0.87171688  0.60934096  0.75175769  1
  V  V51  1  0.12348941  0.25092670  0.37148721  1
  V  V52  1  0.63728673  0.86830669  0.25004638  1
  V  V53  1  0.74297801  0.12269357  0.37444170  1
  V  V54  1  0.24867021  0.49827535  0.24514714  1
  V  V55  1  0.88077128  0.38455005  0.00941586  1
  V  V56  1  -0.00022589  0.38546139  0.88245425  1
  V  V57  1  0.12510291  0.00143018  0.62015687  1
  V  V58  1  0.75451180  0.60933559  0.88045216  1
  V  V59  1  0.49939236  0.74192602  0.75230845  1
  V  V60  1  0.24942216  0.87510054  0.62447767  1
  V  V61  1  0.75118130  0.25324673  0.50246566  1
  V  V62  1  0.50871776  0.50867084  0.50508261  1
  V  V63  1  0.37725950  0.36691622  0.00322632  1
  V  V64  1  0.73898073  0.49498874  0.25413267  1
  V  V65  1  0.62327150  0.25709497  0.37442844  1
  V  V66  1  0.24655533  0.61678777  0.86412925  1
  V  V67  1  0.37579432  0.50173974  0.37046351  1
  V  V68  1  0.25217703  0.12463626  0.37705611  1
  V  V69  1  0.12035961  0.62031868  -0.00243863  1
  V  V70  1  0.64727744  0.49211897  0.64964537  1
  V  V71  1  0.87432096  0.36844233  0.49987469  1
  V  V72  1  0.50399483  0.25961490  0.75380795  1
  V  V73  1  0.25262736  0.00453562  0.74896173  1
  V  V74  1  0.87270789  0.49976639  0.37360152  1
  V  V75  1  0.49949214  0.12597603  0.62993025  1
  V  V76  1  0.75073208  0.87278761  0.62476661  1
  V  V77  1  0.50017954  0.25410332  0.24726470  1
  V  V78  1  0.74716177  0.62424864  0.37941145  1
  V  V79  1  0.11896949  0.87516220  0.74719171  1
  V  V80  1  0.62353904  0.12640300  0.50447985  1
  V  V81  1  0.12705099  0.75280624  0.87599804  1
  V  V82  1  0.49719463  0.12691732  0.12522620  1
  V  V83  1  0.75036165  -0.00516328  0.76042109  1
  V  V84  1  0.37279192  0.62660358  0.23900922  1
  Zn  Zn85  1  0.23745364  0.23391193  0.01965584  1
  Zn  Zn86  1  0.37412054  0.12384656  0.74706794  1
  Zn  Zn87  1  0.14444242  0.37998350  0.75086356  1
  Zn  Zn88  1  -0.00623644  0.62302976  0.11330618  1
  Zn  Zn89  1  -0.00555610  0.75094427  0.75003480  1
  Zn  Zn90  1  0.49747272  -0.00878450  0.00491128  1
  Zn  Zn91  1  0.87171601  0.74966455  0.62823457  1
  Zn  Zn92  1  0.18616631  0.94431813  0.20865308  1
  Zn  Zn93  1  0.25055815  0.75499083  0.00646028  1
  Zn  Zn94  1  0.50075639  -0.00204246  0.50339309  1
  Zn  Zn95  1  0.51222919  0.62427341  0.62053313  1
  Zn  Zn96  1  0.50478509  0.37919072  0.87473817  1
  Zn  Zn97  1  0.14628184  0.49193919  0.63091761  1
  Zn  Zn98  1  -0.00171096  0.37296154  0.36996657  1
  Zn  Zn99  1  0.50313558  0.87602013  0.37707560  1
  Zn  Zn100  1  0.50216055  0.62976779  0.11928053  1
  Zn  Zn101  1  0.24893035  0.12158450  0.88508238  1
  Zn  Zn102  1  0.86547264  0.87248551  0.01899824  1
  Zn  Zn103  1  0.76083615  0.74736530  0.01848313  1
  Zn  Zn104  1  0.37170919  0.61782310  0.74592607  1
  Zn  Zn105  1  0.49824009  0.86628382  0.88342040  1
  Zn  Zn106  1  0.75193975  0.11938940  0.88118748  1
  Zn  Zn107  1  0.18149026  0.16503984  0.19713576  1
  Zn  Zn108  1  0.18573046  0.19292082  0.68913967  1
  Zn  Zn109  1  0.18812941  0.68765674  0.18162364  1
  Zn  Zn110  1  0.18625610  0.68681532  0.68858447  1
  Zn  Zn111  1  0.68372658  0.18518557  0.19136927  1
  Zn  Zn112  1  0.68550770  0.18518881  0.69304146  1
  Zn  Zn113  1  0.68627091  0.68184874  0.19194989  1
  Zn  Zn114  1  0.68959149  0.67606399  0.68928040  1
  Zn  Zn115  1  0.31280870  0.31008399  0.31140998  1
  Zn  Zn116  1  0.31573353  0.30830239  0.81822566  1
  Zn  Zn117  1  0.30992543  0.81637838  0.30613171  1
  Zn  Zn118  1  0.29215349  0.83320218  0.84606334  1
  Zn  Zn119  1  0.80993548  0.31286320  0.31409600  1
  Zn  Zn120  1  0.80815814  0.31499157  0.83797108  1
  Zn  Zn121  1  0.82522703  0.81681260  0.18061530  1
  Zn  Zn122  1  0.81400447  0.80281054  0.81536169  1
  Zn  Zn123  1  0.18922868  0.43821560  0.43667827  1
  Zn  Zn124  1  0.18839534  0.43005964  0.93921224  1
  Zn  Zn125  1  0.19760832  0.92605547  0.40207990  1
  Zn  Zn126  1  0.18574678  0.93992515  0.94167758  1
  Zn  Zn127  1  0.68759356  0.43517827  0.44545416  1
  Zn  Zn128  1  0.68636254  0.43419814  0.94468198  1
  Zn  Zn129  1  0.68459177  0.93274840  0.43824775  1
  Zn  Zn130  1  0.68752333  0.92788160  0.94239214  1
  Zn  Zn131  1  0.30874039  0.05888757  0.06558851  1
  Zn  Zn132  1  0.31469348  0.06302118  0.56196882  1
  Zn  Zn133  1  0.30528012  0.55933392  0.05398748  1
  Zn  Zn134  1  0.31755469  0.56710290  0.55613821  1
  Zn  Zn135  1  0.81371264  0.05932281  0.07496512  1
  Zn  Zn136  1  0.81221684  0.05717252  0.55790136  1
  Zn  Zn137  1  0.80574338  0.56300091  0.06334571  1
  Zn  Zn138  1  0.81446913  0.55794219  0.56747544  1
  Zn  Zn139  1  0.43810945  0.43704610  0.18539400  1
  Zn  Zn140  1  0.31679754  0.43716436  0.68740700  1
  Zn  Zn141  1  0.44277228  0.93969455  0.19186453  1
  Zn  Zn142  1  0.43928188  0.93207125  0.69228752  1
  Zn  Zn143  1  0.93436082  0.43647294  0.18726881  1
  Zn  Zn144  1  0.99434973  0.44336111  0.69311398  1
  Zn  Zn145  1  0.98876474  0.92879911  0.15647583  1
  Zn  Zn146  1  0.93555419  0.93726591  0.68364251  1
  Zn  Zn147  1  0.03739125  0.07818734  0.24553539  1
  Zn  Zn148  1  0.06688141  0.06555732  0.80821617  1
  Zn  Zn149  1  0.06102942  0.56149933  0.30932894  1
  Zn  Zn150  1  0.05866922  0.56389608  0.81348327  1
  Zn  Zn151  1  0.56297537  0.06124781  0.31426776  1
  Zn  Zn152  1  0.56321774  0.06306528  0.81419988  1
  Zn  Zn153  1  0.56020281  0.56569104  0.31025918  1
  Zn  Zn154  1  0.56347242  0.55882359  0.80924152  1
  Zn  Zn155  1  0.43991217  0.19010925  0.44096481  1
  Zn  Zn156  1  0.42537550  0.17657062  0.94184564  1
  Zn  Zn157  1  0.43518547  0.68719749  0.43400965  1
  Zn  Zn158  1  0.43332349  0.68514030  0.93684398  1
  Zn  Zn159  1  0.94136031  0.18699602  0.42532075  1
  Zn  Zn160  1  0.93715093  0.21261180  0.94393228  1
  Zn  Zn161  1  0.93284830  0.68767788  0.43521812  1
  Zn  Zn162  1  0.93394532  0.68855873  0.93743193  1
  Zn  Zn163  1  0.06135995  0.30630360  0.06819774  1
  Zn  Zn164  1  0.06103103  0.31261066  0.56184654  1
  Zn  Zn165  1  0.07601903  0.81879818  0.06231681  1
  Zn  Zn166  1  0.06339768  0.81085205  0.55751767  1
  Zn  Zn167  1  0.56083897  0.31512239  0.06267014  1
  Zn  Zn168  1  0.55985879  0.32014970  0.56460693  1
  Zn  Zn169  1  0.56359788  0.81137345  0.06256886  1
  Zn  Zn170  1  0.56186895  0.80993657  0.56500343  1
  O  O171  1  0.14359326  0.13475420  0.09161182  1
  O  O172  1  0.11683149  0.12171184  0.61875984  1
  O  O173  1  0.12629152  0.61501723  0.11500535  1
  O  O174  1  0.11895955  0.62310986  0.61360657  1
  O  O175  1  0.61547204  0.11709219  0.12228138  1
  O  O176  1  0.61923842  0.12067629  0.62122542  1
  O  O177  1  0.62050136  0.60905043  0.13242025  1
  O  O178  1  0.62563934  0.60015969  0.63234185  1
  O  O179  1  0.38179254  0.37999802  0.37960421  1
  O  O180  1  0.37788948  0.38023353  0.88590233  1
  O  O181  1  0.37779687  0.88335917  0.38212718  1
  O  O182  1  0.38663417  0.89492899  0.85289805  1
  O  O183  1  0.87581711  0.38489718  0.38022706  1
  O  O184  1  0.88406518  0.36570148  0.90051914  1
  O  O185  1  0.88449988  0.86826234  0.38813877  1
  O  O186  1  0.89228596  0.87228562  0.86501710  1
  O  O187  1  0.26303136  0.01925247  0.38652709  1
  O  O188  1  0.26050524  0.00315750  0.86477271  1
  O  O189  1  0.25596526  0.50588553  0.36657111  1
  O  O190  1  0.25722249  0.50484207  0.88151750  1
  O  O191  1  0.73552036  0.00832676  0.36775011  1
  O  O192  1  0.74021112  -0.00076684  0.86270026  1
  O  O193  1  0.75382505  0.50169421  0.37141609  1
  O  O194  1  0.74562700  0.51044345  0.88196989  1
  O  O195  1  0.24029142  0.49167545  0.12968506  1
  O  O196  1  0.25636277  0.49757507  0.61538472  1
  O  O197  1  0.22597664  0.99696115  0.11049036  1
  O  O198  1  0.24544862  0.99357020  0.62758300  1
  O  O199  1  0.74173229  0.49326908  0.13365963  1
  O  O200  1  0.74649071  0.49521091  0.63128717  1
  O  O201  1  0.73798722  1.00727476  0.14519837  1
  O  O202  1  0.74351977  0.99211865  0.63217625  1
  O  O203  1  0.01539749  0.38020379  0.25141593  1
  O  O204  1  -0.02086859  0.35643564  0.76713296  1
  O  O205  1  -0.00103272  0.86126780  0.26399272  1
  O  O206  1  0.01012114  0.87604940  0.74711090  1
  O  O207  1  0.49605352  0.36935210  0.26154811  1
  O  O208  1  0.49942044  0.35799409  0.75620406  1
  O  O209  1  0.50811366  0.86388328  0.25375600  1
  O  O210  1  0.51095566  0.85956592  0.74939506  1
  O  O211  1  0.49561135  0.13206381  0.24754606  1
  O  O212  1  0.50281515  0.12976055  0.73753728  1
  O  O213  1  0.48978807  0.63743744  0.24785371  1
  O  O214  1  0.49646961  0.63280727  0.74698810  1
  O  O215  1  0.96617637  0.11225503  0.32134443  1
  O  O216  1  0.98990570  0.13239545  0.74360398  1
  O  O217  1  0.99072775  0.62994115  0.24873759  1
  O  O218  1  0.99382245  0.63021069  0.74036741  1
  O  O219  1  0.38967612  0.26750120  0.00139721  1
  O  O220  1  0.37053852  0.25879918  0.50543611  1
  O  O221  1  0.37646461  0.74794978  0.01765319  1
  O  O222  1  0.36939220  0.75599610  0.50450583  1
  O  O223  1  0.86439786  0.25558529  0.01886378  1
  O  O224  1  0.87343030  0.26249771  0.49007836  1
  O  O225  1  0.87499672  0.75865360  -0.00253099  1
  O  O226  1  0.86393061  0.75578319  0.50260381  1
  O  O227  1  0.13517118  0.24834568  0.49729121  1
  O  O228  1  0.12495747  0.25600712  0.98541357  1
  O  O229  1  0.13138260  0.73877778  0.49397282  1
  O  O230  1  0.12772050  0.74425007  0.99132298  1
  O  O231  1  0.62713720  0.24470638  0.49607909  1
  O  O232  1  0.62921215  0.23714826  1.00223421  1
  O  O233  1  0.63188283  0.75274694  0.49346624  1
  O  O234  1  0.62449644  0.74311641  0.98685677  1
  O  O235  1  0.50810221  0.24124570  0.13632693  1
  O  O236  1  0.49572109  0.24557409  0.63119786  1
  O  O237  1  0.48876810  0.74882460  0.13309185  1
  O  O238  1  0.49379576  0.74459912  0.63137452  1
  O  O239  1  0.98922228  0.24515440  0.13014039  1
  O  O240  1  1.00098416  0.23654384  0.63241196  1
  O  O241  1  1.01438956  0.74516019  0.13681443  1
  O  O242  1  0.99882369  0.73787495  0.62004501  1
  O  O243  1  0.02002268  0.25686336  0.38190501  1
  O  O244  1  0.01040911  0.25376562  0.86878609  1
  O  O245  1  0.00603712  0.74884083  0.36795034  1
  O  O246  1  0.01038072  0.75931759  0.87154999  1
  O  O247  1  0.50606049  0.25919572  0.37297663  1
  O  O248  1  0.50594737  0.24290491  0.86934865  1
  O  O249  1  0.50515338  0.75113912  0.36797093  1
  O  O250  1  0.51049381  0.74349275  0.86854205  1
  O  O251  1  0.24856294  0.13492656  0.49609006  1
  O  O252  1  0.29073098  0.14055273  0.99085152  1
  O  O253  1  0.24284781  0.63059619  0.49088989  1
  O  O254  1  0.23849758  0.63099133  0.98749951  1
  O  O255  1  0.73550997  0.13092338  0.50243538  1
  O  O256  1  0.74224577  0.13003965  1.00608293  1
  O  O257  1  0.75729797  0.63324677  0.49667923  1
  O  O258  1  0.75667005  0.62835467  0.98449066  1
  O  O259  1  0.25862200  0.36543987  0.01018343  1
  O  O260  1  0.26373467  0.36853046  0.49291608  1
  O  O261  1  0.25389675  0.85607197  -0.04491038  1
  O  O262  1  0.26093912  0.86996347  0.50030993  1
  O  O263  1  0.75891523  0.36599754  0.01070668  1
  O  O264  1  0.76042702  0.36586551  0.49849186  1
  O  O265  1  0.75160492  0.86227932  0.00058127  1
  O  O266  1  0.75498820  0.86666768  0.50342230  1
  O  O267  1  0.13201278  0.49174212  0.24533886  1
  O  O268  1  0.09954362  0.49036810  0.74026307  1
  O  O269  1  0.14466333  1.05410405  0.23428953  1
  O  O270  1  0.12965533  0.99514386  0.73998088  1
  O  O271  1  0.63472570  0.50088300  0.24796818  1
  O  O272  1  0.62812429  0.48746761  0.74868630  1
  O  O273  1  0.62802680  0.98908829  0.24762066  1
  O  O274  1  0.63041229  0.98933219  0.74653410  1
  O  O275  1  0.38202485  0.00859943  0.26495520  1
  O  O276  1  0.36418974  0.00253321  0.74274357  1
  O  O277  1  0.37042465  0.50869718  0.25194751  1
  O  O278  1  0.37911086  0.49884104  0.76547641  1
  O  O279  1  0.86084939  -0.00452124  0.27394059  1
  O  O280  1  0.86520391  0.00768544  0.74482896  1
  O  O281  1  0.86623226  0.50248802  0.25867167  1
  O  O282  1  0.89257817  0.51376887  0.74435876  1
  O  O283  1  0.12946271  0.36836370  0.36534394  1
  O  O284  1  0.11707370  0.36491078  0.87222159  1
  O  O285  1  0.10725397  0.85474448  0.39555116  1
  O  O286  1  0.11254907  0.87019995  0.86421171  1
  O  O287  1  0.61666644  0.36492746  0.38147755  1
  O  O288  1  0.62352195  0.35491646  0.88945327  1
  O  O289  1  0.62356945  0.86110058  0.36843894  1
  O  O290  1  0.62579363  0.85809919  0.86279586  1
  O  O291  1  0.38903953  0.11330261  0.13776581  1
  O  O292  1  0.38486040  0.13707669  0.62146513  1
  O  O293  1  0.37176922  0.62421678  0.13418189  1
  O  O294  1  0.37589272  0.63904555  0.62470426  1
  O  O295  1  0.86924166  0.13852307  0.13365347  1
  O  O296  1  0.88229920  0.11801306  0.62943837  1
  O  O297  1  0.87771405  0.61221745  0.13818801  1
  O  O298  1  0.88096667  0.62711753  0.63384312  1
  O  O299  1  0.24603311  0.26185593  0.13421398  1
  O  O300  1  0.25933445  0.24444907  0.61341898  1
  O  O301  1  0.26468089  0.75433875  0.12699739  1
  O  O302  1  0.25615444  0.75579199  0.62059051  1
  O  O303  1  0.74592571  0.25571685  0.12270513  1
  O  O304  1  0.75605246  0.24889274  0.62258253  1
  O  O305  1  0.75469560  0.74408619  0.13420086  1
  O  O306  1  0.74629094  0.75397127  0.61783984  1
  O  O307  1  0.24897251  0.24447740  0.38769228  1
  O  O308  1  0.23440421  0.24617472  0.87305986  1
  O  O309  1  0.24232827  0.74254039  0.37849672  1
  O  O310  1  0.23241873  0.73567790  0.86136556  1
  O  O311  1  0.73919472  0.24469473  0.38120791  1
  O  O312  1  0.74297956  0.24165994  0.89445901  1
  O  O313  1  0.73899204  0.74015186  0.38749298  1
  O  O314  1  0.73653902  0.73844465  0.87109820  1
  O  O315  1  -0.01911486  0.11230810  -0.01766230  1
  O  O316  1  0.00411085  0.12031098  0.50471647  1
  O  O317  1  0.01474058  0.62706766  -0.00322080  1
  O  O318  1  0.00667710  0.62141511  0.50111423  1
  O  O319  1  0.50501585  0.11831906  0.01077317  1
  O  O320  1  0.51004728  0.12716919  0.51194782  1
  O  O321  1  0.49223586  0.61109952  0.00306305  1
  O  O322  1  0.49361188  0.61284146  0.49754572  1
  O  O323  1  0.48964988  0.38300595  0.48793156  1
  O  O324  1  0.49333747  0.38752539  1.00160385  1
  O  O325  1  0.48704914  0.87336757  0.50126339  1
  O  O326  1  0.51039146  0.88017965  0.99445946  1
  O  O327  1  0.99278415  0.38373531  0.49396702  1
  O  O328  1  0.98799479  0.36765574  1.00027962  1
  O  O329  1  0.98901801  0.87662571  0.49872875  1
  O  O330  1  0.99868183  0.87532217  0.98617793  1
  O  O331  1  0.49403151  0.49419016  0.37434397  1
  O  O332  1  0.49351591  0.49893333  0.88235911  1
  O  O333  1  0.49365420  0.99793545  0.38221013  1
  O  O334  1  0.49028601  0.99950946  0.87466236  1
  O  O335  1  0.99112138  0.50036407  0.38295506  1
  O  O336  1  1.00268617  0.48417470  0.87913342  1
  O  O337  1  1.00240198  0.98000383  0.38260553  1
  O  O338  1  0.99667492  0.99127797  0.86863005  1
  O  O339  1  0.02276462  0.03785888  0.13668997  1
  O  O340  1  0.00433199  0.00943820  0.61832247  1
  O  O341  1  0.01477880  0.50033828  0.13161109  1
  O  O342  1  -0.00801242  0.51724039  0.60437962  1
  O  O343  1  0.51200395  0.00788813  0.12872026  1
  O  O344  1  0.50583358  0.00766544  0.62582302  1
  O  O345  1  0.50725761  0.50099365  0.11990838  1
  O  O346  1  0.49636166  0.50254522  0.60424782  1
  O  O347  1  0.24547354  0.38034159  0.24484947  1
  O  O348  1  0.25522081  0.36310397  0.74329967  1
  O  O349  1  0.22634836  0.88684539  0.29329896  1
  O  O350  1  0.23582079  0.88597791  0.74749257  1
  O  O351  1  0.75156421  0.38363477  0.24389860  1
  O  O352  1  0.77234709  0.35964700  0.74005459  1
  O  O353  1  0.74011924  0.88095409  0.25347158  1
  O  O354  1  0.74524724  0.87764006  0.74638507  1
  O  O355  1  0.27382515  0.14109072  0.26477901  1
  O  O356  1  0.24760547  0.11258277  0.74642370  1
  O  O357  1  0.25478412  0.61962235  0.25212865  1
  O  O358  1  0.24852246  0.61985544  0.75904079  1
  O  O359  1  0.74055780  0.11632801  0.26479827  1
  O  O360  1  0.75784823  0.11505143  0.75271051  1
  O  O361  1  0.75750467  0.61447136  0.26071392  1
  O  O362  1  0.76463436  0.61991988  0.75923639  1
  O  O363  1  0.37571370  0.11930246  0.37433112  1
  O  O364  1  0.37764874  0.10777168  0.86267776  1
  O  O365  1  0.36824695  0.62306056  0.36065404  1
  O  O366  1  0.36241271  0.61681291  0.87346679  1
  O  O367  1  0.84658058  0.12228848  0.40064631  1
  O  O368  1  0.87481916  0.11805667  0.86817361  1
  O  O369  1  0.86903818  0.61353063  0.36881508  1
  O  O370  1  0.86578106  0.62349025  0.86385064  1
  O  O371  1  0.13179122  0.37862418  0.13071942  1
  O  O372  1  0.09415657  0.38484475  0.63859586  1
  O  O373  1  0.10101441  0.90414676  0.13150601  1
  O  O374  1  0.13071734  0.87894334  0.62776056  1
  O  O375  1  0.63685885  0.38323288  0.12222773  1
  O  O376  1  0.62204382  0.39900059  0.61272473  1
  O  O377  1  0.62073445  0.88356230  0.13652483  1
  O  O378  1  0.63007784  0.87647043  0.63539455  1
  O  O379  1  0.13436439  0.25642430  0.26077038  1
  O  O380  1  0.11350436  0.25274116  0.75755451  1
  O  O381  1  0.11909329  0.73851726  0.26161133  1
  O  O382  1  0.12009446  0.75980046  0.75307076  1
  O  O383  1  0.61323268  0.24484064  0.26435467  1
  O  O384  1  0.61876066  0.24220369  0.76496309  1
  O  O385  1  0.61629103  0.75365536  0.25657450  1
  O  O386  1  0.61929755  0.75085954  0.75239486  1
  O  O387  1  0.39250296  0.24302722  0.25807916  1
  O  O388  1  0.38398561  0.24383622  0.74250017  1
  O  O389  1  0.37905284  0.74760406  0.24144336  1
  O  O390  1  0.38401375  0.74891616  0.74153178  1
  O  O391  1  0.87306273  0.25465060  0.24115072  1
  O  O392  1  0.87482022  0.23913445  0.74410152  1
  O  O393  1  0.88717152  0.73777310  0.25082710  1
  O  O394  1  0.87792262  0.73850658  0.74532123  1
  O  O395  1  0.38205299  0.49404281  0.48800335  1
  O  O396  1  0.37983429  0.49221386  0.99146514  1
  O  O397  1  0.37796712  0.99195936  0.49365904  1
  O  O398  1  0.37570845  0.99604708  0.98490718  1
  O  O399  1  0.87876221  0.49083512  0.49187102  1
  O  O400  1  0.87336802  0.48279547  1.01324010  1
  O  O401  1  0.88244585  0.99420198  0.48388153  1
  O  O402  1  0.86681313  0.99814813  0.99206919  1
  O  O403  1  0.11585483  0.00966321  -0.00558981  1
  O  O404  1  0.11973481  0.00630650  0.50339396  1
  O  O405  1  0.13147809  0.50573119  0.00867166  1
  O  O406  1  0.11688938  0.50692404  0.49702008  1
  O  O407  1  0.62952321  0.00878266  0.01068032  1
  O  O408  1  0.62332107  0.00732774  0.50853088  1
  O  O409  1  0.61478494  0.49658587  0.01022070  1
  O  O410  1  0.60851901  0.50267309  0.48952970  1
  O  O411  1  0.36437257  0.38241539  0.11732351  1
  O  O412  1  0.38088812  0.36290335  0.61389251  1
  O  O413  1  0.37551456  0.86963176  0.12971427  1
  O  O414  1  0.37004821  0.86505573  0.61908199  1
  O  O415  1  0.86588431  0.36700205  0.12269494  1
  O  O416  1  0.88379149  0.36856802  0.61788874  1
  O  O417  1  0.88789799  0.89386448  0.13097332  1
  O  O418  1  0.86702170  0.87483126  0.61269063  1
  O  O419  1  0.13965527  0.13666185  0.38496850  1
  O  O420  1  0.12684739  0.13968642  0.87102101  1
  O  O421  1  0.12716513  0.62950361  0.38330552  1
  O  O422  1  0.12749171  0.63038639  0.87806897  1
  O  O423  1  0.62588204  0.13347500  0.38632867  1
  O  O424  1  0.62646363  0.12994755  0.88814170  1
  O  O425  1  0.62901220  0.63669752  0.36945982  1
  O  O426  1  0.63835777  0.63155401  0.86668965  1
