# generated using pymatgen
data_V85Zn86O256
_symmetry_space_group_name_H-M   'P 1'
_cell_length_a   16.94919710
_cell_length_b   16.95262471
_cell_length_c   16.96258748
_cell_angle_alpha   89.97321673
_cell_angle_beta   90.08201254
_cell_angle_gamma   89.98420777
_symmetry_Int_Tables_number   1
_chemical_formula_structural   V85Zn86O256
_chemical_formula_sum   'V85 Zn86 O256'
_cell_volume   4873.91183806
_cell_formula_units_Z   1
loop_
 _symmetry_equiv_pos_site_id
 _symmetry_equiv_pos_as_xyz
  1  'x, y, z'
loop_
 _atom_site_type_symbol
 _atom_site_label
 _atom_site_symmetry_multiplicity
 _atom_site_fract_x
 _atom_site_fract_y
 _atom_site_fract_z
 _atom_site_occupancy
  V  V0  1  0.12743840  -0.00235137  0.62457861  1
  V  V1  1  -0.00572880  0.87759460  0.87116318  1
  V  V2  1  0.76265739  0.12225255  0.36628919  1
  V  V3  1  0.82636085  0.05645637  0.82916609  1
  V  V4  1  0.37466185  0.12000735  0.75896793  1
  V  V5  1  0.87773975  0.50154690  0.36480079  1
  V  V6  1  0.12745701  0.00145339  0.12441319  1
  V  V7  1  0.12794175  0.87348161  0.74375478  1
  V  V8  1  0.62717703  0.37891735  0.74467611  1
  V  V9  1  0.36189324  0.74171830  0.63021789  1
  V  V10  1  0.62440632  0.36888365  0.24868564  1
  V  V11  1  0.50196806  0.24847512  0.75485901  1
  V  V12  1  0.62524577  -0.00000134  0.13108894  1
  V  V13  1  0.25194276  0.62605498  0.87112213  1
  V  V14  1  0.12917204  0.12418202  0.49600265  1
  V  V15  1  0.12432326  0.75079456  0.87527594  1
  V  V16  1  0.87671244  0.38484012  -0.00162099  1
  V  V17  1  0.12637304  0.37592339  0.74901738  1
  V  V18  1  0.25136187  -0.00220419  0.75404280  1
  V  V19  1  0.37501971  0.87695499  -0.01112643  1
  V  V20  1  0.87047480  0.87387394  -0.00630952  1
  V  V21  1  0.37459985  0.50330646  0.86611602  1
  V  V22  1  0.36263079  0.86825762  0.51012626  1
  V  V23  1  0.37609184  0.13006488  0.25950711  1
  V  V24  1  0.11786743  0.62266736  -0.00120437  1
  V  V25  1  0.25375412  0.24455619  0.49894051  1
  V  V26  1  0.12378424  0.75493077  0.37834454  1
  V  V27  1  0.50091306  0.36919002  0.37156320  1
  V  V28  1  -0.00212935  0.73890728  0.25084048  1
  V  V29  1  0.00054544  0.62649426  0.62245530  1
  V  V30  1  0.12338906  0.24933851  0.87384339  1
  V  V31  1  0.50010045  0.12454579  0.13225746  1
  V  V32  1  -0.05672176  0.93168176  0.32958751  1
  V  V33  1  0.37261038  0.74740364  0.12939775  1
  V  V34  1  0.50406039  -0.00115773  0.51158155  1
  V  V35  1  0.25055716  0.24923445  0.00041481  1
  V  V36  1  -0.00442836  0.75544993  0.74519708  1
  V  V37  1  0.12354670  0.87694225  0.25357643  1
  V  V38  1  0.63712477  0.24788687  0.88077631  1
  V  V39  1  0.86429637  0.74987023  0.61663245  1
  V  V40  1  0.62531169  0.87361500  0.25299445  1
  V  V41  1  0.37684246  0.50263112  0.37446937  1
  V  V42  1  0.87149307  0.62110870  0.75412968  1
  V  V43  1  0.12772598  0.37324821  0.24893547  1
  V  V44  1  0.50829682  0.50405815  0.50477607  1
  V  V45  1  0.12847162  0.49960004  0.62229403  1
  V  V46  1  0.49466755  0.62385010  0.13172401  1
  V  V47  1  0.12534436  0.12468316  0.00156853  1
  V  V48  1  0.49795229  0.87458995  0.37910302  1
  V  V49  1  0.74760879  0.74745894  -0.00080761  1
  V  V50  1  0.12059113  0.49925523  0.12059236  1
  V  V51  1  0.75612340  0.36792146  0.12364314  1
  V  V52  1  -0.00450354  0.39045699  0.87789539  1
  V  V53  1  -0.00034325  0.49774686  0.49623251  1
  V  V54  1  -0.00105440  -0.00450363  0.49712351  1
  V  V55  1  0.75749261  0.62826502  0.37687723  1
  V  V56  1  0.62328047  0.62212037  0.00073759  1
  V  V57  1  0.50987620  0.62747846  0.63676645  1
  V  V58  1  0.25147163  0.87587057  0.12590107  1
  V  V59  1  0.13216179  0.24846436  0.37220286  1
  V  V60  1  0.62561088  0.74544639  0.38707679  1
  V  V61  1  0.37752152  0.24496626  0.62778370  1
  V  V62  1  0.86351722  0.25917721  0.62137233  1
  V  V63  1  0.63296807  0.12424973  0.50641095  1
  V  V64  1  0.37357649  0.37530257  0.00081392  1
  V  V65  1  0.37230973  0.00143406  0.38128500  1
  V  V66  1  0.62481134  0.49824989  0.12803649  1
  V  V67  1  -0.01275066  0.24755341  0.24766123  1
  V  V68  1  -0.01386537  0.12837011  0.12753339  1
  V  V69  1  -0.00529330  0.12977536  0.62792224  1
  V  V70  1  0.49613987  0.50001114  0.00285434  1
  V  V71  1  0.49586162  -0.00279439  -0.00528691  1
  V  V72  1  -0.00419386  0.00177221  -0.00451629  1
  V  V73  1  0.61077329  0.75952115  0.87779264  1
  V  V74  1  0.87307723  0.73923417  0.12725476  1
  V  V75  1  0.86864192  0.87434030  0.49655028  1
  V  V76  1  0.25453738  0.50509590  0.24947164  1
  V  V77  1  0.25257359  0.00558399  0.25375019  1
  V  V78  1  0.49505083  0.74398665  0.25485158  1
  V  V79  1  0.13308037  0.62888717  0.49896433  1
  V  V80  1  0.37811172  0.37368805  0.50097968  1
  V  V81  1  0.49946580  0.37417599  0.87663905  1
  V  V82  1  0.37866414  0.25005708  0.12963351  1
  V  V83  1  0.25677203  0.63161207  0.37313380  1
  V  V84  1  0.63014755  0.24694576  0.37642567  1
  Zn  Zn85  1  0.63557921  0.62452275  0.51303018  1
  Zn  Zn86  1  0.74003280  0.88858592  0.61965518  1
  Zn  Zn87  1  -0.00639764  0.61728110  0.12155530  1
  Zn  Zn88  1  0.00017280  0.37248945  0.37443306  1
  Zn  Zn89  1  0.74827200  0.87322248  0.12672993  1
  Zn  Zn90  1  0.25388827  0.50382630  0.74477234  1
  Zn  Zn91  1  0.75299644  0.61975084  0.87687024  1
  Zn  Zn92  1  0.76983129  0.23975441  0.00257161  1
  Zn  Zn93  1  0.62893096  0.12376851  0.00045792  1
  Zn  Zn94  1  0.75491250  0.50580739  0.24613766  1
  Zn  Zn95  1  0.74893854  0.50025727  0.74710459  1
  Zn  Zn96  1  0.49132708  0.75548996  0.75732732  1
  Zn  Zn97  1  0.25267083  0.37497426  0.62597287  1
  Zn  Zn98  1  0.61783368  0.89526390  0.73129282  1
  Zn  Zn99  1  0.51744532  0.11815574  0.63598820  1
  Zn  Zn100  1  0.73491043  0.38235111  0.60750113  1
  Zn  Zn101  1  0.24846236  0.75080443  0.00141852  1
  Zn  Zn102  1  0.86404975  0.37247266  0.49428264  1
  Zn  Zn103  1  0.25080626  0.37650569  0.12409554  1
  Zn  Zn104  1  0.76655488  0.00158557  0.25007687  1
  Zn  Zn105  1  0.25074119  0.12032887  0.87717104  1
  Zn  Zn106  1  -0.00327609  0.24885553  0.75110655  1
  Zn  Zn107  1  0.18982466  0.18630897  0.18563859  1
  Zn  Zn108  1  0.18764510  0.18588202  0.68584330  1
  Zn  Zn109  1  0.18433825  0.68686322  0.18876933  1
  Zn  Zn110  1  0.18790200  0.68668443  0.68853030  1
  Zn  Zn111  1  0.68963101  0.18737137  0.18934851  1
  Zn  Zn112  1  0.70788127  0.06156232  0.69086735  1
  Zn  Zn113  1  0.68578632  0.68608596  0.19163476  1
  Zn  Zn114  1  0.69546637  0.72226645  0.69747728  1
  Zn  Zn115  1  0.31182419  0.31377303  0.31349185  1
  Zn  Zn116  1  0.31084920  0.31301485  0.81349409  1
  Zn  Zn117  1  0.31145579  0.81558771  0.31509524  1
  Zn  Zn118  1  0.30902690  0.81168597  0.80879112  1
  Zn  Zn119  1  0.80808048  0.31709745  0.31776823  1
  Zn  Zn120  1  0.81527149  0.30643268  0.80523501  1
  Zn  Zn121  1  0.80700200  0.80285029  0.30876586  1
  Zn  Zn122  1  0.80339864  0.81626384  0.80997056  1
  Zn  Zn123  1  0.19059004  0.43599804  0.43698818  1
  Zn  Zn124  1  0.18734499  0.43790591  0.93678234  1
  Zn  Zn125  1  0.18815342  0.93827299  0.43620611  1
  Zn  Zn126  1  0.18626246  0.93551414  0.93566952  1
  Zn  Zn127  1  0.68995240  0.44185915  0.43431759  1
  Zn  Zn128  1  0.69336282  0.43842493  0.93286094  1
  Zn  Zn129  1  0.68816112  0.94249883  0.43472655  1
  Zn  Zn130  1  0.68525891  0.93987451  0.93994027  1
  Zn  Zn131  1  0.31508827  0.06348990  0.06412527  1
  Zn  Zn132  1  0.31320889  0.06146184  0.56894598  1
  Zn  Zn133  1  0.30686075  0.56521115  0.05941451  1
  Zn  Zn134  1  0.31532149  0.56316747  0.56057422  1
  Zn  Zn135  1  0.80764829  0.05898917  0.05741219  1
  Zn  Zn136  1  0.81947339  0.06669042  0.54647740  1
  Zn  Zn137  1  0.81102541  0.55646183  0.05949764  1
  Zn  Zn138  1  0.81166781  0.55619383  0.56358373  1
  Zn  Zn139  1  0.43707218  0.43566948  0.19099885  1
  Zn  Zn140  1  0.44259991  0.43748420  0.68532416  1
  Zn  Zn141  1  0.43845173  0.93563283  0.18839518  1
  Zn  Zn142  1  0.43918570  0.93218304  0.69364951  1
  Zn  Zn143  1  0.93975523  0.43281898  0.18743143  1
  Zn  Zn144  1  0.93945229  0.43702352  0.68621195  1
  Zn  Zn145  1  0.93939379  0.93060213  0.16518703  1
  Zn  Zn146  1  0.89472958  0.96390263  0.67081283  1
  Zn  Zn147  1  0.06835918  0.07226388  0.30974539  1
  Zn  Zn148  1  0.05724873  0.06203300  0.81164987  1
  Zn  Zn149  1  0.06759563  0.56263379  0.31239169  1
  Zn  Zn150  1  0.06373844  0.56556874  0.80752806  1
  Zn  Zn151  1  0.56051187  0.06263701  0.31610153  1
  Zn  Zn152  1  0.56676938  0.06319939  0.81665391  1
  Zn  Zn153  1  0.56616795  0.56139425  0.31550014  1
  Zn  Zn154  1  0.56383339  0.56304265  0.81441335  1
  Zn  Zn155  1  0.44579125  0.18563203  0.43990759  1
  Zn  Zn156  1  0.44008158  0.18364639  0.94115770  1
  Zn  Zn157  1  0.43808650  0.68736612  0.44570405  1
  Zn  Zn158  1  0.43295948  0.68640336  0.94414736  1
  Zn  Zn159  1  0.94252483  0.19071422  0.43996130  1
  Zn  Zn160  1  0.94008773  0.19648120  0.94149787  1
  Zn  Zn161  1  0.94062803  0.68710661  0.43634059  1
  Zn  Zn162  1  0.93836304  0.68859533  0.93565117  1
  Zn  Zn163  1  0.05767696  0.31320127  0.06169445  1
  Zn  Zn164  1  0.06306472  0.31345743  0.56054510  1
  Zn  Zn165  1  0.06094897  0.81088419  0.06323907  1
  Zn  Zn166  1  0.05923814  0.81433026  0.55981469  1
  Zn  Zn167  1  0.56111242  0.31170612  0.06397126  1
  Zn  Zn168  1  0.56191316  0.30519370  0.56141886  1
  Zn  Zn169  1  0.55893406  0.81384383  0.06450231  1
  Zn  Zn170  1  0.55541647  0.81195216  0.56883666  1
  O  O171  1  0.12303326  0.11843221  0.11814328  1
  O  O172  1  0.11861909  0.11894507  0.61372221  1
  O  O173  1  0.12522329  0.61760110  0.11572417  1
  O  O174  1  0.12184798  0.62109155  0.61647149  1
  O  O175  1  0.61493784  0.11736585  0.13101949  1
  O  O176  1  0.63484927  0.12407926  0.60918476  1
  O  O177  1  0.61782896  0.61942529  0.11881471  1
  O  O178  1  0.61213495  0.63800432  0.62873659  1
  O  O179  1  0.38401758  0.37800114  0.37973186  1
  O  O180  1  0.37952553  0.38211027  0.88133359  1
  O  O181  1  0.37819850  0.88140622  0.38558602  1
  O  O182  1  0.36589357  0.87040873  0.88999613  1
  O  O183  1  0.88089865  0.38551619  0.37612006  1
  O  O184  1  0.89062841  0.37313931  0.87440958  1
  O  O185  1  0.87953108  0.86361490  0.37878781  1
  O  O186  1  0.87761911  0.86018675  0.88656359  1
  O  O187  1  0.26341497  -0.00170975  0.36900432  1
  O  O188  1  0.24116291  0.00181431  0.85885014  1
  O  O189  1  0.25634064  0.50687343  0.36880269  1
  O  O190  1  0.25851207  0.50689642  0.87477695  1
  O  O191  1  0.74753075  0.01643197  0.36650877  1
  O  O192  1  0.75928084  0.00019348  0.88329741  1
  O  O193  1  0.76009495  0.50964542  0.36868295  1
  O  O194  1  0.73986662  0.50910021  0.86091688  1
  O  O195  1  0.24245136  0.50058769  0.13377374  1
  O  O196  1  0.24436305  0.49703339  0.62457433  1
  O  O197  1  0.24764621  0.99566063  0.13335055  1
  O  O198  1  0.23412245  1.00560246  0.63477638  1
  O  O199  1  0.73982077  0.49248767  0.12714272  1
  O  O200  1  0.75608781  0.49164877  0.63455282  1
  O  O201  1  0.74004580  0.99425460  0.13319813  1
  O  O202  1  0.78466357  0.99868613  0.63064856  1
  O  O203  1  0.01474474  0.36603541  0.24992326  1
  O  O204  1  0.01178081  0.37496648  0.75925653  1
  O  O205  1  0.00360727  0.87401131  0.25521480  1
  O  O206  1  0.00906550  0.86436365  0.75276325  1
  O  O207  1  0.50781737  0.37915806  0.26238972  1
  O  O208  1  0.50308229  0.36721780  0.75696048  1
  O  O209  1  0.50698566  0.86808890  0.25892098  1
  O  O210  1  0.50763629  0.86804456  0.74979804  1
  O  O211  1  0.48952946  0.12037291  0.24127597  1
  O  O212  1  0.49209140  0.13218574  0.75129339  1
  O  O213  1  0.50344865  0.63366719  0.24625937  1
  O  O214  1  0.49802853  0.62432259  0.73883004  1
  O  O215  1  1.00601766  0.13566998  0.23973522  1
  O  O216  1  1.00713689  0.12592339  0.73128950  1
  O  O217  1  1.00774895  0.63653205  0.24460636  1
  O  O218  1  0.99497479  0.63792961  0.74491956  1
  O  O219  1  0.36965955  0.25318872  0.00760395  1
  O  O220  1  0.37178739  0.24999927  0.50707101  1
  O  O221  1  0.37167321  0.76006035  0.01168745  1
  O  O222  1  0.37493827  0.76264972  0.50720375  1
  O  O223  1  0.87982560  0.27181956  -0.00130482  1
  O  O224  1  0.89007219  0.25757263  0.51468317  1
  O  O225  1  0.86478940  0.75074172  0.00402041  1
  O  O226  1  0.89142435  0.76173238  0.50719846  1
  O  O227  1  0.13359637  0.24419791  0.49347796  1
  O  O228  1  0.13070340  0.24550889  0.99472515  1
  O  O229  1  0.11969460  0.74218029  0.49017938  1
  O  O230  1  0.12650230  0.74495245  0.99352540  1
  O  O231  1  0.61990528  0.23342060  0.49116338  1
  O  O232  1  0.62122715  0.25447955  0.98585293  1
  O  O233  1  0.61566581  0.74746447  0.48801778  1
  O  O234  1  0.62761323  0.74261697  0.99969972  1
  O  O235  1  0.48709189  0.24118392  0.12167324  1
  O  O236  1  0.49416934  0.24287965  0.63615652  1
  O  O237  1  0.49194853  0.74515567  0.13460082  1
  O  O238  1  0.48800503  0.73651066  0.62583073  1
  O  O239  1  1.00637046  0.24012643  0.13499954  1
  O  O240  1  1.00966995  0.23627533  0.62533338  1
  O  O241  1  0.99144657  0.74814313  0.13276607  1
  O  O242  1  0.99803560  0.74445113  0.63115957  1
  O  O243  1  0.01574115  0.24846815  0.36658270  1
  O  O244  1  0.01405065  0.25757325  0.87237856  1
  O  O245  1  0.01401425  0.74398225  0.36520233  1
  O  O246  1  0.00543983  0.75633155  0.86539438  1
  O  O247  1  0.51010665  0.26179956  0.37940370  1
  O  O248  1  0.49552014  0.25882035  0.87095950  1
  O  O249  1  0.50339635  0.75267672  0.37030466  1
  O  O250  1  0.50703729  0.74855701  0.88438465  1
  O  O251  1  0.24552142  0.13619041  0.50625805  1
  O  O252  1  0.24534665  0.13077385  0.99874762  1
  O  O253  1  0.23904464  0.62084330  0.49058627  1
  O  O254  1  0.23788168  0.62892163  0.98934340  1
  O  O255  1  0.73761821  0.11999608  0.48469152  1
  O  O256  1  0.74087845  0.13213180  1.01117665  1
  O  O257  1  0.74783202  0.61579414  0.48315819  1
  O  O258  1  0.73921868  0.62987537  1.00191817  1
  O  O259  1  0.25575516  0.36656997  0.00179775  1
  O  O260  1  0.25896460  0.36256963  0.50027284  1
  O  O261  1  0.25613545  0.87675873  0.00998215  1
  O  O262  1  0.26462279  0.88107110  0.50058190  1
  O  O263  1  0.75870546  0.37467633  0.00678473  1
  O  O264  1  0.74957316  0.37311761  0.49561415  1
  O  O265  1  0.75482605  0.86542667  0.00340950  1
  O  O266  1  0.76564769  0.88216180  0.49496446  1
  O  O267  1  0.13508858  0.49180183  0.24606716  1
  O  O268  1  0.12630621  0.49400526  0.73936774  1
  O  O269  1  0.13475933  0.99785129  0.24714297  1
  O  O270  1  0.12615125  0.99270221  0.74211652  1
  O  O271  1  0.62331814  0.48950344  0.24201550  1
  O  O272  1  0.61504358  0.48048623  0.75194666  1
  O  O273  1  0.61790168  0.99035766  0.24292460  1
  O  O274  1  0.62546119  1.00874555  0.74398034  1
  O  O275  1  0.37029807  0.00494310  0.25934267  1
  O  O276  1  0.36362694  0.00791351  0.74114753  1
  O  O277  1  0.36179942  0.49525243  0.25621124  1
  O  O278  1  0.37445905  0.49350363  0.76323391  1
  O  O279  1  0.88440877  -0.02037535  0.25589508  1
  O  O280  1  0.89218704  -0.00601429  0.77735915  1
  O  O281  1  0.87973188  0.49981011  0.26084283  1
  O  O282  1  0.88375098  0.51993541  0.74571739  1
  O  O283  1  0.12611413  0.36727592  0.36602926  1
  O  O284  1  0.11888055  0.36996809  0.86966673  1
  O  O285  1  0.13085828  0.86630734  0.36802981  1
  O  O286  1  0.11791584  0.86820519  0.86645827  1
  O  O287  1  0.61978467  0.36915879  0.36768338  1
  O  O288  1  0.61566806  0.36651536  0.87092738  1
  O  O289  1  0.61935342  0.86765616  0.37123317  1
  O  O290  1  0.62542312  0.85907211  0.88283701  1
  O  O291  1  0.38025158  0.13060341  0.13623788  1
  O  O292  1  0.37436398  0.13611943  0.63595283  1
  O  O293  1  0.37574040  0.63973391  0.12074095  1
  O  O294  1  0.38052685  0.63818407  0.61776970  1
  O  O295  1  0.88806528  0.11660547  0.12376663  1
  O  O296  1  0.89145152  0.13762963  0.61207085  1
  O  O297  1  0.87542627  0.63436067  0.11815604  1
  O  O298  1  0.88426427  0.63267297  0.62830267  1
  O  O299  1  0.26183743  0.24994354  0.11857528  1
  O  O300  1  0.25820130  0.25239880  0.61796334  1
  O  O301  1  0.25603286  0.75674460  0.12825824  1
  O  O302  1  0.26220467  0.74304398  0.62304519  1
  O  O303  1  0.74336038  0.26548346  0.12468442  1
  O  O304  1  0.76600372  0.25796448  0.62273974  1
  O  O305  1  0.75347368  0.74880380  0.11746857  1
  O  O306  1  0.76494409  0.74032605  0.60659318  1
  O  O307  1  0.24115578  0.25199343  0.38303030  1
  O  O308  1  0.23930237  0.24922553  0.88212206  1
  O  O309  1  0.23788584  0.74222315  0.36577446  1
  O  O310  1  0.24224715  0.74331408  0.87640049  1
  O  O311  1  0.73735799  0.23984705  0.36894269  1
  O  O312  1  0.73878856  0.25638197  0.87815388  1
  O  O313  1  0.74058509  0.73789534  0.37469084  1
  O  O314  1  0.73802090  0.74229628  0.88963581  1
  O  O315  1  0.00693732  0.11882370  0.00794917  1
  O  O316  1  0.01087256  0.11656422  0.50361743  1
  O  O317  1  0.01304999  0.62970844  0.00062282  1
  O  O318  1  0.01276532  0.61535218  0.50056685  1
  O  O319  1  0.49972931  0.11435412  0.01509182  1
  O  O320  1  0.51215283  0.11675071  0.50458962  1
  O  O321  1  0.50333860  0.61882797  0.01202859  1
  O  O322  1  0.50359077  0.61757791  0.50983360  1
  O  O323  1  0.49629566  0.38013911  0.49460876  1
  O  O324  1  0.49306598  0.38129360  0.99623677  1
  O  O325  1  0.48904410  0.88280115  0.49492189  1
  O  O326  1  0.48978849  0.88809937  1.00792284  1
  O  O327  1  1.00828834  0.39022656  0.49477239  1
  O  O328  1  0.99767676  0.37644831  0.98561314  1
  O  O329  1  0.99755796  0.88986651  0.49765500  1
  O  O330  1  0.99229484  0.88059703  0.99514571  1
  O  O331  1  0.49392111  0.49351535  0.38137535  1
  O  O332  1  0.49189306  0.49573609  0.88274167  1
  O  O333  1  0.48772537  0.99503419  0.38272455  1
  O  O334  1  0.50320259  1.00790622  0.89682599  1
  O  O335  1  0.99632290  0.50181833  0.37923806  1
  O  O336  1  1.00735258  0.48836599  0.87205175  1
  O  O337  1  1.00683811  1.00158202  0.37854227  1
  O  O338  1  1.01143523  0.99263883  0.89065427  1
  O  O339  1  0.00942349  0.00609036  0.11469830  1
  O  O340  1  0.00221579  0.01256545  0.61515200  1
  O  O341  1  0.01631956  0.50098287  0.13311244  1
  O  O342  1  0.00838603  0.50664779  0.61577999  1
  O  O343  1  0.50441370  0.00666669  0.12300460  1
  O  O344  1  0.48930909  0.00422973  0.61323020  1
  O  O345  1  0.50294821  0.50462714  0.12301264  1
  O  O346  1  0.49227676  0.51630847  0.61789591  1
  O  O347  1  0.24112479  0.38209103  0.24864301  1
  O  O348  1  0.23763741  0.37835371  0.75057956  1
  O  O349  1  0.24696751  0.88704374  0.24477499  1
  O  O350  1  0.23578197  0.88091002  0.75050880  1
  O  O351  1  0.74175424  0.38018688  0.24302890  1
  O  O352  1  0.73139291  0.37081813  0.75212976  1
  O  O353  1  0.73510347  0.87454175  0.25095107  1
  O  O354  1  0.72829486  0.83804349  0.73081003  1
  O  O355  1  0.25961341  0.11290952  0.24662919  1
  O  O356  1  0.25597602  0.11743493  0.75168306  1
  O  O357  1  0.24330527  0.61573160  0.26014114  1
  O  O358  1  0.24285173  0.62137059  0.76600866  1
  O  O359  1  0.75188129  0.12291639  0.26064348  1
  O  O360  1  0.77566985  0.11668140  0.76450495  1
  O  O361  1  0.74255109  0.62223450  0.26763356  1
  O  O362  1  0.76645633  0.63404074  0.74699600  1
  O  O363  1  0.38165253  0.11911110  0.36690299  1
  O  O364  1  0.37168735  0.13027963  0.86262445  1
  O  O365  1  0.36272097  0.62351740  0.38218892  1
  O  O366  1  0.36499814  0.61558578  0.88375978  1
  O  O367  1  0.86056202  0.13323204  0.38132408  1
  O  O368  1  0.88518422  0.11521437  0.88815157  1
  O  O369  1  0.86513204  0.62189234  0.37629533  1
  O  O370  1  0.87565711  0.63360807  0.85745061  1
  O  O371  1  0.12855718  0.38073706  0.13085484  1
  O  O372  1  0.12665659  0.38065385  0.63276527  1
  O  O373  1  0.13040709  0.88117417  0.13213531  1
  O  O374  1  0.11715703  0.88562390  0.63171399  1
  O  O375  1  0.62697411  0.37955735  0.13166768  1
  O  O376  1  0.61935936  0.36466293  0.64151315  1
  O  O377  1  0.62269264  0.88043425  0.13613901  1
  O  O378  1  0.62749870  0.88023445  0.61403759  1
  O  O379  1  0.12929516  0.25579501  0.25674998  1
  O  O380  1  0.12613980  0.25733875  0.75763119  1
  O  O381  1  0.11558113  0.75835181  0.25334639  1
  O  O382  1  0.11867241  0.75631972  0.75240397  1
  O  O383  1  0.62500971  0.26229502  0.25659963  1
  O  O384  1  0.60942758  0.25866991  0.76638748  1
  O  O385  1  0.61325066  0.75640234  0.25694227  1
  O  O386  1  0.61357284  0.73391852  0.77681475  1
  O  O387  1  0.36810222  0.24036499  0.24398769  1
  O  O388  1  0.38140871  0.24601263  0.74548961  1
  O  O389  1  0.38667180  0.75709355  0.24571992  1
  O  O390  1  0.37295773  0.75298345  0.73492506  1
  O  O391  1  0.88934079  0.25893269  0.25624078  1
  O  O392  1  0.88338217  0.25581745  0.73005767  1
  O  O393  1  0.88487814  0.75415421  0.23956940  1
  O  O394  1  0.88219764  0.74670462  0.73779152  1
  O  O395  1  0.38305704  0.49276949  0.49321867  1
  O  O396  1  0.37748474  0.49388773  0.99607236  1
  O  O397  1  0.37863872  0.99457417  0.49698271  1
  O  O398  1  0.38651011  0.99257437  1.00767380  1
  O  O399  1  0.88734379  0.50129828  0.48772245  1
  O  O400  1  0.87534676  0.48739456  0.99615196  1
  O  O401  1  0.88799697  0.99062485  0.49033488  1
  O  O402  1  0.88503710  0.98497984  1.01028826  1
  O  O403  1  0.12050670  0.00439032  0.00571900  1
  O  O404  1  0.12301453  0.00632115  0.50513908  1
  O  O405  1  0.13198798  0.50844450  0.00968939  1
  O  O406  1  0.12339659  0.50712309  0.50358005  1
  O  O407  1  0.61334438  -0.00241773  0.01508300  1
  O  O408  1  0.61462958  0.01300963  0.48967206  1
  O  O409  1  0.61789922  0.50467649  0.00894900  1
  O  O410  1  0.61067547  0.50204189  0.49520670  1
  O  O411  1  0.37414334  0.36587783  0.12186654  1
  O  O412  1  0.37726086  0.36205199  0.62041488  1
  O  O413  1  0.36939792  0.86559269  0.12294308  1
  O  O414  1  0.37666657  0.86265682  0.61492063  1
  O  O415  1  0.86626164  0.38254075  0.11622798  1
  O  O416  1  0.88288733  0.36632060  0.61806954  1
  O  O417  1  0.87153202  0.85801602  0.10996181  1
  O  O418  1  0.87629212  0.86535501  0.61235324  1
  O  O419  1  0.12894306  0.13168506  0.38794760  1
  O  O420  1  0.12397209  0.13335879  0.88216051  1
  O  O421  1  0.13498227  0.63132912  0.38120651  1
  O  O422  1  0.12827754  0.63085177  0.88044015  1
  O  O423  1  0.62739864  0.13345157  0.37828122  1
  O  O424  1  0.61586245  0.14587508  0.88104772  1
  O  O425  1  0.63208548  0.63194385  0.37979967  1
  O  O426  1  0.61797246  0.62908433  0.89394391  1
