# generated using pymatgen
data_V85Zn86O256
_symmetry_space_group_name_H-M   'P 1'
_cell_length_a   16.95250204
_cell_length_b   16.96118475
_cell_length_c   16.94654888
_cell_angle_alpha   89.96708319
_cell_angle_beta   89.88722596
_cell_angle_gamma   90.03239643
_symmetry_Int_Tables_number   1
_chemical_formula_structural   V85Zn86O256
_chemical_formula_sum   'V85 Zn86 O256'
_cell_volume   4872.70675610
_cell_formula_units_Z   1
loop_
 _symmetry_equiv_pos_site_id
 _symmetry_equiv_pos_as_xyz
  1  'x, y, z'
loop_
 _atom_site_type_symbol
 _atom_site_label
 _atom_site_symmetry_multiplicity
 _atom_site_fract_x
 _atom_site_fract_y
 _atom_site_fract_z
 _atom_site_occupancy
  V  V0  1  0.37268206  0.87520169  -0.00396215  1
  V  V1  1  0.49541099  0.12599833  0.12689278  1
  V  V2  1  0.25590720  0.37273642  0.62816381  1
  V  V3  1  0.38275654  0.75136166  0.12808300  1
  V  V4  1  -0.04944902  0.29113113  0.20452714  1
  V  V5  1  0.50357985  0.13117843  0.62237984  1
  V  V6  1  0.62672830  0.24948553  0.87613624  1
  V  V7  1  0.49908247  0.50295704  0.50267575  1
  V  V8  1  0.37197457  0.50121293  0.37568644  1
  V  V9  1  0.87684574  0.12855605  0.74377715  1
  V  V10  1  0.62245747  0.00330210  0.61868426  1
  V  V11  1  0.49679149  0.25022309  0.74561559  1
  V  V12  1  0.26036366  0.37825348  0.11680272  1
  V  V13  1  0.87875170  0.48794770  0.88337664  1
  V  V14  1  0.62053423  0.74798136  0.36949869  1
  V  V15  1  0.49852944  0.00485377  0.49594530  1
  V  V16  1  0.87129620  0.62251689  0.24219351  1
  V  V17  1  0.62481281  0.37693772  0.74764505  1
  V  V18  1  -0.00649493  -0.01248906  -0.00279504  1
  V  V19  1  0.50100520  0.25305314  0.24709956  1
  V  V20  1  0.00560013  0.74556174  0.25086540  1
  V  V21  1  0.87855583  0.12107954  0.24911729  1
  V  V22  1  0.62154151  0.62752864  0.50298062  1
  V  V23  1  0.74912855  -0.00400650  0.24648131  1
  V  V24  1  0.50084570  -0.00058631  -0.00237364  1
  V  V25  1  -0.00750291  -0.00461135  0.49898717  1
  V  V26  1  0.24688120  0.50195969  0.24436240  1
  V  V27  1  0.37850164  0.49995038  0.89004074  1
  V  V28  1  0.87740328  0.62478909  0.75132519  1
  V  V29  1  0.62341179  0.75067273  0.87408511  1
  V  V30  1  0.24924479  0.87637785  0.62743034  1
  V  V31  1  0.38011634  0.62979060  0.25303184  1
  V  V32  1  0.61618247  0.61469605  -0.00000004  1
  V  V33  1  0.00443160  0.12501531  0.12526888  1
  V  V34  1  0.12778171  0.50284760  0.61964105  1
  V  V35  1  0.87960793  0.50073129  0.37899319  1
  V  V36  1  0.74979844  0.62436427  0.87440181  1
  V  V37  1  0.49515127  0.87101549  0.36910811  1
  V  V38  1  0.25418732  0.24385694  0.48860523  1
  V  V39  1  0.24858479  0.00807186  0.25364095  1
  V  V40  1  0.01218677  0.49152294  -0.00201469  1
  V  V41  1  0.32971331  0.19086717  0.68089935  1
  V  V42  1  0.24552076  0.62557207  0.87636773  1
  V  V43  1  0.24738395  0.74731211  0.00139095  1
  V  V44  1  0.12394585  0.24089085  0.87546513  1
  V  V45  1  0.12632786  0.11991106  0.49235093  1
  V  V46  1  0.37249541  0.87154189  0.49909681  1
  V  V47  1  0.50071586  0.87633797  0.87213461  1
  V  V48  1  0.75867484  0.87212601  0.12456561  1
  V  V49  1  0.36821682  0.01480660  0.86938229  1
  V  V50  1  0.00617483  0.62589105  0.62158155  1
  V  V51  1  -0.00495737  0.86732881  0.37795438  1
  V  V52  1  -0.00119121  0.75815827  0.75494090  1
  V  V53  1  0.62788497  0.49585581  0.14783939  1
  V  V54  1  0.11899138  0.24687254  0.37001672  1
  V  V55  1  0.75341663  0.75061368  0.00044393  1
  V  V56  1  0.61894643  0.50591672  0.62228174  1
  V  V57  1  0.75094658  0.37278330  0.61366883  1
  V  V58  1  0.74318974  0.11558694  0.38270795  1
  V  V59  1  0.37478988  0.37133430  0.50401569  1
  V  V60  1  0.62907375  0.12413710  -0.00251447  1
  V  V61  1  0.61848841  0.23749827  0.38644894  1
  V  V62  1  0.23556989  0.74593309  0.49885305  1
  V  V63  1  0.75291712  0.87569523  0.61695793  1
  V  V64  1  0.62242009  0.87455994  0.74525566  1
  V  V65  1  0.23606351  0.62744616  0.37863485  1
  V  V66  1  0.38156437  0.62433478  0.74826205  1
  V  V67  1  0.26024007  0.24397843  -0.00502946  1
  V  V68  1  0.12320964  0.37757384  0.75896045  1
  V  V69  1  0.12513590  0.87960854  0.75573951  1
  V  V70  1  0.13151551  0.37234779  0.24377814  1
  V  V71  1  0.50162905  0.37429221  0.37259554  1
  V  V72  1  0.38075375  0.74588501  0.62365336  1
  V  V73  1  0.62258496  -0.00529784  0.12147140  1
  V  V74  1  0.75153038  0.62454565  0.37222116  1
  V  V75  1  0.49837603  0.37894261  0.89188885  1
  V  V76  1  -0.00800399  0.25625210  0.74611252  1
  V  V77  1  0.12599984  0.87155575  0.25211866  1
  V  V78  1  0.12066919  0.75100308  0.88017579  1
  V  V79  1  0.61997200  0.86961671  0.24802051  1
  V  V80  1  0.01875826  0.62491986  0.11337176  1
  V  V81  1  0.87584298  0.75289489  0.61692453  1
  V  V82  1  0.25116170  0.50172963  0.75248844  1
  V  V83  1  0.74974544  0.00311346  0.75036577  1
  V  V84  1  0.75079096  0.49861585  0.74797483  1
  Zn  Zn85  1  0.12261763  0.00047668  0.62548103  1
  Zn  Zn86  1  0.87889925  0.74722828  0.11763359  1
  Zn  Zn87  1  0.88903255  0.36745766  0.50952263  1
  Zn  Zn88  1  0.75313382  0.23462461  0.50640605  1
  Zn  Zn89  1  0.00857435  0.38034889  0.37987915  1
  Zn  Zn90  1  0.37066505  0.12976019  0.25914301  1
  Zn  Zn91  1  0.12810705  0.11926718  -0.00131900  1
  Zn  Zn92  1  0.38242751  0.25782439  0.12018099  1
  Zn  Zn93  1  0.87229209  -0.00926113  0.37626488  1
  Zn  Zn94  1  0.49735599  0.62219937  0.12292774  1
  Zn  Zn95  1  0.24981564  0.01430084  0.75122336  1
  Zn  Zn96  1  0.88543352  -0.00664346  0.87313992  1
  Zn  Zn97  1  0.75478746  0.13046524  0.87240660  1
  Zn  Zn98  1  0.00442348  0.50203082  0.50095535  1
  Zn  Zn99  1  0.24845094  0.87515479  0.12616242  1
  Zn  Zn100  1  0.36705386  0.00229260  0.37564946  1
  Zn  Zn101  1  0.68515864  0.34456248  0.22620861  1
  Zn  Zn102  1  0.75281313  0.75443888  0.49596633  1
  Zn  Zn103  1  -0.00372247  0.12838959  0.61799101  1
  Zn  Zn104  1  0.50334867  0.74581270  0.74234627  1
  Zn  Zn105  1  0.12652538  -0.00205673  0.12220163  1
  Zn  Zn106  1  0.81792754  0.30044901  0.07833293  1
  Zn  Zn107  1  0.18861239  0.19005888  0.18112224  1
  Zn  Zn108  1  0.16522184  0.19004202  0.68026074  1
  Zn  Zn109  1  0.19179283  0.68945016  0.18877360  1
  Zn  Zn110  1  0.18921844  0.69040052  0.68964535  1
  Zn  Zn111  1  0.68296235  0.17714579  0.19255243  1
  Zn  Zn112  1  0.68588609  0.19041690  0.68696763  1
  Zn  Zn113  1  0.68579176  0.68404332  0.18595161  1
  Zn  Zn114  1  0.68957833  0.68753300  0.68571912  1
  Zn  Zn115  1  0.31651209  0.31327001  0.31062423  1
  Zn  Zn116  1  0.31172294  0.31891673  0.82300968  1
  Zn  Zn117  1  0.30758538  0.81134182  0.31403087  1
  Zn  Zn118  1  0.31182260  0.81301752  0.81137043  1
  Zn  Zn119  1  0.82165695  0.30182718  0.35046212  1
  Zn  Zn120  1  0.81169703  0.30452516  0.91854843  1
  Zn  Zn121  1  0.81517692  0.80612015  0.30833715  1
  Zn  Zn122  1  0.81258192  0.81618388  0.80940943  1
  Zn  Zn123  1  0.18903167  0.43418752  0.43606398  1
  Zn  Zn124  1  0.18983797  0.43431378  0.93863262  1
  Zn  Zn125  1  0.18121491  0.93197307  0.43358309  1
  Zn  Zn126  1  0.18602410  0.93931288  0.93729019  1
  Zn  Zn127  1  0.70132854  0.42400519  0.40564043  1
  Zn  Zn128  1  0.69119968  0.43818357  0.93702546  1
  Zn  Zn129  1  0.68276339  0.93549757  0.43657599  1
  Zn  Zn130  1  0.71806359  0.92662303  0.92402861  1
  Zn  Zn131  1  0.31168175  0.06136917  0.06554012  1
  Zn  Zn132  1  0.30949625  0.05705277  0.55500444  1
  Zn  Zn133  1  0.30754553  0.56739573  0.06593049  1
  Zn  Zn134  1  0.31075011  0.56393584  0.56206695  1
  Zn  Zn135  1  0.83855421  0.11436527  0.03737654  1
  Zn  Zn136  1  0.81722356  0.05929959  0.56549152  1
  Zn  Zn137  1  0.80732910  0.56010359  0.06215223  1
  Zn  Zn138  1  0.80950534  0.56261575  0.55889820  1
  Zn  Zn139  1  0.44346457  0.44137000  0.18383097  1
  Zn  Zn140  1  0.43781368  0.44010147  0.69148371  1
  Zn  Zn141  1  0.43308411  0.93786881  0.18667341  1
  Zn  Zn142  1  0.43529918  0.93898007  0.68772693  1
  Zn  Zn143  1  0.93977277  0.45433754  0.18430921  1
  Zn  Zn144  1  0.93717969  0.43725282  0.68890764  1
  Zn  Zn145  1  0.93981486  0.93783950  0.18494166  1
  Zn  Zn146  1  0.93673894  0.93838990  0.68502974  1
  Zn  Zn147  1  0.06305225  0.05772565  0.31357883  1
  Zn  Zn148  1  0.05991775  0.06309848  0.81291584  1
  Zn  Zn149  1  0.06245082  0.56148918  0.30593107  1
  Zn  Zn150  1  0.06121230  0.56413018  0.81367148  1
  Zn  Zn151  1  0.55861144  0.05936852  0.31047110  1
  Zn  Zn152  1  0.55871712  0.06374234  0.80819883  1
  Zn  Zn153  1  0.55880469  0.56428091  0.31601084  1
  Zn  Zn154  1  0.56055911  0.56089804  0.81455510  1
  Zn  Zn155  1  0.43200167  0.18454296  0.43717506  1
  Zn  Zn156  1  0.44514753  0.19021612  0.93787995  1
  Zn  Zn157  1  0.43456900  0.68756565  0.43749338  1
  Zn  Zn158  1  0.43599295  0.68871765  0.93502604  1
  Zn  Zn159  1  0.93517588  0.18388073  0.43323804  1
  Zn  Zn160  1  0.94590793  0.18415516  0.93011744  1
  Zn  Zn161  1  0.94246602  0.68458445  0.43605178  1
  Zn  Zn162  1  0.93745267  0.68480935  0.93743599  1
  Zn  Zn163  1  0.07180447  0.31664211  0.05882217  1
  Zn  Zn164  1  0.06924067  0.31395023  0.56346480  1
  Zn  Zn165  1  0.06188812  0.81416103  0.06406671  1
  Zn  Zn166  1  0.06058423  0.81593529  0.56632769  1
  Zn  Zn167  1  0.65184860  0.31657292  0.05968642  1
  Zn  Zn168  1  0.56371739  0.31439521  0.56022872  1
  Zn  Zn169  1  0.56391824  0.81006271  0.05848381  1
  Zn  Zn170  1  0.56129592  0.81446029  0.55651659  1
  O  O171  1  0.11691692  0.12089154  0.12459588  1
  O  O172  1  0.11788683  0.11984565  0.60673016  1
  O  O173  1  0.11700481  0.62774448  0.12264953  1
  O  O174  1  0.11825345  0.61548646  0.63745830  1
  O  O175  1  0.61515874  0.11596918  0.11730726  1
  O  O176  1  0.61265685  0.11780601  0.62665113  1
  O  O177  1  0.62109630  0.62207238  0.11222027  1
  O  O178  1  0.62757757  0.61969257  0.61600407  1
  O  O179  1  0.38110489  0.38135302  0.38321365  1
  O  O180  1  0.38895221  0.38507458  0.87523076  1
  O  O181  1  0.38074293  0.87489987  0.38061186  1
  O  O182  1  0.37984689  0.87629407  0.88406539  1
  O  O183  1  0.89014212  0.39610632  0.37323001  1
  O  O184  1  0.87383238  0.38976917  0.87134785  1
  O  O185  1  0.88887993  0.87239792  0.36801754  1
  O  O186  1  0.82546718  0.89824995  0.88107053  1
  O  O187  1  0.24702454  -0.00834416  0.35818058  1
  O  O188  1  0.26397989  0.00088221  0.87418900  1
  O  O189  1  0.25552108  0.50581523  0.37016164  1
  O  O190  1  0.25641664  0.50725783  0.87251699  1
  O  O191  1  0.74726588  -0.00262923  0.36316020  1
  O  O192  1  0.72374297  0.01580103  0.85082000  1
  O  O193  1  0.76196085  0.51994662  0.38512480  1
  O  O194  1  0.76055332  0.50499607  0.86829925  1
  O  O195  1  0.25164037  0.49354872  0.13241154  1
  O  O196  1  0.24552757  0.49422304  0.63305044  1
  O  O197  1  0.24789663  0.99436655  0.13498724  1
  O  O198  1  0.24885170  0.98623398  0.62634912  1
  O  O199  1  0.72568011  0.50377105  0.11687064  1
  O  O200  1  0.73829108  0.49623539  0.62917184  1
  O  O201  1  0.74086260  0.98837281  0.13636145  1
  O  O202  1  0.74132882  0.99568805  0.62925356  1
  O  O203  1  0.01117667  0.37417442  0.24630721  1
  O  O204  1  0.00839897  0.36547716  0.74580882  1
  O  O205  1  0.00422060  0.86454775  0.25231367  1
  O  O206  1  0.00635360  0.86535326  0.74779281  1
  O  O207  1  0.49171501  0.36679604  0.26153438  1
  O  O208  1  0.50887512  0.36661046  0.74724860  1
  O  O209  1  0.50213303  0.88003631  0.26145824  1
  O  O210  1  0.50578892  0.87220581  0.75408619  1
  O  O211  1  0.49980083  0.13039420  0.24127794  1
  O  O212  1  0.49978271  0.14105195  0.74089240  1
  O  O213  1  0.48326352  0.62513858  0.25359370  1
  O  O214  1  0.48590933  0.62681947  0.75536167  1
  O  O215  1  0.99216671  0.11492928  0.23975665  1
  O  O216  1  0.99570647  0.13491802  0.74646078  1
  O  O217  1  0.99772328  0.62840035  0.23441393  1
  O  O218  1  0.99370445  0.63538221  0.74455683  1
  O  O219  1  0.36391184  0.24814025  -0.00309022  1
  O  O220  1  0.36669946  0.25890453  0.49902159  1
  O  O221  1  0.36775055  0.75701918  0.00301549  1
  O  O222  1  0.36691651  0.75381585  0.50757443  1
  O  O223  1  0.86121370  0.22974953  -0.00538602  1
  O  O224  1  0.85985333  0.26331449  0.46610423  1
  O  O225  1  0.85780566  0.74427849  -0.00341820  1
  O  O226  1  0.87554894  0.74346408  0.51440412  1
  O  O227  1  0.13438051  0.24254702  0.49251433  1
  O  O228  1  0.13212956  0.24920765  0.98684836  1
  O  O229  1  0.13683162  0.75065956  0.51062292  1
  O  O230  1  0.13159110  0.75805636  0.98816393  1
  O  O231  1  0.62601032  0.24626611  0.49013045  1
  O  O232  1  0.61455680  0.23747176  0.98758144  1
  O  O233  1  0.62526630  0.74467692  0.48873962  1
  O  O234  1  0.63145889  0.74128958  0.99084339  1
  O  O235  1  0.50097932  0.24044948  0.13521256  1
  O  O236  1  0.50156182  0.24265336  0.62926658  1
  O  O237  1  0.48610448  0.74710845  0.11855049  1
  O  O238  1  0.48517607  0.75496646  0.62248700  1
  O  O239  1  1.01048917  0.24396933  0.13113559  1
  O  O240  1  1.01195432  0.24817905  0.64164963  1
  O  O241  1  0.99837498  0.73783333  0.12609607  1
  O  O242  1  0.99392971  0.74592878  0.63498095  1
  O  O243  1  0.01651641  0.25240051  0.37676955  1
  O  O244  1  0.01465475  0.25011763  0.86360647  1
  O  O245  1  -0.00062465  0.75272936  0.36398642  1
  O  O246  1  0.00901545  0.74456718  0.86833919  1
  O  O247  1  0.50172861  0.25418678  0.37153685  1
  O  O248  1  0.50381670  0.26245209  0.86540925  1
  O  O249  1  0.50694163  0.75966524  0.38007947  1
  O  O250  1  0.51092149  0.75629372  0.87284654  1
  O  O251  1  0.24191946  0.13398724  0.50387303  1
  O  O252  1  0.24700073  0.14021639  1.00684531  1
  O  O253  1  0.25236912  0.63344153  0.49139446  1
  O  O254  1  0.25279196  0.63915701  0.99161280  1
  O  O255  1  0.75376417  0.11518253  0.48703492  1
  O  O256  1  0.73238643  0.11628598  0.99322809  1
  O  O257  1  0.73752766  0.63147728  0.49453024  1
  O  O258  1  0.73839650  0.63141111  0.99226705  1
  O  O259  1  0.24631685  0.36314906  0.00724883  1
  O  O260  1  0.25331844  0.36497292  0.50986851  1
  O  O261  1  0.25704625  0.86524061  -0.00125377  1
  O  O262  1  0.25212793  0.86792852  0.50582837  1
  O  O263  1  0.74455064  0.35999237  -0.00242271  1
  O  O264  1  0.74469914  0.38117105  0.51126119  1
  O  O265  1  0.73334573  0.86201897  0.01632845  1
  O  O266  1  0.74569168  0.87445284  0.51200138  1
  O  O267  1  0.13961751  0.49071541  0.25382422  1
  O  O268  1  0.13039690  0.49357486  0.74714507  1
  O  O269  1  0.13400864  0.99155691  0.24768543  1
  O  O270  1  0.12960614  0.99408910  0.74987770  1
  O  O271  1  0.63176984  0.51019950  0.24754757  1
  O  O272  1  0.62659508  0.49603433  0.74303271  1
  O  O273  1  0.62967264  0.99061524  0.24334082  1
  O  O274  1  0.62374204  0.99569879  0.73429017  1
  O  O275  1  0.35856054  -0.00258801  0.25035644  1
  O  O276  1  0.37183776  -0.00281886  0.76493720  1
  O  O277  1  0.36535924  0.50822591  0.25504181  1
  O  O278  1  0.36933961  0.50788395  0.75810339  1
  O  O279  1  0.86490831  0.00349798  0.24878596  1
  O  O280  1  0.86486617  0.00652406  0.74858683  1
  O  O281  1  0.88133333  0.51680655  0.25948951  1
  O  O282  1  0.87388685  0.50805857  0.75843437  1
  O  O283  1  0.12683867  0.36812598  0.36326065  1
  O  O284  1  0.13073392  0.36714829  0.86279186  1
  O  O285  1  0.11175131  0.87385468  0.36046407  1
  O  O286  1  0.13169170  0.86596172  0.86289405  1
  O  O287  1  0.60467684  0.36355979  0.38633776  1
  O  O288  1  0.61518694  0.37205610  0.86542131  1
  O  O289  1  0.61682350  0.86625170  0.36879355  1
  O  O290  1  0.62397149  0.86716694  0.86639637  1
  O  O291  1  0.38810657  0.12547418  0.12594208  1
  O  O292  1  0.38449988  0.12305550  0.62100684  1
  O  O293  1  0.37538611  0.63325979  0.13380198  1
  O  O294  1  0.36781248  0.63398299  0.63486604  1
  O  O295  1  0.88226798  0.13334577  0.14161050  1
  O  O296  1  0.87873870  0.12523716  0.63603233  1
  O  O297  1  0.87740402  0.62457499  0.13023712  1
  O  O298  1  0.87949734  0.63030978  0.63643638  1
  O  O299  1  0.25626025  0.25805762  0.11215968  1
  O  O300  1  0.25580359  0.25422695  0.62411481  1
  O  O301  1  0.25873886  0.75170720  0.11529893  1
  O  O302  1  0.25768181  0.75900994  0.62090115  1
  O  O303  1  0.72626678  0.26770393  0.14104389  1
  O  O304  1  0.74111490  0.26750486  0.61972610  1
  O  O305  1  0.74955589  0.75429515  0.11680165  1
  O  O306  1  0.75851344  0.75857528  0.62424451  1
  O  O307  1  0.24459993  0.25637002  0.38568407  1
  O  O308  1  0.24243565  0.25402647  0.88726700  1
  O  O309  1  0.25163973  0.74060907  0.38683812  1
  O  O310  1  0.24405380  0.74359545  0.88013949  1
  O  O311  1  0.73242638  0.22747655  0.37419868  1
  O  O312  1  0.73044668  0.24644933  0.86141011  1
  O  O313  1  0.74347901  0.74267692  0.37711851  1
  O  O314  1  0.73837492  0.74373359  0.87746983  1
  O  O315  1  0.00534228  0.12619587  0.01377142  1
  O  O316  1  0.00517269  0.11526332  0.49572318  1
  O  O317  1  -0.00034455  0.62086903  0.00988655  1
  O  O318  1  0.00030956  0.62662927  0.51841171  1
  O  O319  1  0.50651007  0.11846678  0.00683468  1
  O  O320  1  0.49634385  0.11173641  0.50692227  1
  O  O321  1  0.51314930  0.63070933  -0.00232794  1
  O  O322  1  0.51219082  0.61877269  0.49192686  1
  O  O323  1  0.49092543  0.38173975  0.49738502  1
  O  O324  1  0.50766019  0.37190270  0.98654741  1
  O  O325  1  0.49320517  0.88346179  0.49124250  1
  O  O326  1  0.49342184  0.87965852  0.99242814  1
  O  O327  1  1.00415738  0.38112049  0.50073054  1
  O  O328  1  1.00160689  0.39197258  1.00724572  1
  O  O329  1  1.00638537  0.88027136  0.48963829  1
  O  O330  1  0.99351068  0.88828971  1.00678725  1
  O  O331  1  0.49315667  0.49205365  0.38091294  1
  O  O332  1  0.49324544  0.48707843  0.87161958  1
  O  O333  1  0.50096952  0.98939904  0.38330942  1
  O  O334  1  0.49116273  0.99390531  0.87705928  1
  O  O335  1  0.99521904  0.50768418  0.38069443  1
  O  O336  1  0.98830610  0.50786581  0.88558922  1
  O  O337  1  0.99793861  0.98751908  0.38094398  1
  O  O338  1  1.00162657  1.00135000  0.89040393  1
  O  O339  1  0.00135933  0.00752190  0.11535500  1
  O  O340  1  0.00313095  -0.00141704  0.61363841  1
  O  O341  1  0.00125866  0.51446948  0.10961022  1
  O  O342  1  0.01022688  0.50884722  0.62974973  1
  O  O343  1  0.50302457  0.00447707  0.11910340  1
  O  O344  1  0.50411886  0.00608197  0.61864660  1
  O  O345  1  0.51829965  0.50783124  0.12950175  1
  O  O346  1  0.51115100  0.49779734  0.62087532  1
  O  O347  1  0.24872803  0.38342685  0.24380017  1
  O  O348  1  0.24552626  0.38089048  0.74643779  1
  O  O349  1  0.24031357  0.87816693  0.24827762  1
  O  O350  1  0.24258380  0.87466562  0.74214019  1
  O  O351  1  0.74697848  0.37761509  0.30903097  1
  O  O352  1  0.73292166  0.38275778  0.73674539  1
  O  O353  1  0.74224948  0.87575230  0.24401979  1
  O  O354  1  0.74022219  0.88400155  0.73499881  1
  O  O355  1  0.24944683  0.11091829  0.24374465  1
  O  O356  1  0.25679474  0.13274595  0.72999584  1
  O  O357  1  0.25616984  0.61909768  0.25612713  1
  O  O358  1  0.25907882  0.62225051  0.75806038  1
  O  O359  1  0.75411862  0.11110762  0.25635384  1
  O  O360  1  0.75783617  0.12065702  0.74260478  1
  O  O361  1  0.76081897  0.63345669  0.25816674  1
  O  O362  1  0.75732707  0.61914554  0.75410590  1
  O  O363  1  0.37715787  0.11512306  0.37205706  1
  O  O364  1  0.38180153  0.11246505  0.87754123  1
  O  O365  1  0.36677910  0.62002081  0.36957617  1
  O  O366  1  0.36577953  0.62197239  0.86848009  1
  O  O367  1  0.86534219  0.11428901  0.36349222  1
  O  O368  1  0.87255945  0.11849779  0.85879790  1
  O  O369  1  0.86974263  0.62263333  0.36893863  1
  O  O370  1  0.87043402  0.62140269  0.86368497  1
  O  O371  1  0.14046759  0.36909636  0.13715799  1
  O  O372  1  0.13880346  0.38026892  0.63644812  1
  O  O373  1  0.12497325  0.87547714  0.13776536  1
  O  O374  1  0.13199584  0.87459112  0.63846242  1
  O  O375  1  0.61871022  0.39020212  0.14191680  1
  O  O376  1  0.62936129  0.38524372  0.62804701  1
  O  O377  1  0.62535238  0.87511409  0.13325149  1
  O  O378  1  0.62850858  0.88038796  0.62780888  1
  O  O379  1  0.13856360  0.25804645  0.25985412  1
  O  O380  1  0.12115399  0.25798984  0.76018117  1
  O  O381  1  0.11368706  0.75419327  0.24438379  1
  O  O382  1  0.11746207  0.75689532  0.75836993  1
  O  O383  1  0.61110913  0.24797107  0.26431919  1
  O  O384  1  0.61494668  0.25848048  0.75289505  1
  O  O385  1  0.62559045  0.75170493  0.26172239  1
  O  O386  1  0.62363177  0.75370604  0.75557657  1
  O  O387  1  0.38621695  0.24761012  0.24701810  1
  O  O388  1  0.37890855  0.25535324  0.74994853  1
  O  O389  1  0.36600632  0.74316946  0.23956708  1
  O  O390  1  0.37549932  0.74254566  0.74202624  1
  O  O391  1  0.88322750  0.23935283  0.26769153  1
  O  O392  1  0.89183122  0.24672002  0.75402352  1
  O  O393  1  0.88808814  0.73815459  0.24526008  1
  O  O394  1  0.88137394  0.74536499  0.74718804  1
  O  O395  1  0.37841547  0.49414462  0.49634480  1
  O  O396  1  0.37281379  0.51078844  0.98876042  1
  O  O397  1  0.38198708  0.98868323  0.49840672  1
  O  O398  1  0.37882880  0.99315032  0.99122777  1
  O  O399  1  0.88053977  0.50141256  0.49327926  1
  O  O400  1  0.87910211  0.50544263  0.98669843  1
  O  O401  1  0.88805853  0.99892583  0.49717187  1
  O  O402  1  0.89135156  1.01562627  0.99890272  1
  O  O403  1  0.11395191  0.00031485  0.00164872  1
  O  O404  1  0.11796012  0.00586234  0.49718137  1
  O  O405  1  0.11098050  0.50177837  -0.01270360  1
  O  O406  1  0.13021961  0.49563227  0.51677358  1
  O  O407  1  0.61573551  0.00347049  0.00349442  1
  O  O408  1  0.61436663  -0.00655022  0.51102520  1
  O  O409  1  0.62367322  0.51525617  -0.00984513  1
  O  O410  1  0.61932146  0.50964712  0.50676735  1
  O  O411  1  0.36493874  0.37671337  0.12829308  1
  O  O412  1  0.36240590  0.38261740  0.62297786  1
  O  O413  1  0.37442990  0.86927373  0.11155530  1
  O  O414  1  0.36707912  0.86848509  0.62072471  1
  O  O415  1  0.88847983  0.35820453  0.14743121  1
  O  O416  1  0.85564818  0.38360619  0.62421805  1
  O  O417  1  0.86160492  0.86929389  0.13038995  1
  O  O418  1  0.86508904  0.86489478  0.63127473  1
  O  O419  1  0.12389606  0.13105338  0.38291440  1
  O  O420  1  0.12771263  0.13814808  0.87313615  1
  O  O421  1  0.13728987  0.62100458  0.37048758  1
  O  O422  1  0.13812873  0.63473414  0.86679504  1
  O  O423  1  0.62934984  0.12489672  0.37355067  1
  O  O424  1  0.61407584  0.13511796  0.88116240  1
  O  O425  1  0.63122945  0.63149780  0.37970964  1
  O  O426  1  0.62723688  0.63159778  0.88010416  1
