# generated using pymatgen
data_V85Zn86O256
_symmetry_space_group_name_H-M   'P 1'
_cell_length_a   16.95844049
_cell_length_b   16.95283484
_cell_length_c   16.95354030
_cell_angle_alpha   89.90223420
_cell_angle_beta   89.98977625
_cell_angle_gamma   90.05411223
_symmetry_Int_Tables_number   1
_chemical_formula_structural   V85Zn86O256
_chemical_formula_sum   'V85 Zn86 O256'
_cell_volume   4874.02567804
_cell_formula_units_Z   1
loop_
 _symmetry_equiv_pos_site_id
 _symmetry_equiv_pos_as_xyz
  1  'x, y, z'
loop_
 _atom_site_type_symbol
 _atom_site_label
 _atom_site_symmetry_multiplicity
 _atom_site_fract_x
 _atom_site_fract_y
 _atom_site_fract_z
 _atom_site_occupancy
  V  V0  1  0.38946172  0.23966970  0.13502916  1
  V  V1  1  0.64083269  0.00192955  0.62443568  1
  V  V2  1  0.37413791  0.37398413  -0.00558229  1
  V  V3  1  0.00519862  0.49416917  0.50010134  1
  V  V4  1  0.75048679  0.62790864  0.88180856  1
  V  V5  1  0.38232739  0.37533158  0.50064424  1
  V  V6  1  0.24886484  0.87665723  0.12323479  1
  V  V7  1  0.54433920  0.69560167  0.69549572  1
  V  V8  1  0.62697656  0.12616216  0.49988331  1
  V  V9  1  0.12078042  0.11285773  0.50256905  1
  V  V10  1  0.74502122  0.87902542  0.12364125  1
  V  V11  1  0.12197631  0.24782747  0.37027042  1
  V  V12  1  0.50628674  0.37848356  0.87247959  1
  V  V13  1  0.87419481  0.50066908  0.87629042  1
  V  V14  1  0.25213247  0.36896153  0.12398417  1
  V  V15  1  0.00195999  0.37596055  0.37425246  1
  V  V16  1  -0.00077502  0.62822906  0.12432330  1
  V  V17  1  0.87130186  0.75834341  0.12275313  1
  V  V18  1  0.12704349  0.49954750  0.12574470  1
  V  V19  1  0.12448672  0.87598916  0.24946676  1
  V  V20  1  0.37651912  0.24790477  0.62537968  1
  V  V21  1  0.00095023  0.25757369  0.75152112  1
  V  V22  1  0.82585683  0.43089119  0.44067583  1
  V  V23  1  0.88128506  0.00085212  0.38534518  1
  V  V24  1  0.49912144  0.36957081  0.36135424  1
  V  V25  1  -0.00882645  0.88213630  0.86648010  1
  V  V26  1  0.12486680  0.00163280  0.12150934  1
  V  V27  1  0.62360796  0.62514618  0.01030551  1
  V  V28  1  0.87586513  0.25077465  0.62387780  1
  V  V29  1  0.75277218  0.12403019  0.37623110  1
  V  V30  1  0.50144054  -0.00292351  0.50067153  1
  V  V31  1  0.25390527  0.62030235  0.87568630  1
  V  V32  1  0.25088890  0.24984988  0.49865342  1
  V  V33  1  0.24919122  0.74653357  0.50143665  1
  V  V34  1  -0.00262249  0.75061169  0.24884950  1
  V  V35  1  0.24485672  0.37786869  0.63000086  1
  V  V36  1  0.49811358  0.00189714  -0.00732609  1
  V  V37  1  0.00090274  0.87741156  0.38181393  1
  V  V38  1  -0.01529531  -0.00458639  -0.00238628  1
  V  V39  1  0.50029462  0.51625730  0.50845084  1
  V  V40  1  0.13473193  0.25514686  0.86870015  1
  V  V41  1  0.37884575  -0.00087041  0.37247230  1
  V  V42  1  0.74561624  0.37678772  0.64080198  1
  V  V43  1  0.87449318  0.12010674  0.75389859  1
  V  V44  1  0.75541679  -0.00290153  0.24931865  1
  V  V45  1  0.24849067  0.75246166  -0.00085443  1
  V  V46  1  0.12422409  0.62789976  -0.00346854  1
  V  V47  1  0.50113953  0.12365911  0.62809038  1
  V  V48  1  0.88171017  0.25191007  0.12723333  1
  V  V49  1  0.61943380  0.87836491  0.74984717  1
  V  V50  1  0.22722651  -0.00542305  0.74895401  1
  V  V51  1  0.25724611  0.12681254  0.37180935  1
  V  V52  1  0.88204453  0.12530485  0.25024093  1
  V  V53  1  0.74660397  0.37861542  0.13582517  1
  V  V54  1  0.87550266  0.37681864  0.00102811  1
  V  V55  1  0.12574904  0.74268528  0.37292824  1
  V  V56  1  0.36819176  0.12090149  0.75878807  1
  V  V57  1  -0.00106828  0.50181909  -0.00034801  1
  V  V58  1  0.37351022  0.87698244  0.50234293  1
  V  V59  1  0.49583667  0.74855721  0.26566967  1
  V  V60  1  0.73378327  0.74427849  0.49146492  1
  V  V61  1  0.75357690  0.24782799  0.49827060  1
  V  V62  1  0.62182848  0.25044764  0.36116209  1
  V  V63  1  0.61769476  0.87339637  0.26257108  1
  V  V64  1  0.00765418  0.75423979  0.74935866  1
  V  V65  1  0.58632774  0.02119046  0.14960829  1
  V  V66  1  0.50806997  0.25250569  0.75091065  1
  V  V67  1  0.75482187  0.11823346  0.87887753  1
  V  V68  1  0.37519522  0.87546764  -0.00377029  1
  V  V69  1  0.75013189  0.75576702  0.00413624  1
  V  V70  1  0.87885478  0.62607449  0.75118814  1
  V  V71  1  0.12063024  0.37106364  0.24719825  1
  V  V72  1  0.13149456  0.12412499  -0.00828377  1
  V  V73  1  0.37835099  0.74481207  0.12778839  1
  V  V74  1  0.36946637  0.75184189  0.63462080  1
  V  V75  1  0.62472264  0.49518125  0.13792495  1
  V  V76  1  0.00384658  0.12874657  0.12599808  1
  V  V77  1  0.74871160  0.25240620  0.00092702  1
  V  V78  1  0.86849217  0.61214689  0.25115581  1
  V  V79  1  0.37096347  0.61766372  0.74913192  1
  V  V80  1  0.25304964  0.00302429  0.24982978  1
  V  V81  1  0.61985093  0.12487537  0.00202396  1
  V  V82  1  0.49400490  0.50185341  -0.00183341  1
  V  V83  1  0.61654624  0.75111309  0.88153418  1
  V  V84  1  0.87842931  0.75445219  0.61804479  1
  Zn  Zn85  1  0.75432059  -0.00966482  0.76411732  1
  Zn  Zn86  1  0.01093891  0.12350346  0.62707985  1
  Zn  Zn87  1  0.24432021  0.49203637  0.76017056  1
  Zn  Zn88  1  0.36316337  0.00149083  0.87414075  1
  Zn  Zn89  1  0.49360590  0.87233856  0.86808791  1
  Zn  Zn90  1  0.37739604  0.50839132  0.36788100  1
  Zn  Zn91  1  0.74715482  0.61232073  0.38271506  1
  Zn  Zn92  1  0.25905446  0.50329276  0.25099314  1
  Zn  Zn93  1  0.49449074  0.62266513  0.13322767  1
  Zn  Zn94  1  0.26149700  0.62528956  0.36183233  1
  Zn  Zn95  1  0.12854099  0.61719059  0.50124176  1
  Zn  Zn96  1  0.87319101  0.87092329  0.49594741  1
  Zn  Zn97  1  0.61381762  0.49780233  0.63376391  1
  Zn  Zn98  1  0.74256185  0.49847714  0.75672891  1
  Zn  Zn99  1  0.00062913  0.62028110  0.62078073  1
  Zn  Zn100  1  0.12008345  0.49856325  0.63595246  1
  Zn  Zn101  1  0.22973615  0.87936595  0.62678141  1
  Zn  Zn102  1  0.62847141  0.25409197  0.87245105  1
  Zn  Zn103  1  0.75004974  0.87013644  0.62559812  1
  Zn  Zn104  1  0.12499899  0.75970335  0.87177007  1
  Zn  Zn105  1  0.25623625  0.24232014  -0.00429806  1
  Zn  Zn106  1  0.00633313  0.37989591  0.86967061  1
  Zn  Zn107  1  0.19173714  0.18800256  0.18767370  1
  Zn  Zn108  1  0.19043146  0.18808925  0.68754070  1
  Zn  Zn109  1  0.18841898  0.68920695  0.18487987  1
  Zn  Zn110  1  0.18579817  0.68222498  0.68393173  1
  Zn  Zn111  1  0.69231621  0.18551296  0.18509240  1
  Zn  Zn112  1  0.69165152  0.18737398  0.68798158  1
  Zn  Zn113  1  0.66414560  0.66458402  0.22974079  1
  Zn  Zn114  1  0.70644285  0.68798115  0.68993181  1
  Zn  Zn115  1  0.31425727  0.31913225  0.30855770  1
  Zn  Zn116  1  0.31941839  0.31062723  0.81174146  1
  Zn  Zn117  1  0.31391534  0.81466413  0.31532790  1
  Zn  Zn118  1  0.30510974  0.81363623  0.81194976  1
  Zn  Zn119  1  0.81100649  0.30555065  0.30630786  1
  Zn  Zn120  1  0.81720471  0.30917543  0.81598459  1
  Zn  Zn121  1  0.81243093  0.80964380  0.31072361  1
  Zn  Zn122  1  0.81367387  0.81358609  0.81286409  1
  Zn  Zn123  1  0.19162774  0.43839616  0.43775976  1
  Zn  Zn124  1  0.18809149  0.43676894  0.93850947  1
  Zn  Zn125  1  0.19003215  0.93355051  0.43738191  1
  Zn  Zn126  1  0.18155349  0.93998217  0.93017176  1
  Zn  Zn127  1  0.66190769  0.43845057  0.44244903  1
  Zn  Zn128  1  0.68615904  0.43933460  0.94316119  1
  Zn  Zn129  1  0.69453202  0.93434690  0.44020097  1
  Zn  Zn130  1  0.68113561  0.93948246  0.94205244  1
  Zn  Zn131  1  0.31507086  0.06352727  0.06198481  1
  Zn  Zn132  1  0.30837464  0.06269831  0.56690428  1
  Zn  Zn133  1  0.31113427  0.56077977  0.06530794  1
  Zn  Zn134  1  0.31702068  0.56316445  0.56073812  1
  Zn  Zn135  1  0.81033258  0.06655341  0.06545236  1
  Zn  Zn136  1  0.86523459  0.02703623  0.60133636  1
  Zn  Zn137  1  0.80979677  0.56534023  0.07064095  1
  Zn  Zn138  1  0.80865540  0.56701036  0.56800424  1
  Zn  Zn139  1  0.43670064  0.43372418  0.18187953  1
  Zn  Zn140  1  0.43297599  0.43679755  0.68836803  1
  Zn  Zn141  1  0.43314500  0.93364224  0.18859319  1
  Zn  Zn142  1  0.43844434  0.93883443  0.68428927  1
  Zn  Zn143  1  0.94283335  0.43507558  0.18684292  1
  Zn  Zn144  1  0.93159549  0.43555803  0.68466694  1
  Zn  Zn145  1  0.93768311  0.93802108  0.18838688  1
  Zn  Zn146  1  1.04415046  0.94398285  0.67254032  1
  Zn  Zn147  1  0.06530054  0.06255975  0.31281993  1
  Zn  Zn148  1  0.05513482  0.06975452  0.81719323  1
  Zn  Zn149  1  0.06424606  0.56009749  0.31000776  1
  Zn  Zn150  1  0.06538158  0.56263512  0.81010597  1
  Zn  Zn151  1  0.56434670  0.06108219  0.31869181  1
  Zn  Zn152  1  0.56430996  0.06439652  0.81427859  1
  Zn  Zn153  1  0.55487694  0.56320185  0.32288851  1
  Zn  Zn154  1  0.56580410  0.55701796  0.81858372  1
  Zn  Zn155  1  0.43905450  0.18719400  0.43644472  1
  Zn  Zn156  1  0.43932060  0.19151164  0.93892252  1
  Zn  Zn157  1  0.43335205  0.69064330  0.43955195  1
  Zn  Zn158  1  0.43565919  0.68579441  0.93872407  1
  Zn  Zn159  1  0.93965831  0.19094009  0.43872523  1
  Zn  Zn160  1  0.94179780  0.18826680  0.93765004  1
  Zn  Zn161  1  0.93569201  0.67865271  0.43178711  1
  Zn  Zn162  1  0.93705380  0.69469043  0.93742229  1
  Zn  Zn163  1  0.06464380  0.31152940  0.05450372  1
  Zn  Zn164  1  0.06219419  0.30941908  0.55721349  1
  Zn  Zn165  1  0.05973803  0.81699607  0.05759970  1
  Zn  Zn166  1  0.06204768  0.80593138  0.55888412  1
  Zn  Zn167  1  0.56090329  0.31325887  0.06418588  1
  Zn  Zn168  1  0.56551212  0.31097399  0.56068095  1
  Zn  Zn169  1  0.56102925  0.82164941  0.07046369  1
  Zn  Zn170  1  0.56408313  0.81949243  0.55694944  1
  O  O171  1  0.11921069  0.12189099  0.11842286  1
  O  O172  1  0.12879303  0.13186013  0.60679176  1
  O  O173  1  0.11816704  0.62247379  0.11300570  1
  O  O174  1  0.11856084  0.61926325  0.61889867  1
  O  O175  1  0.63912430  0.11452800  0.11157671  1
  O  O176  1  0.62409312  0.11833954  0.62038074  1
  O  O177  1  0.62140721  0.61369447  0.12486740  1
  O  O178  1  0.60934108  0.64165189  0.64163806  1
  O  O179  1  0.38728330  0.36956533  0.38386810  1
  O  O180  1  0.38434029  0.36963357  0.88775262  1
  O  O181  1  0.36840239  0.88619079  0.39196627  1
  O  O182  1  0.37337553  0.87457236  0.88469969  1
  O  O183  1  0.88036173  0.37293608  0.37313969  1
  O  O184  1  0.87584205  0.38542651  0.88230516  1
  O  O185  1  0.88373455  0.88304744  0.37058532  1
  O  O186  1  0.89035041  0.87057127  0.87707370  1
  O  O187  1  0.25836215  0.00685330  0.37139951  1
  O  O188  1  0.24636655  0.00127964  0.85589830  1
  O  O189  1  0.25455893  0.50280634  0.37276189  1
  O  O190  1  0.24805191  0.51570844  0.87988123  1
  O  O191  1  0.75929739  0.00336646  0.36671789  1
  O  O192  1  0.74596998  0.01354460  0.88082815  1
  O  O193  1  0.75745435  0.48679372  0.38974857  1
  O  O194  1  0.76019242  0.50667578  0.88007094  1
  O  O195  1  0.24252809  0.48525758  0.12157565  1
  O  O196  1  0.25224157  0.48331593  0.62060416  1
  O  O197  1  0.24631355  0.99529012  0.12973020  1
  O  O198  1  0.25298227  0.99873661  0.64445348  1
  O  O199  1  0.73469954  0.49221519  0.11980592  1
  O  O200  1  0.75321048  0.48422169  0.62854420  1
  O  O201  1  0.75953532  0.99525094  0.14020104  1
  O  O202  1  0.74593067  0.99700507  0.62350168  1
  O  O203  1  0.01235638  0.37269876  0.25456425  1
  O  O204  1  -0.00617104  0.36201369  0.75022763  1
  O  O205  1  0.00607716  0.86915811  0.25572415  1
  O  O206  1  -0.00167415  0.87052127  0.75973588  1
  O  O207  1  0.49892675  0.37350215  0.26368694  1
  O  O208  1  0.48921704  0.36602139  0.76080084  1
  O  O209  1  0.51186570  0.87464529  0.25016727  1
  O  O210  1  0.51355239  0.87950478  0.75084737  1
  O  O211  1  0.52616688  0.07441875  0.21400296  1
  O  O212  1  0.49396530  0.13123560  0.74628157  1
  O  O213  1  0.50066653  0.64470789  0.24994331  1
  O  O214  1  0.49137792  0.63058065  0.75656859  1
  O  O215  1  0.99871324  0.11868560  0.23401219  1
  O  O216  1  0.99024165  0.13851191  0.75032454  1
  O  O217  1  0.99428612  0.63224527  0.24366427  1
  O  O218  1  0.98853918  0.63403252  0.75508879  1
  O  O219  1  0.37392748  0.25734986  0.00687902  1
  O  O220  1  0.37066296  0.25347402  0.50587498  1
  O  O221  1  0.36917785  0.75743844  0.00656338  1
  O  O222  1  0.36971536  0.75937462  0.51070672  1
  O  O223  1  0.86950444  0.25406363  0.00904512  1
  O  O224  1  0.86202225  0.24479794  0.50649419  1
  O  O225  1  0.86719519  0.74657667  0.01417948  1
  O  O226  1  0.87984830  0.74470033  0.51164898  1
  O  O227  1  0.13400176  0.24690919  0.48599693  1
  O  O228  1  0.12738275  0.24150588  0.98701011  1
  O  O229  1  0.13291838  0.74641929  0.48919644  1
  O  O230  1  0.13037096  0.74292004  1.00219183  1
  O  O231  1  0.63657497  0.24593016  0.49260492  1
  O  O232  1  0.63316417  0.24312546  1.00268302  1
  O  O233  1  0.63481235  0.75113428  0.50049349  1
  O  O234  1  0.62701905  0.74392659  0.99985194  1
  O  O235  1  0.48947360  0.25123989  0.12567441  1
  O  O236  1  0.49675392  0.24499125  0.63162122  1
  O  O237  1  0.49022850  0.75218171  0.13062678  1
  O  O238  1  0.49261781  0.75446210  0.62782867  1
  O  O239  1  0.99323440  0.24114322  0.11586666  1
  O  O240  1  0.99226886  0.24781666  0.62933420  1
  O  O241  1  0.99249472  0.74918854  0.12828314  1
  O  O242  1  0.99042134  0.74441015  0.63120450  1
  O  O243  1  0.00936964  0.26241675  0.37922532  1
  O  O244  1  0.00897132  0.25478399  0.86796585  1
  O  O245  1  0.00550526  0.75459676  0.36750729  1
  O  O246  1  -0.00111945  0.76060034  0.86593469  1
  O  O247  1  0.50769747  0.25814918  0.37683202  1
  O  O248  1  0.50367319  0.25846004  0.86778300  1
  O  O249  1  0.49480570  0.75705785  0.36392699  1
  O  O250  1  0.51286810  0.75111932  0.88085485  1
  O  O251  1  0.24372134  0.13029249  0.49185446  1
  O  O252  1  0.23551058  0.12321672  1.00192843  1
  O  O253  1  0.25146896  0.63885451  0.49971394  1
  O  O254  1  0.24320266  0.63115636  0.99685510  1
  O  O255  1  0.74301560  0.13437820  0.49112523  1
  O  O256  1  0.74614551  0.13366997  0.99617058  1
  O  O257  1  0.75123521  0.63790681  0.49908121  1
  O  O258  1  0.74062876  0.63289148  1.00124456  1
  O  O259  1  0.25858405  0.37216025  0.00473699  1
  O  O260  1  0.26333771  0.36801195  0.50586411  1
  O  O261  1  0.25484159  0.87292841  0.00177050  1
  O  O262  1  0.25579871  0.86515594  0.50397346  1
  O  O263  1  0.75608468  0.36831912  0.00676025  1
  O  O264  1  0.75787477  0.37244575  0.49651266  1
  O  O265  1  0.74016806  0.87439155  0.01618159  1
  O  O266  1  0.75417425  0.86009111  0.50404184  1
  O  O267  1  0.12163584  0.48785796  0.23905662  1
  O  O268  1  0.13106006  0.49813608  0.74996464  1
  O  O269  1  0.13129554  0.99466195  0.24251549  1
  O  O270  1  0.12484585  1.00695312  0.74791348  1
  O  O271  1  0.61400440  0.49568752  0.23510732  1
  O  O272  1  0.63018930  0.50691735  0.74473023  1
  O  O273  1  0.64003029  0.99110820  0.25257637  1
  O  O274  1  0.63106403  0.99529676  0.74312201  1
  O  O275  1  0.36846004  -0.00802073  0.26323259  1
  O  O276  1  0.38117010  0.01423900  0.75289511  1
  O  O277  1  0.37222590  0.48441400  0.25428002  1
  O  O278  1  0.36835935  0.51435373  0.74672212  1
  O  O279  1  0.87219191  0.00568230  0.25929600  1
  O  O280  1  0.86575390  0.01940621  0.74415636  1
  O  O281  1  0.88305120  0.51351389  0.24273397  1
  O  O282  1  0.87232129  0.50745603  0.76010582  1
  O  O283  1  0.12085912  0.36712444  0.36671491  1
  O  O284  1  0.12377462  0.35986031  0.88025960  1
  O  O285  1  0.11927502  0.86614844  0.37009018  1
  O  O286  1  0.10121951  0.87223298  0.88621315  1
  O  O287  1  0.60917094  0.36381469  0.37794277  1
  O  O288  1  0.61115377  0.37388459  0.88299234  1
  O  O289  1  0.62926247  0.88017019  0.36098500  1
  O  O290  1  0.62430610  0.86701797  0.86851618  1
  O  O291  1  0.37074515  0.14101303  0.12113236  1
  O  O292  1  0.38158081  0.12980135  0.63274096  1
  O  O293  1  0.37392799  0.64087850  0.12118599  1
  O  O294  1  0.36944309  0.63705331  0.63598074  1
  O  O295  1  0.88383684  0.13326732  0.12803942  1
  O  O296  1  0.86442429  0.14227398  0.63657050  1
  O  O297  1  0.88514968  0.63360232  0.12785789  1
  O  O298  1  0.87720851  0.63207587  0.63619716  1
  O  O299  1  0.24948534  0.26049571  0.11903874  1
  O  O300  1  0.25751016  0.25679517  0.61983249  1
  O  O301  1  0.25524029  0.75897474  0.11872740  1
  O  O302  1  0.25411066  0.75536772  0.61895110  1
  O  O303  1  0.75760122  0.25557583  0.11591747  1
  O  O304  1  0.75175163  0.26016571  0.61680850  1
  O  O305  1  0.75505814  0.76290956  0.12146809  1
  O  O306  1  0.76261134  0.74840830  0.61314729  1
  O  O307  1  0.24682373  0.24296940  0.37741988  1
  O  O308  1  0.23848982  0.25195336  0.87304997  1
  O  O309  1  0.24138545  0.75118634  0.38132640  1
  O  O310  1  0.24386181  0.74266397  0.88264110  1
  O  O311  1  0.74565986  0.24505109  0.38042273  1
  O  O312  1  0.74884305  0.24696394  0.88870569  1
  O  O313  1  0.75534661  0.75036328  0.39067105  1
  O  O314  1  0.74014837  0.74778928  0.88406722  1
  O  O315  1  0.00744663  0.11668599  0.00724360  1
  O  O316  1  0.01845893  0.13046319  0.49669142  1
  O  O317  1  0.00677506  0.62345494  0.00334333  1
  O  O318  1  -0.00148324  0.60564578  0.49495590  1
  O  O319  1  0.50928664  0.11764299  -0.00463933  1
  O  O320  1  0.50640850  0.11703034  0.50722342  1
  O  O321  1  0.50532583  0.61874004  0.00561271  1
  O  O322  1  0.49588449  0.61439373  0.50136196  1
  O  O323  1  0.49019316  0.37315860  0.49818464  1
  O  O324  1  0.49342912  0.38213585  0.99420474  1
  O  O325  1  0.49212077  0.89006189  0.50369237  1
  O  O326  1  0.48999994  0.87911823  0.99359071  1
  O  O327  1  0.99973120  0.38246698  0.49053401  1
  O  O328  1  0.99303630  0.38482186  0.99821849  1
  O  O329  1  0.99551940  0.86827566  0.48404875  1
  O  O330  1  0.99487185  0.89083802  0.99712487  1
  O  O331  1  0.50180939  0.48566828  0.38969923  1
  O  O332  1  0.50019508  0.49410270  0.88861243  1
  O  O333  1  0.48793815  1.00886705  0.38678694  1
  O  O334  1  0.49872269  0.99629688  0.88346328  1
  O  O335  1  1.00594881  0.48434419  0.37927220  1
  O  O336  1  0.98899160  0.50164490  0.88110605  1
  O  O337  1  0.99348836  0.99061539  0.36876259  1
  O  O338  1  0.99789383  0.99368462  0.88551575  1
  O  O339  1  0.00359218  0.00532474  0.11452583  1
  O  O340  1  -0.02358639  0.01600481  0.62458396  1
  O  O341  1  0.00687968  0.50702530  0.11716648  1
  O  O342  1  -0.00152616  0.49622585  0.61509593  1
  O  O343  1  0.49281675  -0.01566327  0.10269250  1
  O  O344  1  0.51288316  0.00662007  0.61926435  1
  O  O345  1  0.50955020  0.49814010  0.11483686  1
  O  O346  1  0.49494665  0.49705883  0.61305173  1
  O  O347  1  0.23609210  0.37391124  0.24011219  1
  O  O348  1  0.26175184  0.37428834  0.73388618  1
  O  O349  1  0.24347764  0.88169473  0.24497087  1
  O  O350  1  0.24524055  0.89062481  0.74864126  1
  O  O351  1  0.75233207  0.37172939  0.23496589  1
  O  O352  1  0.74985594  0.37217188  0.74303547  1
  O  O353  1  0.74122015  0.87753759  0.24352228  1
  O  O354  1  0.73740412  0.87289379  0.74789430  1
  O  O355  1  0.24404680  0.11567787  0.26113958  1
  O  O356  1  0.26291637  0.11556360  0.74534297  1
  O  O357  1  0.23475461  0.61571314  0.24979553  1
  O  O358  1  0.25594154  0.62654222  0.75993004  1
  O  O359  1  0.75929936  0.11547986  0.25547508  1
  O  O360  1  0.75499249  0.13037906  0.76493212  1
  O  O361  1  0.77126194  0.62352141  0.22918420  1
  O  O362  1  0.76419334  0.62572120  0.76335605  1
  O  O363  1  0.36464948  0.11702351  0.38066080  1
  O  O364  1  0.37708237  0.12687922  0.86125314  1
  O  O365  1  0.37503403  0.62391121  0.37472620  1
  O  O366  1  0.36451340  0.63522814  0.86461481  1
  O  O367  1  0.87476911  0.11976432  0.37051330  1
  O  O368  1  0.86613442  0.13419839  0.86867738  1
  O  O369  1  0.86583332  0.62609092  0.35660410  1
  O  O370  1  0.87084920  0.62068196  0.87299059  1
  O  O371  1  0.12968975  0.37585436  0.12847778  1
  O  O372  1  0.14337716  0.36852596  0.61906738  1
  O  O373  1  0.12911306  0.88234599  0.12779276  1
  O  O374  1  0.11671216  0.87665646  0.62286752  1
  O  O375  1  0.63244609  0.38713905  0.11698772  1
  O  O376  1  0.64378867  0.37290009  0.61897356  1
  O  O377  1  0.62798148  0.89592665  0.13678626  1
  O  O378  1  0.62700466  0.88481610  0.63162312  1
  O  O379  1  0.12877634  0.25350227  0.26220668  1
  O  O380  1  0.11894520  0.24322971  0.76161305  1
  O  O381  1  0.11809203  0.75713839  0.25462365  1
  O  O382  1  0.11007060  0.74361642  0.75058210  1
  O  O383  1  0.63138685  0.24165860  0.26205230  1
  O  O384  1  0.61168928  0.24511198  0.75060976  1
  O  O385  1  0.60812707  0.76664585  0.24188267  1
  O  O386  1  0.61789736  0.75189517  0.75407561  1
  O  O387  1  0.37014940  0.25378556  0.23352931  1
  O  O388  1  0.38310935  0.23712541  0.74540490  1
  O  O389  1  0.38863774  0.76672160  0.24154409  1
  O  O390  1  0.37017236  0.74903033  0.73933345  1
  O  O391  1  0.87441690  0.24194250  0.23501879  1
  O  O392  1  0.88195150  0.24575300  0.74463107  1
  O  O393  1  0.88062981  0.74484328  0.23909001  1
  O  O394  1  0.88005663  0.74433262  0.74030776  1
  O  O395  1  0.38538099  0.49084433  0.49868576  1
  O  O396  1  0.38430124  0.49077489  1.00839052  1
  O  O397  1  0.38114243  0.99617797  0.49849206  1
  O  O398  1  0.37730234  0.99379102  0.99312206  1
  O  O399  1  0.87779206  0.49519271  0.50081972  1
  O  O400  1  0.87870389  0.49928197  0.99613482  1
  O  O401  1  0.86696750  0.99562667  0.48732199  1
  O  O402  1  0.88714700  1.00830047  1.00311827  1
  O  O403  1  0.11674625  0.00823052  0.00405937  1
  O  O404  1  0.13031384  0.01444840  0.49297476  1
  O  O405  1  0.11918836  0.50793078  0.00428540  1
  O  O406  1  0.11736366  0.49674191  0.50514160  1
  O  O407  1  0.61288869  0.00839774  0.00798470  1
  O  O408  1  0.62112874  0.00272470  0.50575962  1
  O  O409  1  0.61819460  0.51329088  0.00511186  1
  O  O410  1  0.60741361  0.50323037  0.51429130  1
  O  O411  1  0.36774613  0.36495341  0.11378167  1
  O  O412  1  0.36961683  0.36602351  0.61773597  1
  O  O413  1  0.36773857  0.86841494  0.11237876  1
  O  O414  1  0.37286168  0.87105709  0.61644442  1
  O  O415  1  0.87092378  0.36927313  0.12051775  1
  O  O416  1  0.85999685  0.36076275  0.62802468  1
  O  O417  1  0.86353894  0.86801728  0.13284487  1
  O  O418  1  0.87398802  0.85725166  0.62235692  1
  O  O419  1  0.13317608  0.13088906  0.38095945  1
  O  O420  1  0.11909325  0.13839076  0.88319015  1
  O  O421  1  0.12206822  0.63695791  0.37660210  1
  O  O422  1  0.12827801  0.63005863  0.88728106  1
  O  O423  1  0.63040193  0.13030982  0.38121506  1
  O  O424  1  0.63337081  0.12914888  0.88706885  1
  O  O425  1  0.64630694  0.62314184  0.33632619  1
  O  O426  1  0.62998239  0.63307142  0.88814422  1
