# generated using pymatgen
data_V85Zn86O256
_symmetry_space_group_name_H-M   'P 1'
_cell_length_a   16.99897077
_cell_length_b   17.02193986
_cell_length_c   16.99618598
_cell_angle_alpha   89.95670620
_cell_angle_beta   89.91838804
_cell_angle_gamma   90.03310821
_symmetry_Int_Tables_number   1
_chemical_formula_structural   V85Zn86O256
_chemical_formula_sum   'V85 Zn86 O256'
_cell_volume   4917.93196286
_cell_formula_units_Z   1
loop_
 _symmetry_equiv_pos_site_id
 _symmetry_equiv_pos_as_xyz
  1  'x, y, z'
loop_
 _atom_site_type_symbol
 _atom_site_label
 _atom_site_symmetry_multiplicity
 _atom_site_fract_x
 _atom_site_fract_y
 _atom_site_fract_z
 _atom_site_occupancy
  V  V0  1  0.74588685  0.12610642  0.37607184  1
  V  V1  1  0.87293504  0.00413469  0.86998926  1
  V  V2  1  0.24740031  0.73918983  0.50010293  1
  V  V3  1  0.89323781  0.63033283  0.25574766  1
  V  V4  1  0.37998906  0.88253812  0.49944647  1
  V  V5  1  0.87202300  -0.00164558  0.37548639  1
  V  V6  1  0.37537164  0.75138717  0.62967330  1
  V  V7  1  0.25049755  0.00152151  0.74866970  1
  V  V8  1  0.62934876  0.75086509  0.87400558  1
  V  V9  1  -0.00400897  0.12313643  0.12596927  1
  V  V10  1  0.12212069  0.24605889  0.87115678  1
  V  V11  1  -0.00681382  0.24295189  0.74896483  1
  V  V12  1  -0.00414300  -0.00381775  -0.00049743  1
  V  V13  1  0.75490562  0.63129272  0.38076012  1
  V  V14  1  -0.00872235  0.49816272  0.00368542  1
  V  V15  1  0.49911993  0.37496439  0.87462463  1
  V  V16  1  0.62184298  0.25653772  0.37508109  1
  V  V17  1  0.25928903  -0.00054658  0.25388667  1
  V  V18  1  0.25422413  0.12723464  0.87735069  1
  V  V19  1  0.23658131  0.61936208  0.87537493  1
  V  V20  1  0.31954899  0.43101443  0.44401511  1
  V  V21  1  0.88872780  0.75495932  0.12948298  1
  V  V22  1  0.37385526  0.62462765  0.75823647  1
  V  V23  1  0.87235348  0.86956351  0.49979362  1
  V  V24  1  0.87688353  0.49495810  0.38080808  1
  V  V25  1  0.61962906  0.87548419  0.75191432  1
  V  V26  1  -0.00108719  0.00004561  0.49926466  1
  V  V27  1  0.50928201  0.49620375  0.00239507  1
  V  V28  1  0.50336930  0.88040002  0.38211557  1
  V  V29  1  0.74753881  0.12313511  0.87416610  1
  V  V30  1  0.11818399  0.62010178  0.00471057  1
  V  V31  1  0.37269975  0.49351124  0.87342933  1
  V  V32  1  0.75039395  0.00552202  0.74767089  1
  V  V33  1  0.86971007  0.74228490  0.62454863  1
  V  V34  1  0.12420258  0.73800628  0.37902645  1
  V  V35  1  -0.00540769  0.74674512  0.74597459  1
  V  V36  1  0.62183281  0.38246868  0.25047800  1
  V  V37  1  0.32496017  0.42322557  0.04870814  1
  V  V38  1  0.00594596  0.62398393  0.61854383  1
  V  V39  1  0.62642342  0.75379406  0.39051066  1
  V  V40  1  0.12277606  0.00220884  0.62348236  1
  V  V41  1  0.86843217  0.26494064  0.62444278  1
  V  V42  1  0.49662394  0.25418317  0.74302872  1
  V  V43  1  0.56767348  0.81055064  0.20318325  1
  V  V44  1  0.74445887  0.24111978  0.00131148  1
  V  V45  1  0.61985583  0.02439761  0.12182919  1
  V  V46  1  0.37594983  0.12857819  0.74584574  1
  V  V47  1  -0.00195003  0.87704269  0.87164508  1
  V  V48  1  0.75932148  0.62168406  0.86065276  1
  V  V49  1  0.12556981  0.87583413  0.74875064  1
  V  V50  1  0.38135428  -0.00662318  0.87400879  1
  V  V51  1  0.12277506  0.74605383  0.87569313  1
  V  V52  1  0.62924083  0.51112395  0.12641929  1
  V  V53  1  0.74272973  -0.00685050  0.24767426  1
  V  V54  1  0.63919798  0.37686922  0.74675100  1
  V  V55  1  0.86792398  0.37452074  -0.00489956  1
  V  V56  1  -0.01417570  0.12373167  0.62489303  1
  V  V57  1  0.49512191  0.12903790  0.61995356  1
  V  V58  1  0.62116697  0.12438718  0.49910540  1
  V  V59  1  0.87107379  0.12558699  0.25071036  1
  V  V60  1  0.62359096  0.24613881  0.87637664  1
  V  V61  1  0.12578301  -0.00253019  0.12930209  1
  V  V62  1  0.64003041  0.49817880  0.63037980  1
  V  V63  1  0.12872679  0.49922608  0.61227460  1
  V  V64  1  0.00323883  0.25087094  0.25493639  1
  V  V65  1  0.75156872  0.37571623  0.12560682  1
  V  V66  1  0.37864003  0.23547426  0.11117890  1
  V  V67  1  0.00100294  0.49494648  0.49729074  1
  V  V68  1  0.26821348  0.24538310  0.50400744  1
  V  V69  1  -0.00222752  0.36260980  0.38669278  1
  V  V70  1  0.23892487  0.49646808  0.75372057  1
  V  V71  1  0.49816135  0.75029600  0.76216408  1
  V  V72  1  0.12768591  0.11902613  -0.00194195  1
  V  V73  1  0.24890221  0.87555212  0.62554744  1
  V  V74  1  0.75595206  0.74781995  0.00255321  1
  V  V75  1  0.50589517  0.00800764  -0.00453994  1
  V  V76  1  0.61732731  -0.00016841  0.62054717  1
  V  V77  1  0.38271027  0.13285609  0.25372474  1
  V  V78  1  0.12371099  0.13548780  0.49827583  1
  V  V79  1  0.12122772  0.88032603  0.26288624  1
  V  V80  1  0.75035564  0.26318940  0.50331325  1
  V  V81  1  0.26359964  0.37023669  0.62930622  1
  V  V82  1  0.25314359  0.12201979  0.37751694  1
  V  V83  1  0.74801313  0.87170262  0.62062349  1
  V  V84  1  0.50529265  0.49605037  0.50018604  1
  Zn  Zn85  1  -0.00216298  0.87111066  0.37470948  1
  Zn  Zn86  1  0.28504296  0.72128325  0.04395728  1
  Zn  Zn87  1  -0.00454129  0.62319448  0.12199070  1
  Zn  Zn88  1  0.17094099  0.28889720  0.32793339  1
  Zn  Zn89  1  0.21774312  0.27952890  0.03329963  1
  Zn  Zn90  1  0.49978403  0.25462918  0.24169172  1
  Zn  Zn91  1  0.25968191  0.87695810  0.11857387  1
  Zn  Zn92  1  0.62648507  0.62707465  -0.00018453  1
  Zn  Zn93  1  0.50407008  0.62282029  0.63058276  1
  Zn  Zn94  1  0.75969404  0.50099278  0.25078533  1
  Zn  Zn95  1  0.87173361  0.87651866  0.00227362  1
  Zn  Zn96  1  0.12258990  0.37021682  0.74592798  1
  Zn  Zn97  1  0.87091304  0.24857049  0.12537390  1
  Zn  Zn98  1  0.74593908  0.87219944  0.12660069  1
  Zn  Zn99  1  0.86786221  0.49673729  0.86083873  1
  Zn  Zn100  1  0.42695148  0.68302031  0.18513354  1
  Zn  Zn101  1  -0.00727718  0.37091751  0.87028923  1
  Zn  Zn102  1  0.16887564  0.41850952  0.16711238  1
  Zn  Zn103  1  0.31710914  0.57164962  0.31887374  1
  Zn  Zn104  1  0.49457769  0.38176147  0.37776781  1
  Zn  Zn105  1  0.63130664  0.62513690  0.50666012  1
  Zn  Zn106  1  0.38160545  0.87189840  0.00587438  1
  Zn  Zn107  1  0.19138841  0.18025572  0.18606815  1
  Zn  Zn108  1  0.18581430  0.18727414  0.68352504  1
  Zn  Zn109  1  0.23862822  0.72517482  0.21843874  1
  Zn  Zn110  1  0.18418573  0.68639898  0.68945529  1
  Zn  Zn111  1  0.68656028  0.19227038  0.19213265  1
  Zn  Zn112  1  0.68551089  0.18865012  0.68733270  1
  Zn  Zn113  1  0.70548157  0.68295977  0.19173686  1
  Zn  Zn114  1  0.68793699  0.68711371  0.68685988  1
  Zn  Zn115  1  0.33475488  0.36885897  0.25332538  1
  Zn  Zn116  1  0.31202246  0.31082583  0.81476740  1
  Zn  Zn117  1  0.34896401  0.76276003  0.34059855  1
  Zn  Zn118  1  0.33426310  0.78592722  0.86131665  1
  Zn  Zn119  1  0.81241044  0.31512469  0.31418404  1
  Zn  Zn120  1  0.81337965  0.30589829  0.81101329  1
  Zn  Zn121  1  0.81142448  0.81019406  0.31177278  1
  Zn  Zn122  1  0.81093119  0.81616973  0.81012108  1
  Zn  Zn123  1  0.16380379  0.45024850  0.33229913  1
  Zn  Zn124  1  0.16671676  0.42382690  0.95986569  1
  Zn  Zn125  1  0.19318086  0.93950985  0.44090665  1
  Zn  Zn126  1  0.19054628  0.93407347  0.93582292  1
  Zn  Zn127  1  0.68914042  0.44311431  0.43727732  1
  Zn  Zn128  1  0.68876706  0.43718351  0.93303584  1
  Zn  Zn129  1  0.68556325  0.93778750  0.43893789  1
  Zn  Zn130  1  0.68591352  0.93446162  0.94002709  1
  Zn  Zn131  1  0.31607548  0.05619466  0.06332066  1
  Zn  Zn132  1  0.31398511  0.06139546  0.56148011  1
  Zn  Zn133  1  0.30036914  0.56643261  0.15677457  1
  Zn  Zn134  1  0.31515112  0.56547149  0.57134475  1
  Zn  Zn135  1  0.80872758  0.06055166  0.06308976  1
  Zn  Zn136  1  0.80579954  0.06148006  0.55919923  1
  Zn  Zn137  1  0.81459336  0.56541624  0.06242055  1
  Zn  Zn138  1  0.81544949  0.56233376  0.56073970  1
  Zn  Zn139  1  0.46052206  0.49191522  0.21168918  1
  Zn  Zn140  1  0.44259168  0.44133257  0.68947604  1
  Zn  Zn141  1  0.43719440  0.94266741  0.18797501  1
  Zn  Zn142  1  0.43824256  0.93796168  0.68956640  1
  Zn  Zn143  1  0.98864098  0.46419571  0.22024483  1
  Zn  Zn144  1  0.93871218  0.43466955  0.68756784  1
  Zn  Zn145  1  0.93741138  0.93607359  0.18909406  1
  Zn  Zn146  1  0.93435015  0.93561348  0.68632848  1
  Zn  Zn147  1  0.06120756  0.06586463  0.31674562  1
  Zn  Zn148  1  0.06064543  0.06424818  0.80919079  1
  Zn  Zn149  1  0.11707745  0.59877211  0.25656562  1
  Zn  Zn150  1  0.03126697  0.54696001  0.79984310  1
  Zn  Zn151  1  0.56199349  0.06108295  0.31163917  1
  Zn  Zn152  1  0.56194037  0.06540041  0.80990741  1
  Zn  Zn153  1  0.56297499  0.57665466  0.31336748  1
  Zn  Zn154  1  0.56630627  0.56422006  0.81365092  1
  Zn  Zn155  1  0.44082366  0.18834679  0.43138500  1
  Zn  Zn156  1  0.44349173  0.18095087  0.93552371  1
  Zn  Zn157  1  0.44819258  0.67937114  0.44313741  1
  Zn  Zn158  1  0.41289741  0.65468147  0.98438235  1
  Zn  Zn159  1  0.93124499  0.18563463  0.44196216  1
  Zn  Zn160  1  0.93277618  0.18354087  0.93795680  1
  Zn  Zn161  1  0.94345527  0.68705462  0.44104335  1
  Zn  Zn162  1  0.93627042  0.68975943  0.93613418  1
  Zn  Zn163  1  0.04700810  0.30670727  0.06267271  1
  Zn  Zn164  1  0.06538686  0.31546513  0.56408722  1
  Zn  Zn165  1  0.09947530  0.78619983  0.08761685  1
  Zn  Zn166  1  0.06192706  0.81310291  0.55842202  1
  Zn  Zn167  1  0.56136033  0.31357596  0.06308275  1
  Zn  Zn168  1  0.56310834  0.31745999  0.56251546  1
  Zn  Zn169  1  0.55751188  0.81767699  0.04042115  1
  Zn  Zn170  1  0.55902786  0.80975121  0.56590156  1
  O  O171  1  0.11776459  0.11515652  0.11602413  1
  O  O172  1  0.11420966  0.11883225  0.61788422  1
  O  O173  1  0.11498145  0.63276528  0.10462979  1
  O  O174  1  0.11654253  0.61436892  0.62951521  1
  O  O175  1  0.62676790  0.12199002  0.12226113  1
  O  O176  1  0.61713308  0.11912175  0.61845475  1
  O  O177  1  0.63794875  0.61323162  0.12461389  1
  O  O178  1  0.62606599  0.61229560  0.62747911  1
  O  O179  1  0.37273361  0.37883878  0.37470536  1
  O  O180  1  0.38920561  0.38014674  0.86354087  1
  O  O181  1  0.39373452  0.86051610  0.38721181  1
  O  O182  1  0.37227349  0.89402339  0.86480594  1
  O  O183  1  0.88351072  0.38343040  0.37343764  1
  O  O184  1  0.87129385  0.37545566  0.88114145  1
  O  O185  1  0.87441271  0.87890112  0.38329987  1
  O  O186  1  0.87983572  0.88680459  0.87559958  1
  O  O187  1  0.24932420  0.01225220  0.36967611  1
  O  O188  1  0.25447844  0.01236028  0.86580692  1
  O  O189  1  0.25508231  0.49222294  0.39201007  1
  O  O190  1  0.24695481  0.50100676  0.86573127  1
  O  O191  1  0.75016750  0.00603302  0.36674775  1
  O  O192  1  0.75310769  0.00215914  0.86835961  1
  O  O193  1  0.76164026  0.50705316  0.37348262  1
  O  O194  1  0.74965702  0.51684106  0.87470606  1
  O  O195  1  0.25364884  0.47950139  0.09639611  1
  O  O196  1  0.24491265  0.49457359  0.63472232  1
  O  O197  1  0.23936513  1.00704610  0.13579629  1
  O  O198  1  0.24313077  0.99668656  0.62976361  1
  O  O199  1  0.74662665  0.49205753  0.12659380  1
  O  O200  1  0.73901177  0.50176470  0.62204826  1
  O  O201  1  0.73518949  0.99735581  0.12852883  1
  O  O202  1  0.73981492  0.99544115  0.63177439  1
  O  O203  1  -0.00743938  0.35513149  0.26097675  1
  O  O204  1  0.00391867  0.35448364  0.74938145  1
  O  O205  1  0.01526246  0.88626815  0.25654168  1
  O  O206  1  0.00654664  0.86981404  0.75183342  1
  O  O207  1  0.51373338  0.38609804  0.25623918  1
  O  O208  1  0.50900371  0.36864990  0.75598681  1
  O  O209  1  0.50465147  0.87233701  0.25838032  1
  O  O210  1  0.51356915  0.86864288  0.74531195  1
  O  O211  1  0.48601551  0.12945630  0.26073441  1
  O  O212  1  0.49751941  0.13482017  0.73977750  1
  O  O213  1  0.48530644  0.60056780  0.23868369  1
  O  O214  1  0.49273986  0.63265969  0.75243731  1
  O  O215  1  0.98761294  0.12843785  0.24817830  1
  O  O216  1  1.00174042  0.13377355  0.73812455  1
  O  O217  1  0.99691853  0.62614715  0.24455275  1
  O  O218  1  1.00668172  0.64345600  0.73639749  1
  O  O219  1  0.37650640  0.23636470  0.01032401  1
  O  O220  1  0.36711278  0.24025869  0.50304722  1
  O  O221  1  0.36758949  0.75649699  -0.03041111  1
  O  O222  1  0.36616277  0.75632690  0.51620760  1
  O  O223  1  0.86303715  0.25509145  -0.00031257  1
  O  O224  1  0.86419359  0.24416308  0.51520914  1
  O  O225  1  0.87055759  0.75368393  0.00757580  1
  O  O226  1  0.88008462  0.76367371  0.50753858  1
  O  O227  1  0.13005163  0.23711873  0.50913307  1
  O  O228  1  0.11836482  0.23023939  0.99111674  1
  O  O229  1  0.13822816  0.75401315  0.49548969  1
  O  O230  1  0.10631315  0.73668885  0.98068070  1
  O  O231  1  0.63102613  0.24613607  0.49449123  1
  O  O232  1  0.63381387  0.25776584  0.98850829  1
  O  O233  1  0.62691616  0.74637040  0.49406419  1
  O  O234  1  0.63249494  0.74795199  0.98896970  1
  O  O235  1  0.48489843  0.25563457  0.12387665  1
  O  O236  1  0.50790869  0.24204073  0.63234663  1
  O  O237  1  0.51367627  0.75547239  0.13607358  1
  O  O238  1  0.49067812  0.74808284  0.63817683  1
  O  O239  1  0.99179724  0.24031039  0.13568345  1
  O  O240  1  0.98729067  0.24297560  0.62764901  1
  O  O241  1  0.99108342  0.75189939  0.11859903  1
  O  O242  1  0.99482991  0.74391812  0.62625531  1
  O  O243  1  -0.01012060  0.25171657  0.37072463  1
  O  O244  1  0.00286910  0.24264637  0.86540816  1
  O  O245  1  0.02030260  0.75569560  0.38925060  1
  O  O246  1  0.00047447  0.75643094  0.86260756  1
  O  O247  1  0.51342535  0.25919738  0.37495507  1
  O  O248  1  0.50725842  0.25528247  0.86789777  1
  O  O249  1  0.52053394  0.75414621  0.37758785  1
  O  O250  1  0.51413729  0.74897792  0.86319934  1
  O  O251  1  0.24402494  0.12829176  0.49929939  1
  O  O252  1  0.23966523  0.11680761  0.98995013  1
  O  O253  1  0.25193648  0.64130020  0.51234066  1
  O  O254  1  0.22770205  0.62840992  0.98372010  1
  O  O255  1  0.73751248  0.13270308  0.49546455  1
  O  O256  1  0.75216358  0.13535144  0.99411701  1
  O  O257  1  0.75175777  0.62223257  0.48526868  1
  O  O258  1  0.74943217  0.63781991  0.99363561  1
  O  O259  1  0.27191386  0.36967533  -0.02173126  1
  O  O260  1  0.26405596  0.36719859  0.50529682  1
  O  O261  1  0.26339553  0.88543247  0.00025732  1
  O  O262  1  0.25804932  0.86887565  0.50999073  1
  O  O263  1  0.75365886  0.36686616  0.00310661  1
  O  O264  1  0.74565732  0.36169182  0.49646599  1
  O  O265  1  0.75059823  0.86116978  0.00219679  1
  O  O266  1  0.75645708  0.88176668  0.51341904  1
  O  O267  1  0.10402180  0.48642058  0.23957698  1
  O  O268  1  0.12894447  0.49476367  0.74332388  1
  O  O269  1  0.12974924  1.00433090  0.24433001  1
  O  O270  1  0.12758831  0.99646575  0.74256897  1
  O  O271  1  0.63250683  0.49694769  0.24343057  1
  O  O272  1  0.62171274  0.49203541  0.73829732  1
  O  O273  1  0.63076889  1.00912898  0.23386819  1
  O  O274  1  0.62942733  0.99235863  0.74425727  1
  O  O275  1  0.36614306  0.01516459  0.24716734  1
  O  O276  1  0.37232398  0.00978174  0.75359832  1
  O  O277  1  0.35128490  0.48881657  0.23965582  1
  O  O278  1  0.36505125  0.50631795  0.75598805  1
  O  O279  1  0.86636235  0.00941597  0.25392948  1
  O  O280  1  0.86244364  -0.00623935  0.75674845  1
  O  O281  1  0.88746888  0.50959169  0.26692418  1
  O  O282  1  0.92418309  0.51059019  0.76434868  1
  O  O283  1  0.10382381  0.36627642  0.38401787  1
  O  O284  1  0.12069094  0.35300078  0.87831615  1
  O  O285  1  0.12177244  0.88071691  0.37353986  1
  O  O286  1  0.11786721  0.86851522  0.86845465  1
  O  O287  1  0.62943099  0.37055574  0.36658594  1
  O  O288  1  0.62083314  0.36643762  0.86526443  1
  O  O289  1  0.62157798  0.86227175  0.38154990  1
  O  O290  1  0.63567389  0.86162728  0.86363966  1
  O  O291  1  0.37638230  0.13102139  0.13414686  1
  O  O292  1  0.39009334  0.11906349  0.62671994  1
  O  O293  1  0.36148389  0.64044630  0.09387810  1
  O  O294  1  0.37350012  0.63888963  0.63943321  1
  O  O295  1  0.87750267  0.12382494  0.13412384  1
  O  O296  1  0.88430697  0.12348225  0.61854106  1
  O  O297  1  0.87640821  0.63409490  0.13600743  1
  O  O298  1  0.88119727  0.63865002  0.61896733  1
  O  O299  1  0.26706509  0.24006904  0.12507877  1
  O  O300  1  0.24683537  0.25897995  0.61662424  1
  O  O301  1  0.21179996  0.76786317  0.11468211  1
  O  O302  1  0.25409761  0.75701654  0.62367691  1
  O  O303  1  0.74714931  0.25580208  0.11646562  1
  O  O304  1  0.76129332  0.24477868  0.61978311  1
  O  O305  1  0.76237972  0.75144618  0.11785368  1
  O  O306  1  0.75762644  0.75992187  0.62949845  1
  O  O307  1  0.24514061  0.23333066  0.39196852  1
  O  O308  1  0.24068919  0.23519346  0.86916583  1
  O  O309  1  0.23989502  0.75715553  0.39594172  1
  O  O310  1  0.23148184  0.73410920  0.86067932  1
  O  O311  1  0.74033271  0.24560781  0.38085361  1
  O  O312  1  0.74310549  0.24236240  0.88012561  1
  O  O313  1  0.73817096  0.74520510  0.37215619  1
  O  O314  1  0.74852838  0.74431576  0.87967395  1
  O  O315  1  0.00394774  0.11388424  0.00313398  1
  O  O316  1  0.00568684  0.11993143  0.50617588  1
  O  O317  1  0.00181041  0.61575816  -0.00383473  1
  O  O318  1  -0.00026360  0.61521008  0.51200928  1
  O  O319  1  0.50991485  0.10967528  -0.00595393  1
  O  O320  1  0.51254582  0.13195693  0.50513072  1
  O  O321  1  0.51077822  0.60229332  -0.00925782  1
  O  O322  1  0.50675603  0.61294656  0.51095441  1
  O  O323  1  0.50102911  0.38891256  0.49847448  1
  O  O324  1  0.51072761  0.38185496  0.98259375  1
  O  O325  1  0.49436759  0.87012573  0.49367800  1
  O  O326  1  0.49719414  0.89599210  0.99210279  1
  O  O327  1  0.99666562  0.38088710  0.49946311  1
  O  O328  1  0.97771853  0.37468474  1.00076558  1
  O  O329  1  0.98918594  0.88495967  0.50179365  1
  O  O330  1  0.99859060  0.89135947  0.98970111  1
  O  O331  1  0.51096694  0.50317923  0.39532834  1
  O  O332  1  0.49735904  0.49078934  0.87655246  1
  O  O333  1  0.51310859  0.97924093  0.37480651  1
  O  O334  1  0.49369915  1.00663528  0.87990644  1
  O  O335  1  0.99612526  0.48711724  0.38980383  1
  O  O336  1  1.00554084  0.48516743  0.89563522  1
  O  O337  1  0.98817290  1.00235747  0.38425424  1
  O  O338  1  0.99084719  1.00006422  0.87781518  1
  O  O339  1  0.00227198  0.00582578  0.11674905  1
  O  O340  1  0.00164040  0.00692818  0.62034475  1
  O  O341  1  -0.00855025  0.49979421  0.10937198  1
  O  O342  1  0.00647348  0.50497244  0.61606688  1
  O  O343  1  0.51584170  0.00285830  0.11696829  1
  O  O344  1  0.51241578  0.00826440  0.63079499  1
  O  O345  1  0.51833179  0.48543497  0.11156198  1
  O  O346  1  0.50734034  0.50183472  0.61682528  1
  O  O347  1  0.22086370  0.36953336  0.25976418  1
  O  O348  1  0.24491125  0.37967194  0.74636159  1
  O  O349  1  0.23532282  0.89658723  0.24875514  1
  O  O350  1  0.23884013  0.88513701  0.74115049  1
  O  O351  1  0.74257764  0.37715855  0.24199280  1
  O  O352  1  0.73807414  0.36962049  0.75350039  1
  O  O353  1  0.75373658  0.89117903  0.24940148  1
  O  O354  1  0.73993831  0.88337705  0.73901615  1
  O  O355  1  0.25672272  0.11967230  0.26147600  1
  O  O356  1  0.25619336  0.12110467  0.75204264  1
  O  O357  1  0.23280920  0.61128234  0.23984877  1
  O  O358  1  0.24982409  0.61432811  0.75761364  1
  O  O359  1  0.75424353  0.11847087  0.25491763  1
  O  O360  1  0.74222827  0.11118005  0.75374427  1
  O  O361  1  0.76940370  0.62049431  0.26385546  1
  O  O362  1  0.75428554  0.63210736  0.76235521  1
  O  O363  1  0.36547384  0.13064248  0.36737524  1
  O  O364  1  0.36795380  0.12023302  0.86690696  1
  O  O365  1  0.36701006  0.65274747  0.37523624  1
  O  O366  1  0.35749868  0.61218553  0.87674457  1
  O  O367  1  0.86460792  0.11822326  0.37062635  1
  O  O368  1  0.86577438  0.11122401  0.87602069  1
  O  O369  1  0.87531431  0.62413014  0.37206537  1
  O  O370  1  0.86118125  0.62631858  0.87699619  1
  O  O371  1  0.14128805  0.36532227  0.07161060  1
  O  O372  1  0.13714090  0.38315402  0.62574907  1
  O  O373  1  0.11767315  0.89247313  0.13505714  1
  O  O374  1  0.12779821  0.88258676  0.62823664  1
  O  O375  1  0.63508231  0.38033913  0.13224974  1
  O  O376  1  0.62389043  0.38785910  0.63346350  1
  O  O377  1  0.62262781  0.86618912  0.13554390  1
  O  O378  1  0.62968768  0.88154735  0.62823252  1
  O  O379  1  0.10937942  0.23050342  0.25080626  1
  O  O380  1  0.11547854  0.24523705  0.75657135  1
  O  O381  1  0.13754913  0.76682885  0.27322611  1
  O  O382  1  0.11549650  0.75823864  0.75525540  1
  O  O383  1  0.62085808  0.26091563  0.25763120  1
  O  O384  1  0.61683550  0.25721446  0.75426808  1
  O  O385  1  0.62966443  0.74885203  0.25639125  1
  O  O386  1  0.62036521  0.75735293  0.75272338  1
  O  O387  1  0.37961374  0.24853330  0.23753686  1
  O  O388  1  0.38941584  0.24462631  0.75413916  1
  O  O389  1  0.34834415  0.75075169  0.23097137  1
  O  O390  1  0.38240556  0.74594022  0.75611936  1
  O  O391  1  0.87449737  0.23591422  0.25094154  1
  O  O392  1  0.87864554  0.24667039  0.73507167  1
  O  O393  1  0.87541153  0.74395872  0.24267133  1
  O  O394  1  0.88456584  0.76286019  0.73653684  1
  O  O395  1  0.37909721  0.49565885  0.50048801  1
  O  O396  1  0.38815667  0.48802190  0.99468484  1
  O  O397  1  0.37329320  0.98160244  0.50646801  1
  O  O398  1  0.38921711  1.00924513  0.98824387  1
  O  O399  1  0.88457048  0.50447021  0.48924685  1
  O  O400  1  0.87461266  0.49115532  0.99402388  1
  O  O401  1  0.87603551  0.99092362  0.49584679  1
  O  O402  1  0.87956674  0.99903669  0.99236447  1
  O  O403  1  0.11645112  0.00565181  0.00378014  1
  O  O404  1  0.11943265  0.00670221  0.50857493  1
  O  O405  1  0.11339954  0.51579598  -0.00293130  1
  O  O406  1  0.11707496  0.49780976  0.51182970  1
  O  O407  1  0.62106100  -0.00369931  0.01304717  1
  O  O408  1  0.63077045  0.01132555  0.50972572  1
  O  O409  1  0.62490335  0.50000149  0.00710259  1
  O  O410  1  0.62053063  0.50015660  0.51329079  1
  O  O411  1  0.36684708  0.36311636  0.11832424  1
  O  O412  1  0.36244010  0.37866277  0.63605500  1
  O  O413  1  0.37272525  0.88738565  0.11898868  1
  O  O414  1  0.37091405  0.86566996  0.62564264  1
  O  O415  1  0.85658274  0.36959359  0.11593606  1
  O  O416  1  0.87467662  0.36300684  0.62569412  1
  O  O417  1  0.87166472  0.86901112  0.12438344  1
  O  O418  1  0.86607817  0.86914678  0.61793951  1
  O  O419  1  0.13244348  0.11908830  0.39015703  1
  O  O420  1  0.13052580  0.12796891  0.87925155  1
  O  O421  1  0.12337838  0.64052739  0.36901583  1
  O  O422  1  0.12180156  0.62936022  0.87297839  1
  O  O423  1  0.62640619  0.13344171  0.38089567  1
  O  O424  1  0.63012832  0.13950586  0.86749690  1
  O  O425  1  0.63568631  0.63682924  0.37822128  1
  O  O426  1  0.63775900  0.63724730  0.87220335  1
