# generated using pymatgen
data_V85Zn86O256
_symmetry_space_group_name_H-M   'P 1'
_cell_length_a   16.95534647
_cell_length_b   16.96022364
_cell_length_c   16.97485191
_cell_angle_alpha   90.05348503
_cell_angle_beta   89.96844414
_cell_angle_gamma   90.05754342
_symmetry_Int_Tables_number   1
_chemical_formula_structural   V85Zn86O256
_chemical_formula_sum   'V85 Zn86 O256'
_cell_volume   4881.39287948
_cell_formula_units_Z   1
loop_
 _symmetry_equiv_pos_site_id
 _symmetry_equiv_pos_as_xyz
  1  'x, y, z'
loop_
 _atom_site_type_symbol
 _atom_site_label
 _atom_site_symmetry_multiplicity
 _atom_site_fract_x
 _atom_site_fract_y
 _atom_site_fract_z
 _atom_site_occupancy
  V  V0  1  0.50410362  0.37492992  0.87305049  1
  V  V1  1  0.00033225  0.87322860  0.36623822  1
  V  V2  1  0.87949471  0.12474128  0.74911621  1
  V  V3  1  0.01350628  0.61543322  0.10673604  1
  V  V4  1  0.37354337  0.50060962  0.87555083  1
  V  V5  1  0.87354262  0.24930486  0.12615128  1
  V  V6  1  0.62915159  0.50048146  0.13110483  1
  V  V7  1  -0.00055622  0.12286698  0.12876442  1
  V  V8  1  0.62769279  0.24646721  0.87692139  1
  V  V9  1  0.73835598  0.12410844  0.38308328  1
  V  V10  1  0.36804640  0.24994670  0.12652859  1
  V  V11  1  0.50194733  0.50177029  0.00015424  1
  V  V12  1  0.12551772  0.75253394  0.36699916  1
  V  V13  1  0.37380373  0.75229031  0.12504397  1
  V  V14  1  0.87379326  0.24914715  0.62225414  1
  V  V15  1  0.11495425  0.76842321  0.86024156  1
  V  V16  1  0.50248827  0.25631322  0.25244343  1
  V  V17  1  0.12430354  0.12099853  0.00098982  1
  V  V18  1  0.88407802  0.38220380  0.00011442  1
  V  V19  1  0.74894658  0.24821921  0.00206731  1
  V  V20  1  0.00284985  0.00243408  0.49682310  1
  V  V21  1  0.12830842  0.00858821  0.61841495  1
  V  V22  1  -0.00159783  -0.00791850  0.00439271  1
  V  V23  1  0.25239808  0.49123209  0.25598322  1
  V  V24  1  0.63164474  0.63095685  -0.00063268  1
  V  V25  1  0.50062559  0.61768777  0.61515663  1
  V  V26  1  0.38613326  0.37792915  0.49870586  1
  V  V27  1  0.24853464  0.74871742  0.49911277  1
  V  V28  1  -0.00313087  0.73666217  0.24697405  1
  V  V29  1  0.50747629  0.00784243  0.50027998  1
  V  V30  1  0.37669449  0.25110643  0.62763397  1
  V  V31  1  -0.00067902  0.37674687  0.37555168  1
  V  V32  1  0.39219032  0.49619850  0.37908567  1
  V  V33  1  0.87253840  0.73857647  0.12239221  1
  V  V34  1  0.23944546  0.87170639  0.62654776  1
  V  V35  1  0.37522314  0.62321964  0.25120346  1
  V  V36  1  0.74504179  0.62218657  0.86818422  1
  V  V37  1  0.90476439  -0.02229672  0.85081883  1
  V  V38  1  0.37749761  0.75151737  0.62708692  1
  V  V39  1  0.74569512  -0.00062232  0.24908878  1
  V  V40  1  0.12360898  0.62379933  0.49853529  1
  V  V41  1  0.00156191  0.63336056  0.63024684  1
  V  V42  1  0.50557223  0.75469093  0.76236487  1
  V  V43  1  0.50651433  -0.00515951  -0.00469988  1
  V  V44  1  0.24466110  0.37316779  0.62580423  1
  V  V45  1  0.50686643  0.12671843  0.12088377  1
  V  V46  1  0.37445655  0.87715943  0.49725954  1
  V  V47  1  0.12502978  -0.00648316  0.13288372  1
  V  V48  1  0.74529743  -0.00331708  0.75038079  1
  V  V49  1  0.24508207  0.49763461  0.74739233  1
  V  V50  1  0.12344553  0.49754393  0.62547873  1
  V  V51  1  0.74996287  0.37876380  0.13150690  1
  V  V52  1  0.75493950  0.12079721  0.88005346  1
  V  V53  1  0.24999163  0.62072264  0.37576185  1
  V  V54  1  0.62091049  0.26057918  0.38548039  1
  V  V55  1  0.23757018  0.74947438  0.00119794  1
  V  V56  1  0.86730795  0.37615882  0.49940949  1
  V  V57  1  -0.00131718  0.50055509  0.49851136  1
  V  V58  1  0.25100809  0.12137555  0.87651653  1
  V  V59  1  0.24906946  -0.00668432  0.75089247  1
  V  V60  1  0.12759083  0.37602568  0.25441094  1
  V  V61  1  0.23744077  0.62800117  0.87727757  1
  V  V62  1  0.24784259  0.23843122  0.49863964  1
  V  V63  1  0.12830036  0.23793722  0.38004718  1
  V  V64  1  0.87304307  0.61944454  0.74875909  1
  V  V65  1  0.75263147  0.63732146  0.35906141  1
  V  V66  1  0.12317651  0.24540301  0.86977701  1
  V  V67  1  0.50679442  0.87100893  0.37397754  1
  V  V68  1  0.24681113  0.87429183  0.13333640  1
  V  V69  1  0.19796388  0.42915007  0.08078716  1
  V  V70  1  0.37780105  0.37342461  0.00502733  1
  V  V71  1  0.00334318  0.25755244  0.74851669  1
  V  V72  1  0.74847647  0.86990267  0.12115018  1
  V  V73  1  0.50117670  0.62626782  0.12537347  1
  V  V74  1  0.73870175  0.86958176  0.62181053  1
  V  V75  1  0.37923581  0.12384281  0.75022603  1
  V  V76  1  0.87257070  0.86949078  -0.00333907  1
  V  V77  1  0.36909335  0.12237893  0.25535383  1
  V  V78  1  0.87089518  0.12454086  0.25346176  1
  V  V79  1  0.87136534  0.86882654  0.49816399  1
  V  V80  1  0.64160303  0.62822548  0.49416754  1
  V  V81  1  0.37491553  0.62625437  0.75133903  1
  V  V82  1  -0.00037073  0.25071382  0.25329217  1
  V  V83  1  0.86393999  0.50223028  0.36294114  1
  V  V84  1  0.87350265  0.75142136  0.62840249  1
  Zn  Zn85  1  0.88109845  0.50189504  0.87345097  1
  Zn  Zn86  1  0.50842902  0.13094537  0.62098212  1
  Zn  Zn87  1  0.74144486  0.24245977  0.50903258  1
  Zn  Zn88  1  0.68622615  0.79273353  -0.06591230  1
  Zn  Zn89  1  0.00391220  0.12627154  0.61764063  1
  Zn  Zn90  1  0.00800232  0.38145324  0.87657892  1
  Zn  Zn91  1  0.24881569  0.24681254  0.00181891  1
  Zn  Zn92  1  0.50376373  0.74788388  0.25406266  1
  Zn  Zn93  1  0.37676334  0.87595574  -0.00356925  1
  Zn  Zn94  1  0.63061892  0.86728295  0.25430568  1
  Zn  Zn95  1  0.38298744  -0.00601401  0.87387507  1
  Zn  Zn96  1  0.62777194  0.00478169  0.12500529  1
  Zn  Zn97  1  0.24254799  -0.00022049  0.25983405  1
  Zn  Zn98  1  0.62528681  0.38215958  0.25967877  1
  Zn  Zn99  1  0.75439691  0.38542148  0.63899392  1
  Zn  Zn100  1  0.62877868  0.01329363  0.62227742  1
  Zn  Zn101  1  0.61959786  0.87496841  0.76902209  1
  Zn  Zn102  1  0.36891821  0.00721792  0.38077856  1
  Zn  Zn103  1  0.62948047  0.49750787  0.62573209  1
  Zn  Zn104  1  0.64490542  0.38831488  0.75609951  1
  Zn  Zn105  1  0.50674200  0.24928065  0.75001530  1
  Zn  Zn106  1  0.87154169  -0.00152639  0.37756584  1
  Zn  Zn107  1  0.18663358  0.18736012  0.18891572  1
  Zn  Zn108  1  0.19068663  0.18392033  0.68844836  1
  Zn  Zn109  1  0.18656455  0.68320353  0.18895082  1
  Zn  Zn110  1  0.18566714  0.68770800  0.69086482  1
  Zn  Zn111  1  0.68621914  0.19258296  0.19463004  1
  Zn  Zn112  1  0.68873877  0.19073763  0.69348014  1
  Zn  Zn113  1  0.68674960  0.69018052  0.18900368  1
  Zn  Zn114  1  0.68527093  0.68624284  0.68661948  1
  Zn  Zn115  1  0.31444643  0.30947063  0.31778235  1
  Zn  Zn116  1  0.31170436  0.31140221  0.81306539  1
  Zn  Zn117  1  0.31456722  0.81458012  0.31264121  1
  Zn  Zn118  1  0.31352957  0.81379773  0.81592317  1
  Zn  Zn119  1  0.80740241  0.31210712  0.31617188  1
  Zn  Zn120  1  0.81677454  0.31067596  0.81585870  1
  Zn  Zn121  1  0.81765002  0.81274197  0.30553327  1
  Zn  Zn122  1  0.81264113  0.80679468  0.80578228  1
  Zn  Zn123  1  0.19138590  0.43136815  0.44059856  1
  Zn  Zn124  1  0.18349904  0.43561280  0.91908991  1
  Zn  Zn125  1  0.18732838  0.93819031  0.43472284  1
  Zn  Zn126  1  0.19137637  0.93450830  0.94254185  1
  Zn  Zn127  1  0.68741720  0.44625917  0.45290092  1
  Zn  Zn128  1  0.69296010  0.44133918  0.94005986  1
  Zn  Zn129  1  0.68807402  0.93599377  0.43833541  1
  Zn  Zn130  1  0.68741058  0.95495379  0.94043778  1
  Zn  Zn131  1  0.31613056  0.05978709  0.06532910  1
  Zn  Zn132  1  0.31784895  0.06099159  0.56514029  1
  Zn  Zn133  1  0.31457777  0.56982229  0.05860928  1
  Zn  Zn134  1  0.31563701  0.56146564  0.56192658  1
  Zn  Zn135  1  0.81568375  0.05801359  0.06191982  1
  Zn  Zn136  1  0.81394737  0.05740058  0.56353640  1
  Zn  Zn137  1  0.81004208  0.56360114  0.06034432  1
  Zn  Zn138  1  0.81417194  0.56488744  0.55855839  1
  Zn  Zn139  1  0.43881676  0.43789836  0.18738170  1
  Zn  Zn140  1  0.43894567  0.43740958  0.69041488  1
  Zn  Zn141  1  0.43739379  0.94025331  0.18592597  1
  Zn  Zn142  1  0.43837567  0.93596188  0.68482697  1
  Zn  Zn143  1  0.94046550  0.43977845  0.18411955  1
  Zn  Zn144  1  0.93659763  0.43785924  0.68640084  1
  Zn  Zn145  1  0.93239008  0.93342120  0.18836857  1
  Zn  Zn146  1  0.93806865  0.93697951  0.68057410  1
  Zn  Zn147  1  0.05992238  0.06043625  0.31410102  1
  Zn  Zn148  1  0.06017634  0.04577918  0.80476837  1
  Zn  Zn149  1  0.06238369  0.55954080  0.30961430  1
  Zn  Zn150  1  0.05808285  0.56273183  0.81346025  1
  Zn  Zn151  1  0.55884111  0.06375943  0.31292321  1
  Zn  Zn152  1  0.56737656  0.06548354  0.81335354  1
  Zn  Zn153  1  0.56868827  0.56889470  0.31252019  1
  Zn  Zn154  1  0.56332603  0.56650674  0.80964690  1
  Zn  Zn155  1  0.43837074  0.19254499  0.43725991  1
  Zn  Zn156  1  0.43758735  0.18529420  0.93872544  1
  Zn  Zn157  1  0.43623830  0.68963263  0.43711293  1
  Zn  Zn158  1  0.43245147  0.68745351  0.94045249  1
  Zn  Zn159  1  0.93592037  0.18684921  0.43629756  1
  Zn  Zn160  1  0.93757044  0.18374758  0.93733717  1
  Zn  Zn161  1  0.93286200  0.68625964  0.43763951  1
  Zn  Zn162  1  0.94033157  0.68821106  0.93327254  1
  Zn  Zn163  1  0.06098733  0.30285899  0.06145110  1
  Zn  Zn164  1  0.06147268  0.31200217  0.56058290  1
  Zn  Zn165  1  0.06086027  0.80946089  0.06269510  1
  Zn  Zn166  1  0.06015667  0.81354744  0.55619496  1
  Zn  Zn167  1  0.56453089  0.31116063  0.06257163  1
  Zn  Zn168  1  0.56563366  0.31583917  0.56910023  1
  Zn  Zn169  1  0.56139723  0.81456249  0.07061604  1
  Zn  Zn170  1  0.56087421  0.80781687  0.55807154  1
  O  O171  1  0.11956527  0.11882328  0.12076363  1
  O  O172  1  0.12567371  0.11246521  0.62347451  1
  O  O173  1  0.11277414  0.62836822  0.12389667  1
  O  O174  1  0.11904844  0.62121872  0.61875408  1
  O  O175  1  0.60977519  0.12939676  0.13338059  1
  O  O176  1  0.62079481  0.12710025  0.63291720  1
  O  O177  1  0.62269529  0.61723139  0.11761560  1
  O  O178  1  0.61207052  0.62593180  0.61605610  1
  O  O179  1  0.37274086  0.38074800  0.39009820  1
  O  O180  1  0.37719617  0.37772529  0.88825570  1
  O  O181  1  0.38041342  0.87459282  0.38815074  1
  O  O182  1  0.36754631  0.88233285  0.88304025  1
  O  O183  1  0.87807436  0.38238846  0.37954962  1
  O  O184  1  0.87981755  0.37041024  0.89378409  1
  O  O185  1  0.88121589  0.87479067  0.38205066  1
  O  O186  1  0.86913996  0.87982871  0.87974814  1
  O  O187  1  0.25627009  -0.00518142  0.37130492  1
  O  O188  1  0.24689714  0.00867639  0.86701868  1
  O  O189  1  0.25587346  0.50262638  0.37024267  1
  O  O190  1  0.25288925  0.50688699  0.86615913  1
  O  O191  1  0.74946037  0.00699556  0.36772784  1
  O  O192  1  0.76064022  0.00741078  0.86619403  1
  O  O193  1  0.76149262  0.50352141  0.37821462  1
  O  O194  1  0.76012457  0.51681863  0.88149019  1
  O  O195  1  0.25870694  0.49515544  0.13382249  1
  O  O196  1  0.24575892  0.49347489  0.62946661  1
  O  O197  1  0.24170688  0.99202651  0.12797854  1
  O  O198  1  0.24594000  0.99174340  0.62778866  1
  O  O199  1  0.74105419  0.49126806  0.11924308  1
  O  O200  1  0.74458600  0.49407488  0.60426433  1
  O  O201  1  0.74979535  0.99391546  0.13215543  1
  O  O202  1  0.74714362  0.99073652  0.63209926  1
  O  O203  1  0.00858429  0.36991606  0.25363350  1
  O  O204  1  -0.00467805  0.36000422  0.75052399  1
  O  O205  1  -0.00587088  0.86647456  0.26177789  1
  O  O206  1  -0.01612316  0.94463566  0.78343637  1
  O  O207  1  0.50083728  0.36027472  0.24463666  1
  O  O208  1  0.48790764  0.36891621  0.76910693  1
  O  O209  1  0.49535175  0.88023881  0.26676346  1
  O  O210  1  0.50033296  0.85970525  0.74453857  1
  O  O211  1  0.49221895  0.13477242  0.24129412  1
  O  O212  1  0.48788351  0.12721831  0.75384755  1
  O  O213  1  0.49210687  0.62500643  0.24359297  1
  O  O214  1  0.49238875  0.63719346  0.74017453  1
  O  O215  1  0.98982387  0.12975044  0.24843440  1
  O  O216  1  0.98886742  0.12578418  0.74604335  1
  O  O217  1  1.00205513  0.63444644  0.24716160  1
  O  O218  1  0.99466834  0.62430557  0.73444158  1
  O  O219  1  0.37164546  0.25659963  0.00664547  1
  O  O220  1  0.36977903  0.25940037  0.50631761  1
  O  O221  1  0.36486125  0.74879405  0.01312771  1
  O  O222  1  0.36765212  0.75596607  0.50757551  1
  O  O223  1  0.86753616  0.25375283  0.00769234  1
  O  O224  1  0.87645858  0.25677469  0.50746641  1
  O  O225  1  0.88349533  0.76301154  0.00613154  1
  O  O226  1  0.88082432  0.76208682  0.50896136  1
  O  O227  1  0.13405572  0.25317820  0.49222975  1
  O  O228  1  0.12806319  0.23784735  0.99339903  1
  O  O229  1  0.12970466  0.74286948  0.48998984  1
  O  O230  1  0.13530698  0.75488647  0.99161285  1
  O  O231  1  0.62271870  0.25086573  0.48903383  1
  O  O232  1  0.64077814  0.25387136  0.99321194  1
  O  O233  1  0.61012877  0.72478079  0.49750173  1
  O  O234  1  0.61801177  0.73554609  1.00713819  1
  O  O235  1  0.49336948  0.24228556  0.12916292  1
  O  O236  1  0.48717872  0.25142494  0.62932318  1
  O  O237  1  0.48798978  0.74370468  0.12545373  1
  O  O238  1  0.48726555  0.74356670  0.62785860  1
  O  O239  1  0.99356829  0.24296076  0.13530735  1
  O  O240  1  0.99281832  0.24606929  0.62995901  1
  O  O241  1  0.99484829  0.74166439  0.13097692  1
  O  O242  1  0.99328490  0.74279448  0.61810510  1
  O  O243  1  0.00503134  0.25711798  0.37093134  1
  O  O244  1  0.00709116  0.24622601  0.86610472  1
  O  O245  1  0.00419378  0.75215595  0.36742493  1
  O  O246  1  0.01691027  0.75081976  0.87512854  1
  O  O247  1  0.51353045  0.24750160  0.36873969  1
  O  O248  1  0.51160817  0.25533752  0.88071386  1
  O  O249  1  0.49141362  0.76674997  0.37383130  1
  O  O250  1  0.49265643  0.74405046  0.86032188  1
  O  O251  1  0.25848765  0.13962081  0.50683268  1
  O  O252  1  0.24512361  0.12096743  0.99190514  1
  O  O253  1  0.24556991  0.62970967  0.49516444  1
  O  O254  1  0.25174450  0.63482003  0.98906355  1
  O  O255  1  0.75802186  0.12409080  0.48617832  1
  O  O256  1  0.76233968  0.13064551  0.98845395  1
  O  O257  1  0.74489492  0.63230961  0.49154169  1
  O  O258  1  0.74031828  0.62486420  0.99067929  1
  O  O259  1  0.25471793  0.37483281  0.00715472  1
  O  O260  1  0.25825925  0.36731859  0.51265383  1
  O  O261  1  0.25276766  0.86622226  0.01441339  1
  O  O262  1  0.25695181  0.86742482  0.50671364  1
  O  O263  1  0.76044466  0.36583450  0.00910982  1
  O  O264  1  0.76308282  0.36650216  0.49511574  1
  O  O265  1  0.75642511  0.87558061  0.00580472  1
  O  O266  1  0.75897277  0.87917384  0.50814770  1
  O  O267  1  0.13346212  0.48473725  0.25423719  1
  O  O268  1  0.13876140  0.50562748  0.74334041  1
  O  O269  1  0.12361970  1.00538369  0.23687981  1
  O  O270  1  0.14255867  1.00260031  0.73708402  1
  O  O271  1  0.61807294  0.49745478  0.23556057  1
  O  O272  1  0.60613612  0.49394526  0.74001886  1
  O  O273  1  0.63582078  0.99773351  0.24905520  1
  O  O274  1  0.63504877  0.99650130  0.74957259  1
  O  O275  1  0.37626228  0.01652258  0.24932965  1
  O  O276  1  0.36701094  0.00682641  0.74789017  1
  O  O277  1  0.36930876  0.49994915  0.25925269  1
  O  O278  1  0.36522539  0.50504263  0.75576936  1
  O  O279  1  0.86390960  0.00750037  0.25180356  1
  O  O280  1  0.85939484  0.00778717  0.74557188  1
  O  O281  1  0.87722520  0.49342337  0.26537621  1
  O  O282  1  0.87791351  0.51632635  0.74426827  1
  O  O283  1  0.11908736  0.36896393  0.36939087  1
  O  O284  1  0.12430883  0.35234101  0.87656405  1
  O  O285  1  0.11345954  0.86219579  0.38157006  1
  O  O286  1  0.12896232  0.86757864  0.87465889  1
  O  O287  1  0.63264362  0.36387424  0.37789822  1
  O  O288  1  0.61812512  0.37094357  0.87988478  1
  O  O289  1  0.61004743  0.87720797  0.37587778  1
  O  O290  1  0.63579224  0.87533692  0.88058856  1
  O  O291  1  0.38390684  0.13285551  0.13425333  1
  O  O292  1  0.37894485  0.13410909  0.63390763  1
  O  O293  1  0.37911400  0.63131915  0.13185484  1
  O  O294  1  0.37776108  0.63308219  0.63089139  1
  O  O295  1  0.87731092  0.12814234  0.13680283  1
  O  O296  1  0.87740480  0.13092904  0.63091568  1
  O  O297  1  0.88132997  0.63586057  0.11545215  1
  O  O298  1  0.88174203  0.63353957  0.62540154  1
  O  O299  1  0.26393268  0.24606347  0.12356961  1
  O  O300  1  0.25798994  0.25598639  0.62280900  1
  O  O301  1  0.25235377  0.75334702  0.12042043  1
  O  O302  1  0.25790678  0.75443962  0.62189959  1
  O  O303  1  0.75397148  0.25314095  0.11898641  1
  O  O304  1  0.76524703  0.25047444  0.62554532  1
  O  O305  1  0.76096537  0.75749074  0.12731227  1
  O  O306  1  0.75852893  0.75820698  0.62859904  1
  O  O307  1  0.24071231  0.25421371  0.38632801  1
  O  O308  1  0.24405146  0.23634275  0.87481818  1
  O  O309  1  0.24271317  0.74454979  0.37746576  1
  O  O310  1  0.24339441  0.74386119  0.88234584  1
  O  O311  1  0.73616308  0.24158886  0.37671345  1
  O  O312  1  0.74954894  0.24175348  0.88467982  1
  O  O313  1  0.76055072  0.73637022  0.36823414  1
  O  O314  1  0.75951610  0.73069108  0.87530175  1
  O  O315  1  0.00263734  0.12118873  0.01430179  1
  O  O316  1  -0.00788036  0.10711896  0.49736193  1
  O  O317  1  0.00239635  0.62631651  0.00774434  1
  O  O318  1  0.00376387  0.61921090  0.50646074  1
  O  O319  1  0.49543695  0.12236954  0.01704744  1
  O  O320  1  0.49117971  0.11036957  0.49981295  1
  O  O321  1  0.50401169  0.61937605  0.00563269  1
  O  O322  1  0.48818659  0.62528136  0.51531858  1
  O  O323  1  0.48426902  0.37200028  0.50554150  1
  O  O324  1  0.49421254  0.37852901  0.99227379  1
  O  O325  1  0.49384453  0.88090687  0.49185004  1
  O  O326  1  0.49971374  0.89214476  1.00987293  1
  O  O327  1  0.99106129  0.37991659  0.49345502  1
  O  O328  1  0.98695690  0.36741520  1.00415298  1
  O  O329  1  0.99251200  0.88171851  0.48901455  1
  O  O330  1  0.99133861  0.88389395  1.00626920  1
  O  O331  1  0.49069995  0.50423873  0.37080845  1
  O  O332  1  0.49290424  0.49388091  0.88157873  1
  O  O333  1  0.49417357  0.99243276  0.38551970  1
  O  O334  1  0.50215231  1.01094820  0.89243976  1
  O  O335  1  0.99202330  0.49587475  0.37965305  1
  O  O336  1  0.99572605  0.49327088  0.87074920  1
  O  O337  1  0.99714538  0.98975120  0.37842375  1
  O  O338  1  0.99835376  1.02111636  0.90138703  1
  O  O339  1  0.00366826  0.00230336  0.12202066  1
  O  O340  1  0.01146727  -0.00174857  0.61417363  1
  O  O341  1  -0.00243621  0.51739265  0.12718670  1
  O  O342  1  0.00600405  0.50638721  0.61786588  1
  O  O343  1  0.50263347  0.01357906  0.12176701  1
  O  O344  1  0.50235437  -0.00126050  0.61042139  1
  O  O345  1  0.50510039  0.50627294  0.11842193  1
  O  O346  1  0.48981856  0.51740312  0.62636700  1
  O  O347  1  0.24649446  0.38339018  0.25487196  1
  O  O348  1  0.25681556  0.38362312  0.73819846  1
  O  O349  1  0.25349582  0.87563751  0.23744710  1
  O  O350  1  0.25858674  0.88271153  0.73721181  1
  O  O351  1  0.74792169  0.36843739  0.23488169  1
  O  O352  1  0.75888256  0.37769756  0.75307105  1
  O  O353  1  0.75224439  0.88425971  0.24211753  1
  O  O354  1  0.74853962  0.88207656  0.74060762  1
  O  O355  1  0.26613119  0.12540027  0.24463876  1
  O  O356  1  0.26101733  0.11713530  0.75601677  1
  O  O357  1  0.25445973  0.61045766  0.25488190  1
  O  O358  1  0.25720118  0.61838616  0.75434803  1
  O  O359  1  0.75466935  0.11956487  0.25663295  1
  O  O360  1  0.76140826  0.12139028  0.76032803  1
  O  O361  1  0.74903702  0.62253433  0.26047977  1
  O  O362  1  0.75498443  0.62689972  0.75932897  1
  O  O363  1  0.38122255  0.12904843  0.35837170  1
  O  O364  1  0.36701787  0.12124196  0.86907788  1
  O  O365  1  0.36916881  0.61679172  0.37134163  1
  O  O366  1  0.36570367  0.61868538  0.86998313  1
  O  O367  1  0.86690304  0.12497156  0.36350487  1
  O  O368  1  0.87398072  0.11469025  0.86468064  1
  O  O369  1  0.86425563  0.61246648  0.37884948  1
  O  O370  1  0.87028963  0.62523333  0.86404773  1
  O  O371  1  0.13134137  0.36724423  0.13262656  1
  O  O372  1  0.13480014  0.38121113  0.62063009  1
  O  O373  1  0.13176519  0.88259771  0.12217841  1
  O  O374  1  0.13637400  0.87914194  0.61832124  1
  O  O375  1  0.63334543  0.38325394  0.12229988  1
  O  O376  1  0.63249352  0.37578162  0.63235929  1
  O  O377  1  0.63959349  0.87944404  0.12503809  1
  O  O378  1  0.63491776  0.87268932  0.62062590  1
  O  O379  1  0.12300430  0.25929557  0.25707180  1
  O  O380  1  0.11521938  0.23748270  0.75679624  1
  O  O381  1  0.11921034  0.74599530  0.26185379  1
  O  O382  1  0.12934361  0.75591009  0.76038251  1
  O  O383  1  0.61768084  0.25672471  0.26109251  1
  O  O384  1  0.62607995  0.25796383  0.76791580  1
  O  O385  1  0.61572652  0.75604690  0.24191501  1
  O  O386  1  0.60876201  0.75039208  0.74728508  1
  O  O387  1  0.38059231  0.24481899  0.24494000  1
  O  O388  1  0.37345933  0.24187987  0.74304206  1
  O  O389  1  0.37379166  0.74260992  0.23989789  1
  O  O390  1  0.37869900  0.74576837  0.74222102  1
  O  O391  1  0.87753697  0.24364391  0.24674619  1
  O  O392  1  0.88414609  0.24086037  0.74408433  1
  O  O393  1  0.88616059  0.75265319  0.23477718  1
  O  O394  1  0.87702545  0.74019802  0.73516235  1
  O  O395  1  0.37024115  0.48636904  0.49342819  1
  O  O396  1  0.37930951  0.49252309  0.99569539  1
  O  O397  1  0.38369298  0.99084519  0.50165749  1
  O  O398  1  0.39137881  1.00133658  1.00225842  1
  O  O399  1  0.88282014  0.49197216  0.49090367  1
  O  O400  1  0.87268036  0.48338469  1.00321827  1
  O  O401  1  0.88286629  0.98634707  0.49970925  1
  O  O402  1  0.88259290  0.98630628  0.99643296  1
  O  O403  1  0.11801584  0.00263628  0.01172177  1
  O  O404  1  0.11608040  -0.00688488  0.50693426  1
  O  O405  1  0.14471215  0.48394461  0.01863504  1
  O  O406  1  0.11959634  0.50430892  0.50351638  1
  O  O407  1  0.61136458  0.00924316  0.00775252  1
  O  O408  1  0.61057045  -0.00176756  0.49976413  1
  O  O409  1  0.61961621  0.50868477  0.00765462  1
  O  O410  1  0.61815075  0.52229185  0.50177005  1
  O  O411  1  0.38221348  0.36709558  0.11295288  1
  O  O412  1  0.36918838  0.36992559  0.61814179  1
  O  O413  1  0.36887130  0.86687748  0.12418131  1
  O  O414  1  0.36887161  0.86772673  0.61442860  1
  O  O415  1  0.87018682  0.36954109  0.11900771  1
  O  O416  1  0.87775853  0.36690730  0.61458961  1
  O  O417  1  0.86561260  0.86873158  0.11675315  1
  O  O418  1  0.86961451  0.86838826  0.61949300  1
  O  O419  1  0.12003489  0.13921639  0.36950815  1
  O  O420  1  0.13115158  0.12786572  0.87919405  1
  O  O421  1  0.13057712  0.62924277  0.37934467  1
  O  O422  1  0.13606812  0.63170938  0.86704913  1
  O  O423  1  0.63189456  0.13557843  0.36901799  1
  O  O424  1  0.64092624  0.13404555  0.87243844  1
  O  O425  1  0.64312572  0.62120068  0.38157601  1
  O  O426  1  0.63598266  0.62204936  0.88186543  1
