# generated using pymatgen
data_V85Zn86O256
_symmetry_space_group_name_H-M   'P 1'
_cell_length_a   16.93421739
_cell_length_b   16.92025251
_cell_length_c   16.92560869
_cell_angle_alpha   89.99556596
_cell_angle_beta   89.95032916
_cell_angle_gamma   90.04039542
_symmetry_Int_Tables_number   1
_chemical_formula_structural   V85Zn86O256
_chemical_formula_sum   'V85 Zn86 O256'
_cell_volume   4849.71250720
_cell_formula_units_Z   1
loop_
 _symmetry_equiv_pos_site_id
 _symmetry_equiv_pos_as_xyz
  1  'x, y, z'
loop_
 _atom_site_type_symbol
 _atom_site_label
 _atom_site_symmetry_multiplicity
 _atom_site_fract_x
 _atom_site_fract_y
 _atom_site_fract_z
 _atom_site_occupancy
  V  V0  1  0.12637724  0.00010280  0.12513803  1
  V  V1  1  0.87631377  0.13100405  0.75333036  1
  V  V2  1  0.12518370  0.63623473  -0.00050323  1
  V  V3  1  -0.00228280  0.49807093  0.49461358  1
  V  V4  1  0.38040986  0.38587104  -0.00484298  1
  V  V5  1  0.12300923  0.75084765  0.37261355  1
  V  V6  1  0.37255113  0.01281320  0.87356161  1
  V  V7  1  0.74952320  0.87438971  0.62509465  1
  V  V8  1  0.25599810  0.00203693  0.24826650  1
  V  V9  1  0.86622602  0.38083161  0.49327975  1
  V  V10  1  0.74883289  -0.00694883  0.24743363  1
  V  V11  1  0.62360377  0.24652334  0.88001826  1
  V  V12  1  0.25064932  0.37348821  0.12061369  1
  V  V13  1  0.25255686  0.50440086  0.24607974  1
  V  V14  1  0.12541633  0.87623876  0.75092565  1
  V  V15  1  0.12244651  0.24736745  0.86884877  1
  V  V16  1  -0.00095164  0.74811983  0.75207542  1
  V  V17  1  0.50431839  0.00344757  -0.00045227  1
  V  V18  1  0.36713615  0.87230851  0.00343167  1
  V  V19  1  0.63086246  0.24397554  0.37334452  1
  V  V20  1  0.49999580  0.38842128  0.87425054  1
  V  V21  1  -0.00156650  0.00224688  0.50156677  1
  V  V22  1  0.61842815  0.62118288  0.00356392  1
  V  V23  1  0.74613692  0.24435164  0.00518742  1
  V  V24  1  0.87385591  0.87506693  0.50135136  1
  V  V25  1  0.37504935  0.50143791  0.37062112  1
  V  V26  1  0.12363331  0.62425176  0.50312420  1
  V  V27  1  0.37367570  0.87756542  0.49925769  1
  V  V28  1  0.00015748  0.37095228  0.86625855  1
  V  V29  1  0.37217137  0.37711967  0.50376089  1
  V  V30  1  -0.00411526  0.87405173  0.88109018  1
  V  V31  1  0.37985651  0.73960281  0.63332912  1
  V  V32  1  0.50867417  0.87571641  0.37150474  1
  V  V33  1  0.36891723  0.25054465  0.62803949  1
  V  V34  1  0.12376688  0.50084331  0.12040125  1
  V  V35  1  0.12382490  0.87226764  0.24978238  1
  V  V36  1  0.25517953  0.62965226  0.87290127  1
  V  V37  1  0.77468666  0.62568314  0.37368157  1
  V  V38  1  0.13001342  0.12404418  -0.00533887  1
  V  V39  1  0.37533483  0.00271058  0.37147314  1
  V  V40  1  0.87166887  0.49923512  0.87318577  1
  V  V41  1  0.62258038  0.87181878  0.75382384  1
  V  V42  1  0.49591536  0.24728524  0.75203939  1
  V  V43  1  0.49603568  0.24433511  0.25248080  1
  V  V44  1  0.49952745  0.00232429  0.49895056  1
  V  V45  1  -0.00224386  -0.00073825  0.00036687  1
  V  V46  1  0.50417320  0.73772445  0.23630562  1
  V  V47  1  0.12470079  0.36695865  0.25465841  1
  V  V48  1  0.12181214  0.12893625  0.49159861  1
  V  V49  1  0.87250302  -0.00149718  0.88108259  1
  V  V50  1  0.25287110  0.13112000  0.36999117  1
  V  V51  1  0.62743056  -0.00566320  0.12356110  1
  V  V52  1  0.87587573  0.37316781  0.00210698  1
  V  V53  1  0.86751783  0.12807332  0.25372898  1
  V  V54  1  0.60861642  0.50153118  0.12666582  1
  V  V55  1  0.87567299  0.76330159  0.13625039  1
  V  V56  1  0.25055783  0.87617565  0.62674291  1
  V  V57  1  0.24550793  0.25492664  0.49823063  1
  V  V58  1  0.12688451  0.49003180  0.62671398  1
  V  V59  1  0.74979653  0.24404603  0.50087660  1
  V  V60  1  0.50250882  0.37499854  0.37569001  1
  V  V61  1  -0.00059795  0.13143163  0.62913429  1
  V  V62  1  0.74928163  0.00106899  0.75270490  1
  V  V63  1  -0.00136675  0.12909925  0.12645423  1
  V  V64  1  0.24628392  0.75151184  0.50104679  1
  V  V65  1  0.25562969  0.49334108  0.75162202  1
  V  V66  1  0.49400668  0.12525060  0.62654593  1
  V  V67  1  0.49671083  0.87168456  0.87633345  1
  V  V68  1  0.24725846  0.62482620  0.37111849  1
  V  V69  1  0.57363292  0.69154034  0.43032316  1
  V  V70  1  0.86649200  0.00516654  0.37700991  1
  V  V71  1  0.25389507  0.01116599  0.75327477  1
  V  V72  1  0.63312647  0.37185125  0.73692596  1
  V  V73  1  0.36765840  0.73697893  0.12720993  1
  V  V74  1  0.75960346  0.75720340  0.00457477  1
  V  V75  1  0.62326005  0.00261556  0.62643407  1
  V  V76  1  0.25445101  0.24665324  -0.00999712  1
  V  V77  1  0.87062449  0.25972533  0.62979807  1
  V  V78  1  0.62632406  0.51977346  0.61593162  1
  V  V79  1  0.87347712  0.74744738  0.62531533  1
  V  V80  1  0.37501548  0.24426985  0.12629253  1
  V  V81  1  0.77076965  0.50247985  0.25112878  1
  V  V82  1  0.50531026  0.12630640  0.12268049  1
  V  V83  1  -0.00197842  0.87289155  0.37207247  1
  V  V84  1  -0.00891837  0.62753463  0.13584858  1
  Zn  Zn85  1  0.74353463  0.12286209  0.88094979  1
  Zn  Zn86  1  0.00164271  0.36839191  0.37736624  1
  Zn  Zn87  1  0.12537790  0.36871330  0.74586531  1
  Zn  Zn88  1  0.87155815  0.62429878  0.75232110  1
  Zn  Zn89  1  0.75515127  0.49816223  0.73994780  1
  Zn  Zn90  1  0.74537914  0.74422805  0.49522445  1
  Zn  Zn91  1  -0.00107780  0.50075090  -0.00178496  1
  Zn  Zn92  1  0.41783647  0.56831485  0.80526912  1
  Zn  Zn93  1  0.87260670  0.25217536  0.12973179  1
  Zn  Zn94  1  0.24806347  0.87103819  0.12194751  1
  Zn  Zn95  1  0.63099332  0.86441756  0.24743760  1
  Zn  Zn96  1  0.00370253  0.24353874  0.26147057  1
  Zn  Zn97  1  0.75418287  0.62557508  0.87961468  1
  Zn  Zn98  1  0.50051896  0.73573952  0.75056820  1
  Zn  Zn99  1  0.62867487  0.12296491  0.49626213  1
  Zn  Zn100  1  0.50233733  0.51201192  0.50172042  1
  Zn  Zn101  1  0.62957583  0.37598286  0.24967456  1
  Zn  Zn102  1  0.74987716  0.37845665  0.12654091  1
  Zn  Zn103  1  0.12829759  0.75273502  0.87929639  1
  Zn  Zn104  1  0.62773061  0.74709947  0.88050725  1
  Zn  Zn105  1  -0.00004013  0.62295984  0.62699881  1
  Zn  Zn106  1  0.12493435  0.00347239  0.62525355  1
  Zn  Zn107  1  0.19059347  0.18529768  0.18288570  1
  Zn  Zn108  1  0.18631749  0.18862563  0.68249128  1
  Zn  Zn109  1  0.18461028  0.68765972  0.18599851  1
  Zn  Zn110  1  0.18868104  0.68450050  0.69073564  1
  Zn  Zn111  1  0.68635357  0.18534161  0.18798061  1
  Zn  Zn112  1  0.68763233  0.18800369  0.68783669  1
  Zn  Zn113  1  0.69358415  0.68102857  0.18702455  1
  Zn  Zn114  1  0.69131927  0.68637353  0.69251897  1
  Zn  Zn115  1  0.31200364  0.31517313  0.31146181  1
  Zn  Zn116  1  0.31374558  0.31540413  0.81292248  1
  Zn  Zn117  1  0.31532438  0.81346286  0.30713239  1
  Zn  Zn118  1  0.31286534  0.81419236  0.81407099  1
  Zn  Zn119  1  0.81177635  0.31427586  0.31371105  1
  Zn  Zn120  1  0.81001217  0.31131134  0.81732711  1
  Zn  Zn121  1  0.81246828  0.81044176  0.31285385  1
  Zn  Zn122  1  0.81148947  0.81195279  0.81651113  1
  Zn  Zn123  1  0.18759214  0.43848590  0.43743264  1
  Zn  Zn124  1  0.18946473  0.43797866  0.93433779  1
  Zn  Zn125  1  0.18587089  0.94231294  0.43690219  1
  Zn  Zn126  1  0.18817227  0.93909069  0.93450780  1
  Zn  Zn127  1  0.68950725  0.44235783  0.43570072  1
  Zn  Zn128  1  0.68710097  0.43380406  0.93962491  1
  Zn  Zn129  1  0.68806018  0.93667976  0.43866760  1
  Zn  Zn130  1  0.68689409  0.93432678  0.94140716  1
  Zn  Zn131  1  0.31603305  0.06266118  0.06138827  1
  Zn  Zn132  1  0.31104610  0.06476030  0.56214694  1
  Zn  Zn133  1  0.30955378  0.56473857  0.05589332  1
  Zn  Zn134  1  0.30901165  0.55932810  0.56362806  1
  Zn  Zn135  1  0.81125913  0.06265949  0.06510120  1
  Zn  Zn136  1  0.81219859  0.06596752  0.56576611  1
  Zn  Zn137  1  0.80924646  0.56358211  0.06223902  1
  Zn  Zn138  1  0.80767162  0.56308221  0.56194344  1
  Zn  Zn139  1  0.43576240  0.43119196  0.18802491  1
  Zn  Zn140  1  0.44646192  0.43516289  0.68139721  1
  Zn  Zn141  1  0.43932380  0.93239468  0.18689655  1
  Zn  Zn142  1  0.43499412  0.93533941  0.69029028  1
  Zn  Zn143  1  0.94226397  0.43608265  0.18460289  1
  Zn  Zn144  1  0.94106330  0.43817152  0.68607871  1
  Zn  Zn145  1  0.93821987  0.93997992  0.18967747  1
  Zn  Zn146  1  0.93687210  0.93998301  0.69093499  1
  Zn  Zn147  1  0.06125962  0.06034752  0.31302153  1
  Zn  Zn148  1  0.06167417  0.06225896  0.81171607  1
  Zn  Zn149  1  0.06251616  0.55809178  0.31141085  1
  Zn  Zn150  1  0.06314313  0.56083594  0.81418533  1
  Zn  Zn151  1  0.56359161  0.06409302  0.30840011  1
  Zn  Zn152  1  0.55922865  0.06392437  0.81295342  1
  Zn  Zn153  1  0.56107241  0.55793994  0.30532467  1
  Zn  Zn154  1  0.58376742  0.56264260  0.80880358  1
  Zn  Zn155  1  0.43510616  0.18738928  0.43859108  1
  Zn  Zn156  1  0.44108458  0.19061991  0.93945567  1
  Zn  Zn157  1  0.41404642  0.69171535  0.43232636  1
  Zn  Zn158  1  0.43903261  0.69050584  0.94543821  1
  Zn  Zn159  1  0.93672111  0.19352778  0.43606876  1
  Zn  Zn160  1  0.93726151  0.18823503  0.93904271  1
  Zn  Zn161  1  0.93983526  0.68929077  0.43926197  1
  Zn  Zn162  1  0.93772627  0.68562457  0.94320603  1
  Zn  Zn163  1  0.06225669  0.31167585  0.05901247  1
  Zn  Zn164  1  0.05812927  0.31134513  0.56001865  1
  Zn  Zn165  1  0.05686367  0.81168528  0.06615661  1
  Zn  Zn166  1  0.06093101  0.81374494  0.56407554  1
  Zn  Zn167  1  0.56315369  0.31826367  0.06147122  1
  Zn  Zn168  1  0.55939830  0.31046182  0.55835908  1
  Zn  Zn169  1  0.56268041  0.81017235  0.06137808  1
  Zn  Zn170  1  0.55808030  0.81722185  0.56793914  1
  O  O171  1  0.11880773  0.11988294  0.11597732  1
  O  O172  1  0.11567621  0.12508522  0.61464373  1
  O  O173  1  0.11962867  0.61949717  0.11778526  1
  O  O174  1  0.12408705  0.61865602  0.61741594  1
  O  O175  1  0.61172572  0.11480263  0.13054059  1
  O  O176  1  0.61254553  0.12027158  0.62475487  1
  O  O177  1  0.62841332  0.61079301  0.11759011  1
  O  O178  1  0.62603528  0.61899387  0.62305187  1
  O  O179  1  0.37896427  0.38355704  0.38243156  1
  O  O180  1  0.38679236  0.37004320  0.88305552  1
  O  O181  1  0.38381258  0.88035433  0.38000045  1
  O  O182  1  0.38121360  0.88014253  0.88273301  1
  O  O183  1  0.87780618  0.37346387  0.39098399  1
  O  O184  1  0.88271582  0.37657428  0.88116119  1
  O  O185  1  0.88159691  0.88169657  0.37983402  1
  O  O186  1  0.88468722  0.88624113  0.86889677  1
  O  O187  1  0.25479069  0.00825567  0.36801398  1
  O  O188  1  0.25947735  -0.00205802  0.86568629  1
  O  O189  1  0.25525655  0.50290706  0.36610204  1
  O  O190  1  0.24503322  0.50902562  0.86034380  1
  O  O191  1  0.76064373  -0.00197382  0.37002815  1
  O  O192  1  0.75573666  0.00102750  0.87348395  1
  O  O193  1  0.74750734  0.51129631  0.36161639  1
  O  O194  1  0.76404187  0.49372811  0.87411798  1
  O  O195  1  0.24479079  0.49600926  0.12988970  1
  O  O196  1  0.24046607  0.50623748  0.63995705  1
  O  O197  1  0.24471493  1.00074868  0.13247257  1
  O  O198  1  0.25076031  0.98947693  0.63024175  1
  O  O199  1  0.75071696  0.50037698  0.14111175  1
  O  O200  1  0.73383981  0.50071125  0.62337578  1
  O  O201  1  0.73978082  1.00332527  0.13250353  1
  O  O202  1  0.74444594  0.99510304  0.63152618  1
  O  O203  1  0.01584167  0.37395480  0.24873377  1
  O  O204  1  0.00345299  0.37422708  0.76204710  1
  O  O205  1  0.01123136  0.88486090  0.26100526  1
  O  O206  1  0.00644864  0.86941913  0.75765363  1
  O  O207  1  0.50034950  0.36458582  0.26139226  1
  O  O208  1  0.50874429  0.36436852  0.75451437  1
  O  O209  1  0.50072666  0.86203901  0.25885033  1
  O  O210  1  0.50709622  0.87440275  0.75904393  1
  O  O211  1  0.49904992  0.13744481  0.24337942  1
  O  O212  1  0.50176660  0.13846698  0.74266775  1
  O  O213  1  0.49643630  0.64041167  0.25622862  1
  O  O214  1  0.50259738  0.62402133  0.76163711  1
  O  O215  1  0.99217251  0.12222517  0.24273154  1
  O  O216  1  0.99037798  0.12008599  0.74090944  1
  O  O217  1  1.00803249  0.62316391  0.23428859  1
  O  O218  1  1.00033603  0.63894243  0.75023118  1
  O  O219  1  0.36886164  0.25493217  0.00526959  1
  O  O220  1  0.36560708  0.25639152  0.50517392  1
  O  O221  1  0.37948390  0.75939490  0.01601097  1
  O  O222  1  0.36437042  0.75956459  0.50882512  1
  O  O223  1  0.86785585  0.25754667  0.00219702  1
  O  O224  1  0.86736715  0.25920420  0.50771102  1
  O  O225  1  0.86513865  0.74834056  0.00831960  1
  O  O226  1  0.87665018  0.75814593  0.51038341  1
  O  O227  1  0.13744100  0.24452478  0.50592495  1
  O  O228  1  0.13381313  0.24249224  0.99313463  1
  O  O229  1  0.12871872  0.74607796  0.49495344  1
  O  O230  1  0.12404351  0.74032942  1.00201760  1
  O  O231  1  0.63331742  0.24953792  0.49306379  1
  O  O232  1  0.63229814  0.25592300  0.99190397  1
  O  O233  1  0.62458636  0.75141677  0.49722080  1
  O  O234  1  0.63424028  0.73767686  1.00666194  1
  O  O235  1  0.49665346  0.24536872  0.13047127  1
  O  O236  1  0.49098806  0.24341673  0.62951466  1
  O  O237  1  0.48977892  0.75017080  0.13230942  1
  O  O238  1  0.48345143  0.75498968  0.62761481  1
  O  O239  1  1.00111902  0.23687996  0.12708262  1
  O  O240  1  0.98965508  0.23823019  0.62080106  1
  O  O241  1  0.98824286  0.73757104  0.12049812  1
  O  O242  1  0.99175007  0.75147203  0.63445279  1
  O  O243  1  0.00655192  0.25365787  0.37486927  1
  O  O244  1  0.01096332  0.25668697  0.88113138  1
  O  O245  1  0.00587848  0.76551662  0.38061665  1
  O  O246  1  -0.00042073  0.75820391  0.86965873  1
  O  O247  1  0.50241050  0.25484060  0.36881464  1
  O  O248  1  0.50513146  0.25542642  0.86687319  1
  O  O249  1  0.50386351  0.75294894  0.37332538  1
  O  O250  1  0.50198027  0.76227831  0.87622213  1
  O  O251  1  0.24168064  0.13120976  0.49243025  1
  O  O252  1  0.24117928  0.13256653  1.00470880  1
  O  O253  1  0.24251232  0.63047518  0.49294466  1
  O  O254  1  0.23778358  0.61723695  0.98363524  1
  O  O255  1  0.74937711  0.13827910  0.50186940  1
  O  O256  1  0.75439934  0.13936369  0.99984119  1
  O  O257  1  0.75685871  0.62485347  0.47966932  1
  O  O258  1  0.74389506  0.63545515  1.00086641  1
  O  O259  1  0.25611292  0.36669420  0.00301882  1
  O  O260  1  0.25789328  0.36608962  0.49338643  1
  O  O261  1  0.26270932  0.88019122  0.00001798  1
  O  O262  1  0.25095304  0.87261298  0.50749390  1
  O  O263  1  0.75945376  0.36450736  0.00120287  1
  O  O264  1  0.76182685  0.36871704  0.49727132  1
  O  O265  1  0.74180969  0.85635197  0.00444687  1
  O  O266  1  0.75618510  0.87096355  0.50629466  1
  O  O267  1  0.13140309  0.49098370  0.23787220  1
  O  O268  1  0.13081053  0.49781365  0.74182810  1
  O  O269  1  0.13417712  0.99317261  0.24661669  1
  O  O270  1  0.13025065  0.98979607  0.74886061  1
  O  O271  1  0.62708848  0.49768496  0.23590233  1
  O  O272  1  0.62894666  0.48543638  0.73486399  1
  O  O273  1  0.63359356  0.99928142  0.24348872  1
  O  O274  1  0.62783678  0.99167168  0.74739684  1
  O  O275  1  0.36276292  -0.00532634  0.25266789  1
  O  O276  1  0.36597685  -0.00500247  0.76068193  1
  O  O277  1  0.36419536  0.49027872  0.25746258  1
  O  O278  1  0.36133627  0.49225232  0.74135830  1
  O  O279  1  0.86831612  0.00503594  0.25748725  1
  O  O280  1  0.86971242  0.00872134  0.76024650  1
  O  O281  1  0.86949899  0.49625552  0.25115962  1
  O  O282  1  0.87467650  0.49983989  0.75650744  1
  O  O283  1  0.12953095  0.37948397  0.35666456  1
  O  O284  1  0.11693023  0.36519170  0.87703590  1
  O  O285  1  0.11813419  0.87352661  0.36962221  1
  O  O286  1  0.11773865  0.87366077  0.86727186  1
  O  O287  1  0.61628223  0.36679551  0.37522742  1
  O  O288  1  0.61744008  0.36766802  0.86708363  1
  O  O289  1  0.61262046  0.87890879  0.37209950  1
  O  O290  1  0.61596626  0.87478021  0.86907200  1
  O  O291  1  0.38502879  0.13710499  0.12091842  1
  O  O292  1  0.38576609  0.13384367  0.61931690  1
  O  O293  1  0.36963171  0.63766177  0.12044700  1
  O  O294  1  0.36798164  0.64158682  0.61928078  1
  O  O295  1  0.88329402  0.12557505  0.13421894  1
  O  O296  1  0.88055639  0.13288498  0.63365491  1
  O  O297  1  0.88891160  0.62658707  0.12273328  1
  O  O298  1  0.87640172  0.63728958  0.62627772  1
  O  O299  1  0.25842454  0.25243469  0.11525381  1
  O  O300  1  0.26151351  0.24551539  0.61581462  1
  O  O301  1  0.26290052  0.75314752  0.13230747  1
  O  O302  1  0.25422656  0.76040238  0.62330894  1
  O  O303  1  0.74910272  0.25448202  0.11993705  1
  O  O304  1  0.75966261  0.24632598  0.61743317  1
  O  O305  1  0.76641162  0.74473798  0.11953015  1
  O  O306  1  0.75767521  0.75608018  0.62263932  1
  O  O307  1  0.25602041  0.24017930  0.38182991  1
  O  O308  1  0.24510546  0.25225048  0.88521863  1
  O  O309  1  0.24604983  0.74632849  0.37905168  1
  O  O310  1  0.24649284  0.73521589  0.86761603  1
  O  O311  1  0.74063583  0.25426728  0.38357134  1
  O  O312  1  0.73990240  0.24820454  0.88426971  1
  O  O313  1  0.75480762  0.73233805  0.37319599  1
  O  O314  1  0.74994638  0.74977652  0.88969514  1
  O  O315  1  0.00646864  0.11938391  0.00763611  1
  O  O316  1  0.00548145  0.12194515  0.50521144  1
  O  O317  1  0.01042297  0.62080506  0.00798074  1
  O  O318  1  0.00681708  0.61747507  0.50215916  1
  O  O319  1  0.49754309  0.11642455  0.00940072  1
  O  O320  1  0.50161743  0.11935847  0.50779237  1
  O  O321  1  0.51872668  0.62739238  -0.00137362  1
  O  O322  1  0.50565720  0.63471503  0.48256725  1
  O  O323  1  0.49001221  0.37122119  0.48685717  1
  O  O324  1  0.49258793  0.37105015  0.98724897  1
  O  O325  1  0.49457990  0.88223395  0.49235850  1
  O  O326  1  0.49230857  0.88191460  0.99390218  1
  O  O327  1  0.98841913  0.38112592  0.50091989  1
  O  O328  1  0.99175141  0.37557501  0.99180216  1
  O  O329  1  0.99438322  0.88333211  0.49554927  1
  O  O330  1  1.00648155  0.88196633  0.98809906  1
  O  O331  1  0.49268963  0.49254619  0.37612305  1
  O  O332  1  0.50115162  0.48974511  0.86299929  1
  O  O333  1  0.49488820  0.99412579  0.37564127  1
  O  O334  1  0.49507242  0.99272097  0.88143763  1
  O  O335  1  1.00870050  0.49383576  0.39071592  1
  O  O336  1  0.99110990  0.49037949  0.87681430  1
  O  O337  1  0.99114814  0.99199818  0.38189274  1
  O  O338  1  0.99251314  0.99372949  0.87919190  1
  O  O339  1  0.00555597  0.00945849  0.12027639  1
  O  O340  1  -0.00237851  0.01111147  0.61879366  1
  O  O341  1  0.00784882  0.50969233  0.12203958  1
  O  O342  1  0.00886576  0.50279758  0.61584429  1
  O  O343  1  0.50164444  0.00813136  0.11945733  1
  O  O344  1  0.50102281  0.00707406  0.62228888  1
  O  O345  1  0.50952817  0.49732070  0.12838606  1
  O  O346  1  0.51808010  0.49658407  0.61825996  1
  O  O347  1  0.24175363  0.38182580  0.24164721  1
  O  O348  1  0.24379987  0.38886830  0.75614101  1
  O  O349  1  0.24121862  0.88517813  0.25046819  1
  O  O350  1  0.24219556  0.87989379  0.74413616  1
  O  O351  1  0.74955446  0.38918116  0.25136423  1
  O  O352  1  0.73544646  0.37266058  0.75314618  1
  O  O353  1  0.74817848  0.88767137  0.25481441  1
  O  O354  1  0.74213260  0.88070266  0.74665172  1
  O  O355  1  0.24340352  0.11744632  0.25986901  1
  O  O356  1  0.24467962  0.10959698  0.74156090  1
  O  O357  1  0.24124640  0.61142049  0.25415183  1
  O  O358  1  0.24651729  0.61502089  0.76389424  1
  O  O359  1  0.76204513  0.11508826  0.24681344  1
  O  O360  1  0.75732389  0.11738629  0.75265017  1
  O  O361  1  0.75205626  0.61249134  0.26019166  1
  O  O362  1  0.75280911  0.61900835  0.75951304  1
  O  O363  1  0.36421713  0.11645226  0.37919441  1
  O  O364  1  0.38106797  0.11213153  0.87962308  1
  O  O365  1  0.36404378  0.60943192  0.37468255  1
  O  O366  1  0.36055869  0.62598107  0.88651669  1
  O  O367  1  0.88040954  0.11476585  0.36771128  1
  O  O368  1  0.87439179  0.11942231  0.86757775  1
  O  O369  1  0.87400981  0.62410600  0.37173151  1
  O  O370  1  0.87738487  0.61277627  0.87601121  1
  O  O371  1  0.13052776  0.38189879  0.12775945  1
  O  O372  1  0.12112528  0.38539840  0.62502580  1
  O  O373  1  0.12496632  0.88063713  0.13247975  1
  O  O374  1  0.13207551  0.87849501  0.63205608  1
  O  O375  1  0.62794802  0.38941438  0.12509705  1
  O  O376  1  0.62270705  0.36526105  0.63695466  1
  O  O377  1  0.61361826  0.89058503  0.12868390  1
  O  O378  1  0.62812553  0.88225388  0.63383249  1
  O  O379  1  0.12848235  0.26445834  0.24084252  1
  O  O380  1  0.13268177  0.24815997  0.76427923  1
  O  O381  1  0.12951249  0.76398626  0.25572104  1
  O  O382  1  0.11735538  0.76159222  0.74934159  1
  O  O383  1  0.61805986  0.25336574  0.25658770  1
  O  O384  1  0.61869437  0.25744267  0.75533701  1
  O  O385  1  0.61130736  0.74916489  0.23709011  1
  O  O386  1  0.62394050  0.76273092  0.75235887  1
  O  O387  1  0.38260886  0.25675279  0.23914575  1
  O  O388  1  0.38172445  0.25699705  0.73912956  1
  O  O389  1  0.38545756  0.75440518  0.23582857  1
  O  O390  1  0.37489145  0.75430817  0.73668605  1
  O  O391  1  0.87701396  0.24156737  0.25012842  1
  O  O392  1  0.86803383  0.23963734  0.74523353  1
  O  O393  1  0.87614036  0.75392395  0.23591938  1
  O  O394  1  0.88254684  0.75182605  0.74324437  1
  O  O395  1  0.37735666  0.49320603  0.49456864  1
  O  O396  1  0.37129648  0.48474076  1.00430082  1
  O  O397  1  0.37974095  0.99569833  0.49405264  1
  O  O398  1  0.38465768  0.99323968  0.99510805  1
  O  O399  1  0.88144576  0.48671710  0.51003432  1
  O  O400  1  0.87480791  0.48873515  0.99392968  1
  O  O401  1  0.87686407  0.99712740  0.49416038  1
  O  O402  1  0.87939974  1.00638254  0.98839340  1
  O  O403  1  0.12095743  0.00711554  0.00358264  1
  O  O404  1  0.11802410  0.01033637  0.50290608  1
  O  O405  1  0.12595869  0.50335701  0.01096097  1
  O  O406  1  0.12151690  0.50388908  0.50752375  1
  O  O407  1  0.61266106  -0.00244145  0.00565528  1
  O  O408  1  0.61816083  0.00142319  0.50750711  1
  O  O409  1  0.63364223  0.50920735  0.01357630  1
  O  O410  1  0.62225870  0.49711271  0.51133961  1
  O  O411  1  0.37112231  0.36329627  0.11671372  1
  O  O412  1  0.38138080  0.36629701  0.61098689  1
  O  O413  1  0.37222914  0.87030374  0.11676110  1
  O  O414  1  0.36617988  0.87065235  0.61908687  1
  O  O415  1  0.87623283  0.37184281  0.11518287  1
  O  O416  1  0.88000129  0.36304094  0.61951519  1
  O  O417  1  0.88602346  0.86266463  0.12400416  1
  O  O418  1  0.87032546  0.86861616  0.62319818  1
  O  O419  1  0.13228538  0.11978253  0.38597115  1
  O  O420  1  0.11818788  0.13010874  0.88701262  1
  O  O421  1  0.12756339  0.63045613  0.38078092  1
  O  O422  1  0.12971752  0.62815298  0.88313973  1
  O  O423  1  0.61812271  0.13939011  0.37686837  1
  O  O424  1  0.62349064  0.14084065  0.86981281  1
  O  O425  1  0.62716406  0.62840015  0.37356914  1
  O  O426  1  0.63370673  0.62421993  0.89156669  1
