# generated using pymatgen
data_V85Zn86O256
_symmetry_space_group_name_H-M   'P 1'
_cell_length_a   16.93697454
_cell_length_b   16.92809547
_cell_length_c   16.93241797
_cell_angle_alpha   89.93468287
_cell_angle_beta   90.02295603
_cell_angle_gamma   90.00169399
_symmetry_Int_Tables_number   1
_chemical_formula_structural   V85Zn86O256
_chemical_formula_sum   'V85 Zn86 O256'
_cell_volume   4854.70223432
_cell_formula_units_Z   1
loop_
 _symmetry_equiv_pos_site_id
 _symmetry_equiv_pos_as_xyz
  1  'x, y, z'
loop_
 _atom_site_type_symbol
 _atom_site_label
 _atom_site_symmetry_multiplicity
 _atom_site_fract_x
 _atom_site_fract_y
 _atom_site_fract_z
 _atom_site_occupancy
  V  V0  1  0.75619885  0.75504533  0.49904853  1
  V  V1  1  0.50012036  0.12782629  0.12132022  1
  V  V2  1  0.00642721  0.12555464  0.12633175  1
  V  V3  1  0.00456901  0.74474896  0.25426056  1
  V  V4  1  0.74874373  0.00680838  0.75422957  1
  V  V5  1  -0.00242224  0.50350379  0.49198458  1
  V  V6  1  0.12422416  0.50317772  0.62625405  1
  V  V7  1  -0.00128757  0.62618651  0.62455925  1
  V  V8  1  0.36861255  0.12123192  0.75071696  1
  V  V9  1  0.75574260  0.74840348  -0.01171475  1
  V  V10  1  0.63176591  0.62327385  -0.00774150  1
  V  V11  1  0.12668978  0.86918236  0.25306484  1
  V  V12  1  0.37587499  0.25011941  0.62662530  1
  V  V13  1  0.37475346  0.75676181  0.61758268  1
  V  V14  1  0.49391855  0.37958483  0.37217995  1
  V  V15  1  0.49961412  0.49693272  0.50019878  1
  V  V16  1  0.00027391  0.86928086  0.38070863  1
  V  V17  1  0.24334249  0.11766846  0.87814521  1
  V  V18  1  0.00231958  0.00556285  0.00196730  1
  V  V19  1  -0.00061311  0.13188035  0.63174831  1
  V  V20  1  0.87723849  0.87622490  0.00366886  1
  V  V21  1  0.26954651  0.74876026  0.00368791  1
  V  V22  1  0.74647527  0.24641243  -0.01062070  1
  V  V23  1  0.44177234  -0.05968274  0.04740233  1
  V  V24  1  0.62838160  0.87285499  0.25074107  1
  V  V25  1  0.25925506  0.49887473  0.25094702  1
  V  V26  1  0.87496978  0.37957530  0.49376726  1
  V  V27  1  0.37154569  0.38207101  0.49442872  1
  V  V28  1  0.87644721  0.74627072  0.12910597  1
  V  V29  1  0.62251040  0.25035267  0.37440315  1
  V  V30  1  0.87399206  0.24860719  0.12753864  1
  V  V31  1  0.75338296  0.60993961  0.37415449  1
  V  V32  1  0.74171505  0.38630278  0.62548579  1
  V  V33  1  0.25079367  0.62199563  0.37509727  1
  V  V34  1  0.24819240  -0.00168851  0.25083281  1
  V  V35  1  0.49830826  0.62408253  0.62356623  1
  V  V36  1  0.12091239  0.24708508  0.88091869  1
  V  V37  1  0.50616128  0.87343904  0.86206110  1
  V  V38  1  0.62725803  0.74981146  0.37563473  1
  V  V39  1  0.36815033  -0.01319176  0.86750773  1
  V  V40  1  0.75206936  0.87392908  0.12685766  1
  V  V41  1  0.49771452  -0.00278494  0.50116171  1
  V  V42  1  0.24826323  0.37573090  0.62525093  1
  V  V43  1  0.62887702  0.00029177  0.12047488  1
  V  V44  1  0.75000465  0.37940344  0.13078479  1
  V  V45  1  -0.00251012  0.37634360  0.87017300  1
  V  V46  1  0.75018594  0.87743095  0.62820726  1
  V  V47  1  0.86644778  0.62565875  0.75077915  1
  V  V48  1  0.75091963  0.24998402  0.50099073  1
  V  V49  1  0.62548196  0.62180770  0.50264520  1
  V  V50  1  0.49915254  0.87365298  0.38110708  1
  V  V51  1  0.24893709  0.62230198  0.87188460  1
  V  V52  1  0.87156894  0.01093210  0.87726741  1
  V  V53  1  0.00100984  -0.00104837  0.50317380  1
  V  V54  1  0.24448989  0.75746918  0.49293017  1
  V  V55  1  0.24523130  0.88279790  0.62926941  1
  V  V56  1  0.24468263  0.12854943  0.37394507  1
  V  V57  1  0.00755408  0.37268539  0.37611372  1
  V  V58  1  0.87220572  0.50580132  0.87654394  1
  V  V59  1  0.63015899  0.38150820  0.25229443  1
  V  V60  1  0.11664208  0.62487519  -0.00025521  1
  V  V61  1  0.87448409  -0.00551139  0.37913687  1
  V  V62  1  0.87560908  0.25442839  0.63284078  1
  V  V63  1  0.38681289  0.38051789  -0.00573711  1
  V  V64  1  0.37609636  0.24887587  0.12291719  1
  V  V65  1  0.12688312  -0.00273274  0.12261404  1
  V  V66  1  0.00852043  0.24798965  0.25638398  1
  V  V67  1  0.00208643  0.87601379  0.87534026  1
  V  V68  1  0.75097403  0.12415059  0.37301340  1
  V  V69  1  0.88037931  0.37993530  0.00130812  1
  V  V70  1  0.62443816  -0.00229270  0.63075353  1
  V  V71  1  0.49646347  0.62576260  0.12400804  1
  V  V72  1  0.12405329  0.12360430  0.50458436  1
  V  V73  1  0.62288504  0.12591911  0.49987781  1
  V  V74  1  0.62544534  0.50230398  0.12761936  1
  V  V75  1  0.49198813  0.74844256  0.24941778  1
  V  V76  1  0.62505607  0.12441535  -0.01312019  1
  V  V77  1  0.24936693  0.37540384  0.11982471  1
  V  V78  1  0.11962707  0.36655775  0.74834657  1
  V  V79  1  0.11894351  0.49842491  0.12268146  1
  V  V80  1  0.87818915  0.76368171  0.62438974  1
  V  V81  1  0.87389612  0.61081839  0.25609523  1
  V  V82  1  0.00598246  0.74961839  0.75244331  1
  V  V83  1  0.24340912  0.25312023  0.49418871  1
  V  V84  1  0.37127554  -0.00257260  0.38222693  1
  Zn  Zn85  1  0.37570342  0.12702142  0.25140714  1
  Zn  Zn86  1  0.61070300  0.38186804  0.77491920  1
  Zn  Zn87  1  0.26152476  0.86728287  0.12295454  1
  Zn  Zn88  1  0.24568932  0.24695041  -0.00065445  1
  Zn  Zn89  1  0.12270688  0.62978634  0.49237623  1
  Zn  Zn90  1  0.73709823  0.50650689  0.75139033  1
  Zn  Zn91  1  0.87682449  0.12340475  0.25234482  1
  Zn  Zn92  1  0.14121190  0.90044742  0.75560911  1
  Zn  Zn93  1  0.12687746  0.75350393  0.87892177  1
  Zn  Zn94  1  0.39437087  0.49104324  0.86890235  1
  Zn  Zn95  1  0.50525427  0.75235732  0.74451179  1
  Zn  Zn96  1  0.37605498  0.62286627  0.25057207  1
  Zn  Zn97  1  0.25111133  0.49804160  0.75248349  1
  Zn  Zn98  1  0.63469429  0.75302249  0.86325505  1
  Zn  Zn99  1  -0.00289650  0.61749970  0.12400930  1
  Zn  Zn100  1  0.50031810  0.25084722  0.24769265  1
  Zn  Zn101  1  0.12915588  0.37319590  0.25359616  1
  Zn  Zn102  1  0.87295924  0.13560765  0.75854259  1
  Zn  Zn103  1  0.49934783  0.12422547  0.63113858  1
  Zn  Zn104  1  0.37250189  0.62298386  0.74516668  1
  Zn  Zn105  1  0.50471583  0.24913709  0.77649759  1
  Zn  Zn106  1  0.75183520  -0.00020979  0.25102756  1
  Zn  Zn107  1  0.18758030  0.18709113  0.18677709  1
  Zn  Zn108  1  0.18853401  0.18670888  0.68893379  1
  Zn  Zn109  1  0.19061324  0.68520161  0.18315269  1
  Zn  Zn110  1  0.18668712  0.69142420  0.68450630  1
  Zn  Zn111  1  0.68495154  0.19098997  0.18650023  1
  Zn  Zn112  1  0.68879315  0.18776955  0.68954379  1
  Zn  Zn113  1  0.69068702  0.68583679  0.19016104  1
  Zn  Zn114  1  0.68381737  0.68994703  0.68656036  1
  Zn  Zn115  1  0.31217995  0.31158271  0.30884607  1
  Zn  Zn116  1  0.31036041  0.31003146  0.81325008  1
  Zn  Zn117  1  0.31323920  0.81364716  0.31584002  1
  Zn  Zn118  1  0.31484362  0.80306328  0.80975964  1
  Zn  Zn119  1  0.81662942  0.31330767  0.31395535  1
  Zn  Zn120  1  0.80568811  0.32048531  0.81163119  1
  Zn  Zn121  1  0.81668503  0.80900344  0.31387614  1
  Zn  Zn122  1  0.82086448  0.82197453  0.80768104  1
  Zn  Zn123  1  0.18521241  0.44321566  0.43602266  1
  Zn  Zn124  1  0.18657976  0.43863466  0.93890082  1
  Zn  Zn125  1  0.18333765  0.93691685  0.44096078  1
  Zn  Zn126  1  0.19107156  0.93171244  0.94263021  1
  Zn  Zn127  1  0.68251482  0.43558665  0.44384945  1
  Zn  Zn128  1  0.69544532  0.44210814  0.94191314  1
  Zn  Zn129  1  0.68852616  0.93668396  0.44185467  1
  Zn  Zn130  1  0.68709264  0.93727619  0.93792910  1
  Zn  Zn131  1  0.30474574  0.06550395  0.06158647  1
  Zn  Zn132  1  0.31152374  0.06354231  0.56188588  1
  Zn  Zn133  1  0.31056931  0.56188355  0.05937616  1
  Zn  Zn134  1  0.31095581  0.56486766  0.55965658  1
  Zn  Zn135  1  0.81269305  0.06588372  0.06380196  1
  Zn  Zn136  1  0.81614427  0.06256272  0.56275032  1
  Zn  Zn137  1  0.81252154  0.56151715  0.06436559  1
  Zn  Zn138  1  0.81624951  0.56634773  0.56129431  1
  Zn  Zn139  1  0.44187255  0.43666758  0.18030067  1
  Zn  Zn140  1  0.43525872  0.44086225  0.68733917  1
  Zn  Zn141  1  0.44071166  0.94107919  0.20988318  1
  Zn  Zn142  1  0.43168977  0.93769505  0.68516134  1
  Zn  Zn143  1  0.93899701  0.43395473  0.19054040  1
  Zn  Zn144  1  0.93575005  0.43932615  0.68631887  1
  Zn  Zn145  1  0.93844182  0.93661849  0.19370819  1
  Zn  Zn146  1  0.96582441  0.95724638  0.70414502  1
  Zn  Zn147  1  0.06419206  0.06060222  0.31530041  1
  Zn  Zn148  1  0.06170846  0.06645126  0.81149757  1
  Zn  Zn149  1  0.07073580  0.56163080  0.31070930  1
  Zn  Zn150  1  0.05984179  0.55965180  0.81334779  1
  Zn  Zn151  1  0.56222047  0.06129385  0.30959977  1
  Zn  Zn152  1  0.55197639  0.05704713  0.81247789  1
  Zn  Zn153  1  0.56320598  0.56139421  0.31428091  1
  Zn  Zn154  1  0.56342085  0.55756377  0.81545369  1
  Zn  Zn155  1  0.43498167  0.19016716  0.43995373  1
  Zn  Zn156  1  0.42892870  0.17653174  0.94373041  1
  Zn  Zn157  1  0.43207930  0.68620116  0.43690364  1
  Zn  Zn158  1  0.45094807  0.66668385  0.92607884  1
  Zn  Zn159  1  0.93579368  0.18892633  0.43991690  1
  Zn  Zn160  1  0.94124662  0.19229994  0.94111392  1
  Zn  Zn161  1  0.93543659  0.68733265  0.43652116  1
  Zn  Zn162  1  0.93865829  0.68600041  0.93740904  1
  Zn  Zn163  1  0.06144565  0.31375823  0.06171524  1
  Zn  Zn164  1  0.06244174  0.31201570  0.56064972  1
  Zn  Zn165  1  0.06509716  0.80931208  0.06482953  1
  Zn  Zn166  1  0.06655999  0.81496966  0.56414753  1
  Zn  Zn167  1  0.56205368  0.31108742  -0.05331332  1
  Zn  Zn168  1  0.56027677  0.31271833  0.63337567  1
  Zn  Zn169  1  0.56809701  0.80222178  0.06237564  1
  Zn  Zn170  1  0.56713671  0.81321367  0.56423288  1
  O  O171  1  0.11416838  0.11526988  0.12942426  1
  O  O172  1  0.11614160  0.13318057  0.61394402  1
  O  O173  1  0.12311790  0.61593847  0.11789029  1
  O  O174  1  0.11733357  0.61772789  0.62377633  1
  O  O175  1  0.61826342  0.11647124  0.12361503  1
  O  O176  1  0.62400814  0.11451666  0.61507923  1
  O  O177  1  0.62521613  0.61739300  0.12488907  1
  O  O178  1  0.61671452  0.63205152  0.60853130  1
  O  O179  1  0.38277709  0.36848135  0.38111672  1
  O  O180  1  0.37088906  0.37524345  0.88818563  1
  O  O181  1  0.38213957  0.88902205  0.37207095  1
  O  O182  1  0.37885984  0.88164912  0.86882487  1
  O  O183  1  0.88540825  0.37265137  0.38689558  1
  O  O184  1  0.87999937  0.37968583  0.88119541  1
  O  O185  1  0.88771695  0.88154045  0.37180348  1
  O  O186  1  0.88550255  0.88556060  0.88508718  1
  O  O187  1  0.25533502  0.00378427  0.37407174  1
  O  O188  1  0.25403879  0.00280699  0.87725413  1
  O  O189  1  0.24816655  0.50638212  0.36407845  1
  O  O190  1  0.24766026  0.51431813  0.87506135  1
  O  O191  1  0.75640439  0.00525598  0.37486603  1
  O  O192  1  0.75970447  -0.00761221  0.86683200  1
  O  O193  1  0.74611697  0.51114728  0.38227971  1
  O  O194  1  0.76787858  0.49669959  0.86947595  1
  O  O195  1  0.24301904  0.49286560  0.12941656  1
  O  O196  1  0.23977766  0.49503363  0.62376360  1
  O  O197  1  0.24182094  0.99533024  0.12961026  1
  O  O198  1  0.25567047  0.98130776  0.61755666  1
  O  O199  1  0.74526028  0.48706452  0.12369148  1
  O  O200  1  0.75771574  0.48856118  0.62359746  1
  O  O201  1  0.74491780  0.99494924  0.12938749  1
  O  O202  1  0.74518371  0.99516331  0.62802441  1
  O  O203  1  0.00158738  0.36688262  0.25993348  1
  O  O204  1  0.00686123  0.37722982  0.75615057  1
  O  O205  1  0.00671442  0.86596122  0.25861338  1
  O  O206  1  -0.01543098  0.86065779  0.76508789  1
  O  O207  1  0.50770804  0.37513091  0.25698919  1
  O  O208  1  0.50343270  0.36168535  0.72619548  1
  O  O209  1  0.50950110  0.86633606  0.25979819  1
  O  O210  1  0.49842226  0.87597091  0.75880340  1
  O  O211  1  0.49745672  0.12269926  0.23676820  1
  O  O212  1  0.48372307  0.12721350  0.74923556  1
  O  O213  1  0.49966984  0.63179449  0.24568254  1
  O  O214  1  0.50053250  0.62672768  0.72813840  1
  O  O215  1  1.00001820  0.13066986  0.24613589  1
  O  O216  1  0.99310059  0.12973365  0.73439187  1
  O  O217  1  0.99497605  0.63071464  0.25167144  1
  O  O218  1  0.99323196  0.63241622  0.74479943  1
  O  O219  1  0.36856684  0.25726110  0.01086407  1
  O  O220  1  0.36036873  0.25782321  0.50259262  1
  O  O221  1  0.36628284  0.73707375  -0.00581899  1
  O  O222  1  0.36277074  0.74882122  0.50949392  1
  O  O223  1  0.86902038  0.25333767  0.01248058  1
  O  O224  1  0.86852047  0.25962644  0.50556572  1
  O  O225  1  0.87330690  0.75294879  0.00961236  1
  O  O226  1  0.86391229  0.74500222  0.50911720  1
  O  O227  1  0.13668720  0.24459384  0.50088340  1
  O  O228  1  0.12443482  0.25427517  0.98547842  1
  O  O229  1  0.14037208  0.74714955  0.50518496  1
  O  O230  1  0.12881565  0.73861980  1.00056944  1
  O  O231  1  0.63122455  0.23452528  0.49349677  1
  O  O232  1  0.64032624  0.24048002  1.00444431  1
  O  O233  1  0.63593076  0.74534284  0.49456900  1
  O  O234  1  0.64204827  0.74444489  0.99667201  1
  O  O235  1  0.48944294  0.23866934  0.12730227  1
  O  O236  1  0.47835021  0.23938759  0.60247746  1
  O  O237  1  0.51030319  0.74068282  0.14009621  1
  O  O238  1  0.48858995  0.74557012  0.61528511  1
  O  O239  1  0.99534955  0.24216553  0.12965849  1
  O  O240  1  0.98842108  0.24345641  0.61491106  1
  O  O241  1  0.98926944  0.74818273  0.13337722  1
  O  O242  1  0.99500420  0.74822068  0.63105671  1
  O  O243  1  -0.00485273  0.25732611  0.36714847  1
  O  O244  1  0.00542427  0.26220546  0.87630740  1
  O  O245  1  -0.00257206  0.75865442  0.36884905  1
  O  O246  1  0.00146796  0.75883608  0.87100327  1
  O  O247  1  0.50482821  0.25978049  0.37446461  1
  O  O248  1  0.49664985  0.24283872  0.88683358  1
  O  O249  1  0.50619591  0.75386954  0.37231634  1
  O  O250  1  0.49624819  0.76528026  0.87198643  1
  O  O251  1  0.24252873  0.13190219  0.49560211  1
  O  O252  1  0.24914446  0.12728118  0.98409828  1
  O  O253  1  0.24795269  0.63510602  0.49237192  1
  O  O254  1  0.24245294  0.63176612  0.99133261  1
  O  O255  1  0.74362853  0.12620615  0.48964451  1
  O  O256  1  0.74319145  0.13848576  1.00734352  1
  O  O257  1  0.74366335  0.63207223  0.49569953  1
  O  O258  1  0.74301346  0.63688536  1.00841917  1
  O  O259  1  0.25292482  0.37213403  0.01073620  1
  O  O260  1  0.25200414  0.37026184  0.50137102  1
  O  O261  1  0.25113150  0.85526898  0.00356243  1
  O  O262  1  0.24636888  0.86345251  0.50642243  1
  O  O263  1  0.76136056  0.36319175  0.01057919  1
  O  O264  1  0.76040185  0.37216064  0.50222388  1
  O  O265  1  0.75796144  0.86808615  0.00820065  1
  O  O266  1  0.74975156  0.86755514  0.51268085  1
  O  O267  1  0.13736956  0.49617276  0.23988589  1
  O  O268  1  0.12271340  0.49104164  0.73824865  1
  O  O269  1  0.12845623  0.99202533  0.24189207  1
  O  O270  1  0.07565023  0.98781397  0.73629331  1
  O  O271  1  0.62567187  0.48948390  0.24644861  1
  O  O272  1  0.62478059  0.49493129  0.75146195  1
  O  O273  1  0.62534772  0.99154256  0.23819816  1
  O  O274  1  0.63245786  1.00624323  0.74091171  1
  O  O275  1  0.36524156  0.00599264  0.26207345  1
  O  O276  1  0.37363780  0.00706614  0.75667028  1
  O  O277  1  0.36286831  0.49794121  0.24136656  1
  O  O278  1  0.36926880  0.50474256  0.75320875  1
  O  O279  1  0.87442748  0.00269982  0.26357073  1
  O  O280  1  0.87138065  0.00493445  0.76250031  1
  O  O281  1  0.87888609  0.51161804  0.24792226  1
  O  O282  1  0.87518929  0.51044674  0.75573347  1
  O  O283  1  0.11235967  0.37571055  0.37557988  1
  O  O284  1  0.11765081  0.37165920  0.86797026  1
  O  O285  1  0.11667461  0.88056858  0.36126742  1
  O  O286  1  0.11373285  0.87676576  0.87243765  1
  O  O287  1  0.61838470  0.37004786  0.37084211  1
  O  O288  1  0.63334421  0.37114053  0.88505103  1
  O  O289  1  0.62101447  0.87002134  0.37195482  1
  O  O290  1  0.60907924  0.87498423  0.88089796  1
  O  O291  1  0.38031820  0.13007815  0.12266982  1
  O  O292  1  0.36945708  0.13130174  0.63411494  1
  O  O293  1  0.39325101  0.61602066  0.12353218  1
  O  O294  1  0.38110385  0.63531024  0.61996163  1
  O  O295  1  0.88589291  0.13155396  0.12942940  1
  O  O296  1  0.88064829  0.13910789  0.62122098  1
  O  O297  1  0.87672907  0.63077442  0.13408918  1
  O  O298  1  0.88230072  0.63501218  0.63108223  1
  O  O299  1  0.25451403  0.25649227  0.12328485  1
  O  O300  1  0.25629049  0.25510098  0.61604979  1
  O  O301  1  0.25568355  0.74734342  0.11077083  1
  O  O302  1  0.25820048  0.75444017  0.61512030  1
  O  O303  1  0.75897320  0.25735543  0.12277422  1
  O  O304  1  0.75784758  0.25942779  0.61685621  1
  O  O305  1  0.76310523  0.75434945  0.12239435  1
  O  O306  1  0.75692386  0.75880044  0.61956852  1
  O  O307  1  0.25280716  0.24071319  0.38056064  1
  O  O308  1  0.23929616  0.24102097  0.87604317  1
  O  O309  1  0.25263732  0.74790615  0.38805536  1
  O  O310  1  0.24434978  0.74291665  0.88401626  1
  O  O311  1  0.74564267  0.24270225  0.38020293  1
  O  O312  1  0.76085310  0.24976214  0.89119075  1
  O  O313  1  0.74714986  0.74719768  0.38461855  1
  O  O314  1  0.75845565  0.76011170  0.88559942  1
  O  O315  1  -0.00196902  0.11308343  0.00975114  1
  O  O316  1  0.00831875  0.12088320  0.50145287  1
  O  O317  1  0.01197097  0.62643501  0.00332956  1
  O  O318  1  0.00142729  0.61942210  0.50393940  1
  O  O319  1  0.50985432  0.12176920  0.01360309  1
  O  O320  1  0.50783197  0.11380338  0.49699149  1
  O  O321  1  0.52587859  0.64490409  0.01621302  1
  O  O322  1  0.50559248  0.61947364  0.50089476  1
  O  O323  1  0.48874120  0.38348160  0.49197044  1
  O  O324  1  0.48479652  0.37527209  1.00752498  1
  O  O325  1  0.50784453  0.88880733  0.49587590  1
  O  O326  1  0.49750193  0.87212698  0.99690809  1
  O  O327  1  0.99499753  0.38202827  0.49440157  1
  O  O328  1  0.98575063  0.37006806  0.99402999  1
  O  O329  1  1.00862474  0.88305056  0.49057744  1
  O  O330  1  0.99658273  0.88321272  0.99720100  1
  O  O331  1  0.50153990  0.48842419  0.38215929  1
  O  O332  1  0.48230211  0.55882297  0.88867454  1
  O  O333  1  0.49264063  0.99635932  0.38085747  1
  O  O334  1  0.48744082  0.98276384  0.87682233  1
  O  O335  1  1.00695853  0.49448057  0.38599947  1
  O  O336  1  0.99056821  0.48589150  0.87229849  1
  O  O337  1  0.99405786  0.99345376  0.38271635  1
  O  O338  1  0.99380899  0.99586485  0.88737925  1
  O  O339  1  0.00479162  0.00554280  0.12267267  1
  O  O340  1  -0.01796553  0.01515528  0.60556795  1
  O  O341  1  0.01446264  0.49728703  0.13029930  1
  O  O342  1  0.00533301  0.50535233  0.61583573  1
  O  O343  1  0.50269068  -0.00266168  0.11744902  1
  O  O344  1  0.50622766  0.00114319  0.61855051  1
  O  O345  1  0.51724452  0.50880157  0.12875108  1
  O  O346  1  0.49069860  0.50963634  0.60761963  1
  O  O347  1  0.24889870  0.37943077  0.23874447  1
  O  O348  1  0.24030487  0.37651809  0.74275392  1
  O  O349  1  0.24381435  0.87701874  0.24550934  1
  O  O350  1  0.25049124  0.86891236  0.73609024  1
  O  O351  1  0.74406843  0.36933172  0.24366935  1
  O  O352  1  0.74570321  0.37729241  0.73188159  1
  O  O353  1  0.74621696  0.87385282  0.24462568  1
  O  O354  1  0.75747536  0.88836881  0.73594733  1
  O  O355  1  0.24850155  0.11808640  0.25855342  1
  O  O356  1  0.25877912  0.12826291  0.76062891  1
  O  O357  1  0.25358112  0.61763316  0.25393738  1
  O  O358  1  0.24144419  0.62469442  0.76142769  1
  O  O359  1  0.74922047  0.12507792  0.26237415  1
  O  O360  1  0.75627450  0.11201380  0.74376479  1
  O  O361  1  0.76137476  0.63076985  0.26283273  1
  O  O362  1  0.76330199  0.62486755  0.74098037  1
  O  O363  1  0.36301499  0.11703721  0.37720585  1
  O  O364  1  0.36487574  0.11052028  0.86997854  1
  O  O365  1  0.35950580  0.62933051  0.36968474  1
  O  O366  1  0.35159874  0.63530747  0.86707849  1
  O  O367  1  0.86608048  0.11933406  0.37440547  1
  O  O368  1  0.88173792  0.11506078  0.87843259  1
  O  O369  1  0.86573163  0.62696611  0.36824616  1
  O  O370  1  0.88248865  0.61768703  0.86504436  1
  O  O371  1  0.13237896  0.38043622  0.12458767  1
  O  O372  1  0.12747067  0.38011580  0.63027452  1
  O  O373  1  0.12329672  0.88103975  0.13785981  1
  O  O374  1  0.14178190  0.87126466  0.62898845  1
  O  O375  1  0.63583385  0.38493378  0.13531609  1
  O  O376  1  0.64491697  0.38007851  0.59916798  1
  O  O377  1  0.63196940  0.88051132  0.12767875  1
  O  O378  1  0.63472219  0.88888362  0.62076269  1
  O  O379  1  0.11224646  0.25257161  0.24537706  1
  O  O380  1  0.12722590  0.26151674  0.75708258  1
  O  O381  1  0.11343115  0.75435031  0.24276655  1
  O  O382  1  0.11130389  0.75223112  0.75162822  1
  O  O383  1  0.62230337  0.26147177  0.25635639  1
  O  O384  1  0.61242483  0.25885087  0.72629572  1
  O  O385  1  0.62113778  0.75428001  0.25898802  1
  O  O386  1  0.62008562  0.75150075  0.75123271  1
  O  O387  1  0.37605937  0.24709701  0.23673871  1
  O  O388  1  0.37388042  0.24389682  0.73986409  1
  O  O389  1  0.38891079  0.75202198  0.25241687  1
  O  O390  1  0.37958688  0.74371895  0.73171710  1
  O  O391  1  0.88495976  0.24964883  0.23971959  1
  O  O392  1  0.86830645  0.25395682  0.73699018  1
  O  O393  1  0.88631790  0.74317818  0.24523404  1
  O  O394  1  0.88199571  0.74354510  0.74304428  1
  O  O395  1  0.37572503  0.48757956  0.49919544  1
  O  O396  1  0.36973058  0.48273237  0.99990040  1
  O  O397  1  0.38513620  1.00502798  0.49384201  1
  O  O398  1  0.37567075  0.99735660  0.99287206  1
  O  O399  1  0.88636136  0.49311243  0.50394720  1
  O  O400  1  0.87125233  0.49136978  0.99337016  1
  O  O401  1  0.88139091  1.00393239  0.48575233  1
  O  O402  1  0.88174698  0.99630413  0.99859271  1
  O  O403  1  0.11759307  -0.00838019  0.01473013  1
  O  O404  1  0.11450836  0.01068721  0.49869260  1
  O  O405  1  0.13129383  0.51030871  0.01064621  1
  O  O406  1  0.11672011  0.50165517  0.51140864  1
  O  O407  1  0.63394284  0.00761694  0.01342784  1
  O  O408  1  0.61994736  0.00905939  0.50499400  1
  O  O409  1  0.63654362  0.51688873  0.01035061  1
  O  O410  1  0.61267752  0.51086060  0.49518293  1
  O  O411  1  0.36888115  0.36781953  0.11767737  1
  O  O412  1  0.36530512  0.36828975  0.61429687  1
  O  O413  1  0.38536294  0.89052691  0.11700073  1
  O  O414  1  0.36681348  0.86280120  0.62394529  1
  O  O415  1  0.87198451  0.36888167  0.12053248  1
  O  O416  1  0.86960720  0.37086777  0.61435727  1
  O  O417  1  0.87295651  0.86778722  0.12339057  1
  O  O418  1  0.87273258  0.86546755  0.62815915  1
  O  O419  1  0.13710071  0.11992031  0.38514955  1
  O  O420  1  0.12928784  0.13419682  0.86825749  1
  O  O421  1  0.14137865  0.62455944  0.37516332  1
  O  O422  1  0.12955784  0.62544811  0.88255659  1
  O  O423  1  0.63083007  0.12651566  0.37921921  1
  O  O424  1  0.62032159  0.11219780  0.88827909  1
  O  O425  1  0.63191119  0.63154201  0.38263303  1
  O  O426  1  0.63255137  0.63127285  0.89074445  1
