# generated using pymatgen
data_V85Zn86O256
_symmetry_space_group_name_H-M   'P 1'
_cell_length_a   16.91543909
_cell_length_b   16.91495692
_cell_length_c   16.91618945
_cell_angle_alpha   89.93107885
_cell_angle_beta   89.96648485
_cell_angle_gamma   89.99400671
_symmetry_Int_Tables_number   1
_chemical_formula_structural   V85Zn86O256
_chemical_formula_sum   'V85 Zn86 O256'
_cell_volume   4840.12214034
_cell_formula_units_Z   1
loop_
 _symmetry_equiv_pos_site_id
 _symmetry_equiv_pos_as_xyz
  1  'x, y, z'
loop_
 _atom_site_type_symbol
 _atom_site_label
 _atom_site_symmetry_multiplicity
 _atom_site_fract_x
 _atom_site_fract_y
 _atom_site_fract_z
 _atom_site_occupancy
  V  V0  1  -0.00056911  0.00843648  0.00539358  1
  V  V1  1  0.88071575  0.74663789  0.12422767  1
  V  V2  1  0.24664530  0.25183518  -0.00145242  1
  V  V3  1  0.87691301  0.00655343  0.37040276  1
  V  V4  1  0.87649942  0.50169003  0.37834207  1
  V  V5  1  0.26025219  0.62665071  0.37637039  1
  V  V6  1  0.12685905  0.75119385  0.87752866  1
  V  V7  1  0.50174753  -0.00347827  -0.00609622  1
  V  V8  1  -0.00047387  0.74630592  0.74945352  1
  V  V9  1  0.87292788  0.13190343  0.74018193  1
  V  V10  1  0.49856764  0.75541357  0.75396189  1
  V  V11  1  0.74970403  0.87381601  0.62569271  1
  V  V12  1  0.49734007  0.62639892  0.62528697  1
  V  V13  1  0.74542921  0.63171488  0.37177100  1
  V  V14  1  0.87562540  0.00133140  0.87360768  1
  V  V15  1  0.62389624  0.12590134  0.00176547  1
  V  V16  1  0.50094912  0.26149694  0.24876284  1
  V  V17  1  0.13089746  0.87633715  0.25281264  1
  V  V18  1  0.62259390  0.48743960  0.12593012  1
  V  V19  1  0.37996090  0.87286742  -0.00390312  1
  V  V20  1  0.50982476  0.74661484  0.25571437  1
  V  V21  1  0.25350369  0.61995875  0.88040914  1
  V  V22  1  0.25415282  0.12055403  0.35782360  1
  V  V23  1  0.49733737  -0.00036627  0.49849772  1
  V  V24  1  0.24225180  0.37702256  0.13965655  1
  V  V25  1  0.74980643  0.12743027  0.87413059  1
  V  V26  1  0.00207691  0.87458430  0.37725187  1
  V  V27  1  0.49645006  0.62055713  0.12922860  1
  V  V28  1  0.87646291  0.87354066  -0.00037901  1
  V  V29  1  0.62591089  0.12804509  0.49063512  1
  V  V30  1  0.25248172  0.88159090  0.12962009  1
  V  V31  1  0.37457118  0.62490012  0.75396231  1
  V  V32  1  0.12880772  0.13064311  0.49777690  1
  V  V33  1  0.12360234  0.00613422  0.12913231  1
  V  V34  1  0.49817721  0.14084002  0.62784198  1
  V  V35  1  0.37371930  -0.00455855  0.86728537  1
  V  V36  1  0.37933606  0.14007419  0.75069273  1
  V  V37  1  0.12404863  0.50486483  0.13794053  1
  V  V38  1  0.12353918  0.37798389  0.74855942  1
  V  V39  1  0.13845047  0.00621445  0.62691003  1
  V  V40  1  0.49637169  0.36621110  0.87003214  1
  V  V41  1  0.62150430  0.62492395  0.49464644  1
  V  V42  1  0.25096055  0.74896154  0.00345845  1
  V  V43  1  0.13142722  0.74406665  0.39355651  1
  V  V44  1  0.37428107  -0.00062566  0.35838903  1
  V  V45  1  0.87783375  0.36833782  0.50423892  1
  V  V46  1  0.00582460  0.37849023  0.36521581  1
  V  V47  1  0.74851336  0.87173921  0.12658175  1
  V  V48  1  -0.00272947  0.50557052  0.00535871  1
  V  V49  1  0.00467115  0.74708517  0.24821399  1
  V  V50  1  0.36744602  0.38017665  -0.00404359  1
  V  V51  1  0.12129886  0.25141419  0.87441200  1
  V  V52  1  0.24709117  0.11991723  0.87034330  1
  V  V53  1  0.13362903  0.88271999  0.75153117  1
  V  V54  1  0.74993793  0.00113395  0.75003197  1
  V  V55  1  0.62196447  0.87601348  0.75591436  1
  V  V56  1  0.76294167  0.37441964  0.12567889  1
  V  V57  1  0.49151297  0.12104020  0.13264960  1
  V  V58  1  0.36679822  0.75125663  0.62053401  1
  V  V59  1  -0.00062242  0.23772947  0.24856725  1
  V  V60  1  0.75254897  0.00702645  0.24815634  1
  V  V61  1  0.62189523  0.00329410  0.62537457  1
  V  V62  1  0.87775015  0.62528252  0.24622031  1
  V  V63  1  0.26062344  0.36763625  0.61948707  1
  V  V64  1  0.74567643  0.75145014  0.49764330  1
  V  V65  1  0.36616974  0.87731931  0.49812718  1
  V  V66  1  0.88087515  0.23287199  0.12723691  1
  V  V67  1  0.49370491  0.49983267  -0.00868676  1
  V  V68  1  0.48429833  0.49349943  0.50230882  1
  V  V69  1  0.13076973  0.25739975  0.36909657  1
  V  V70  1  0.00141956  0.87662231  0.87487996  1
  V  V71  1  -0.00478199  0.25546275  0.73840335  1
  V  V72  1  0.74809270  0.50181353  0.76023910  1
  V  V73  1  0.62855402  0.62058864  -0.00445419  1
  V  V74  1  0.62516784  0.74916562  0.87585472  1
  V  V75  1  0.74398324  0.49277062  0.25286847  1
  V  V76  1  0.25388279  0.49943949  0.75458859  1
  V  V77  1  0.75425774  0.25491176  -0.00005400  1
  V  V78  1  0.37121341  0.49463237  0.35402200  1
  V  V79  1  0.12590665  0.50943726  0.61867506  1
  V  V80  1  -0.00050803  0.00010729  0.50468798  1
  V  V81  1  0.75267505  0.74353540  -0.00404508  1
  V  V82  1  0.62769511  0.49676967  0.62478688  1
  V  V83  1  -0.01189102  0.37760760  0.88103077  1
  V  V84  1  0.37428309  0.74473659  0.13363724  1
  Zn  Zn85  1  0.75420399  0.13008575  0.36978738  1
  Zn  Zn86  1  0.75309182  0.24781883  0.49989926  1
  Zn  Zn87  1  0.63522942  0.26844250  0.36434203  1
  Zn  Zn88  1  0.25205599  0.88027183  0.62627771  1
  Zn  Zn89  1  0.86681529  0.62681496  0.75355940  1
  Zn  Zn90  1  0.87332391  0.87509986  0.49997966  1
  Zn  Zn91  1  0.61908523  0.24660528  0.87027464  1
  Zn  Zn92  1  0.50249219  0.37699239  0.37684244  1
  Zn  Zn93  1  0.36875842  0.24483530  0.12830710  1
  Zn  Zn94  1  0.00766294  0.50834348  0.49336347  1
  Zn  Zn95  1  0.62424623  -0.00532314  0.12644341  1
  Zn  Zn96  1  0.86693461  0.50592006  0.88488614  1
  Zn  Zn97  1  0.87419475  0.74630247  0.62491789  1
  Zn  Zn98  1  0.50433717  0.86964835  0.37859689  1
  Zn  Zn99  1  0.12276531  0.62712095  0.00820497  1
  Zn  Zn100  1  -0.00138033  0.63010615  0.61571450  1
  Zn  Zn101  1  0.63267034  0.86857178  0.26402575  1
  Zn  Zn102  1  0.12100885  0.12738363  0.00275100  1
  Zn  Zn103  1  0.75763395  0.37003131  0.62823247  1
  Zn  Zn104  1  0.27148993  0.25544188  0.49490476  1
  Zn  Zn105  1  0.62119065  0.36386129  0.74406071  1
  Zn  Zn106  1  -0.00119456  0.13161106  0.62093381  1
  Zn  Zn107  1  0.18257893  0.19223009  0.18703518  1
  Zn  Zn108  1  0.18841319  0.18770232  0.69001022  1
  Zn  Zn109  1  0.19123345  0.68530548  0.19470498  1
  Zn  Zn110  1  0.18746147  0.68975453  0.69171984  1
  Zn  Zn111  1  0.68375750  0.18731679  0.18499032  1
  Zn  Zn112  1  0.68601430  0.19665240  0.68149335  1
  Zn  Zn113  1  0.68734367  0.68100514  0.18122053  1
  Zn  Zn114  1  0.68522629  0.68428052  0.68547980  1
  Zn  Zn115  1  0.32216308  0.30694150  0.31126146  1
  Zn  Zn116  1  0.31079707  0.31513720  0.81480899  1
  Zn  Zn117  1  0.31432611  0.81044325  0.31444627  1
  Zn  Zn118  1  0.31192210  0.81159673  0.81351848  1
  Zn  Zn119  1  0.81667302  0.31150022  0.31311877  1
  Zn  Zn120  1  0.80825826  0.31572765  0.80928881  1
  Zn  Zn121  1  0.81536485  0.81542872  0.31423961  1
  Zn  Zn122  1  0.81101983  0.80988525  0.81366329  1
  Zn  Zn123  1  0.19560773  0.43851452  0.43702834  1
  Zn  Zn124  1  0.17852450  0.44029359  0.93950669  1
  Zn  Zn125  1  0.18855245  0.94319210  0.43666955  1
  Zn  Zn126  1  0.18902398  0.93846348  0.94235476  1
  Zn  Zn127  1  0.68668814  0.43723445  0.43875311  1
  Zn  Zn128  1  0.68244913  0.43175036  0.93921642  1
  Zn  Zn129  1  0.68467583  0.93907831  0.43408640  1
  Zn  Zn130  1  0.68734606  0.93467375  0.93768634  1
  Zn  Zn131  1  0.31077422  0.06053915  0.05793680  1
  Zn  Zn132  1  0.33096005  0.09450986  0.54550593  1
  Zn  Zn133  1  0.30940991  0.55979597  0.06887215  1
  Zn  Zn134  1  0.30269610  0.56754878  0.56211615  1
  Zn  Zn135  1  0.81087747  0.06132984  0.06205564  1
  Zn  Zn136  1  0.81093432  0.06282270  0.56057678  1
  Zn  Zn137  1  0.81351996  0.56073962  0.06357826  1
  Zn  Zn138  1  0.81460754  0.56376774  0.56650474  1
  Zn  Zn139  1  0.43216489  0.43307555  0.17827426  1
  Zn  Zn140  1  0.43541527  0.43948516  0.68832215  1
  Zn  Zn141  1  0.44365733  0.93045127  0.18307869  1
  Zn  Zn142  1  0.43758679  0.93902391  0.68438060  1
  Zn  Zn143  1  0.93972358  0.43749904  0.18906233  1
  Zn  Zn144  1  0.93800541  0.44497021  0.68892010  1
  Zn  Zn145  1  0.93835089  0.93586498  0.18883257  1
  Zn  Zn146  1  0.93931457  0.93661390  0.68711929  1
  Zn  Zn147  1  0.06543002  0.06200194  0.31420457  1
  Zn  Zn148  1  0.05959410  0.06557358  0.81067520  1
  Zn  Zn149  1  0.06651476  0.56846933  0.31505224  1
  Zn  Zn150  1  0.06453079  0.56304938  0.81695527  1
  Zn  Zn151  1  0.56553338  0.05476686  0.31055005  1
  Zn  Zn152  1  0.55998088  0.06591883  0.81342269  1
  Zn  Zn153  1  0.56022512  0.55756515  0.31326716  1
  Zn  Zn154  1  0.56353350  0.56043886  0.81192847  1
  Zn  Zn155  1  0.43989424  0.18738671  0.43068436  1
  Zn  Zn156  1  0.43162903  0.18553880  0.94250006  1
  Zn  Zn157  1  0.43208064  0.68456525  0.43874812  1
  Zn  Zn158  1  0.43886129  0.68722612  0.93885544  1
  Zn  Zn159  1  0.94294467  0.18806431  0.43332569  1
  Zn  Zn160  1  0.93394878  0.19087525  0.93504966  1
  Zn  Zn161  1  0.93688027  0.68773999  0.43940238  1
  Zn  Zn162  1  0.93731265  0.68191706  0.93243226  1
  Zn  Zn163  1  0.06032764  0.31677909  0.06430110  1
  Zn  Zn164  1  0.06660712  0.32088023  0.55606336  1
  Zn  Zn165  1  0.06351303  0.81596866  0.06409553  1
  Zn  Zn166  1  0.06366036  0.81758886  0.56798692  1
  Zn  Zn167  1  0.56080285  0.30971098  0.06074333  1
  Zn  Zn168  1  0.56445739  0.31309164  0.55596664  1
  Zn  Zn169  1  0.56235800  0.80897309  0.06380747  1
  Zn  Zn170  1  0.56152045  0.81316958  0.56254111  1
  O  O171  1  0.13056129  0.11008788  0.12405649  1
  O  O172  1  0.12233745  0.12302979  0.61736562  1
  O  O173  1  0.13279213  0.60967154  0.12690787  1
  O  O174  1  0.13026729  0.61189999  0.62975553  1
  O  O175  1  0.61628741  0.12015859  0.11327496  1
  O  O176  1  0.61570442  0.11946802  0.61790874  1
  O  O177  1  0.61716044  0.61459605  0.11322322  1
  O  O178  1  0.61732555  0.61478430  0.61814598  1
  O  O179  1  0.38034531  0.38988282  0.36968649  1
  O  O180  1  0.38135773  0.37402073  0.88655146  1
  O  O181  1  0.38047397  0.87970801  0.38216650  1
  O  O182  1  0.36949904  0.87924671  0.88804267  1
  O  O183  1  0.88388066  0.38478757  0.37980441  1
  O  O184  1  0.88559284  0.38076137  0.87235843  1
  O  O185  1  0.88440738  0.88422479  0.37843904  1
  O  O186  1  0.87963945  0.88114441  0.88017972  1
  O  O187  1  0.25646222  0.01154030  0.37194013  1
  O  O188  1  0.25934514  0.00954699  0.88356778  1
  O  O189  1  0.26617703  0.50521613  0.37529607  1
  O  O190  1  0.24357021  0.50826045  0.86820807  1
  O  O191  1  0.76047886  -0.00015611  0.36577240  1
  O  O192  1  0.75521826  0.00604233  0.87037149  1
  O  O193  1  0.75628692  0.50996864  0.36773531  1
  O  O194  1  0.74546711  0.49326328  0.86458935  1
  O  O195  1  0.23772957  0.48718595  0.12459525  1
  O  O196  1  0.24176652  0.49247462  0.63283078  1
  O  O197  1  0.24327590  0.98848397  0.11922705  1
  O  O198  1  0.23887713  1.00588101  0.61969854  1
  O  O199  1  0.74365619  0.49192005  0.13072513  1
  O  O200  1  0.74080594  0.49541663  0.63047676  1
  O  O201  1  0.75171541  0.98934378  0.13030121  1
  O  O202  1  0.74251447  0.99357848  0.63027759  1
  O  O203  1  -0.00521442  0.36633055  0.26170363  1
  O  O204  1  0.00490736  0.37305915  0.75602700  1
  O  O205  1  0.00677141  0.86507464  0.25745631  1
  O  O206  1  0.00915772  0.86874389  0.75592763  1
  O  O207  1  0.50085916  0.36311755  0.24061268  1
  O  O208  1  0.49598912  0.38239620  0.76778815  1
  O  O209  1  0.50713966  0.85629187  0.24498874  1
  O  O210  1  0.50541001  0.86258427  0.74489491  1
  O  O211  1  0.50332335  0.11967735  0.23367219  1
  O  O212  1  0.48838455  0.12458121  0.74549297  1
  O  O213  1  0.50553842  0.63110483  0.23696189  1
  O  O214  1  0.49459943  0.63244866  0.74663603  1
  O  O215  1  1.00264467  0.13774691  0.25513711  1
  O  O216  1  0.99123704  0.13790680  0.74859340  1
  O  O217  1  0.99307605  0.63896612  0.25585233  1
  O  O218  1  1.00844110  0.64092409  0.75089938  1
  O  O219  1  0.36017733  0.25659154  0.00282300  1
  O  O220  1  0.36918526  0.20312343  0.51417151  1
  O  O221  1  0.37344768  0.75663364  0.00916155  1
  O  O222  1  0.38333163  0.76191100  0.50958521  1
  O  O223  1  0.86779288  0.24566745  0.01402225  1
  O  O224  1  0.88201882  0.26582840  0.49401485  1
  O  O225  1  0.87422789  0.75274631  0.00449943  1
  O  O226  1  0.85860023  0.75290006  0.50085024  1
  O  O227  1  0.12481826  0.24497711  0.48678541  1
  O  O228  1  0.13115172  0.24895999  0.99564976  1
  O  O229  1  0.12732921  0.75900772  0.49105397  1
  O  O230  1  0.13108452  0.74955532  0.99664677  1
  O  O231  1  0.62225947  0.23932987  0.49002515  1
  O  O232  1  0.63312540  0.24102079  0.99853400  1
  O  O233  1  0.63364861  0.73707436  0.50760621  1
  O  O234  1  0.62794515  0.74129183  0.99371944  1
  O  O235  1  0.49885168  0.23725496  0.12976391  1
  O  O236  1  0.50269737  0.23990158  0.62168924  1
  O  O237  1  0.49405520  0.73923648  0.12988505  1
  O  O238  1  0.49255208  0.74480761  0.63339369  1
  O  O239  1  0.98854508  0.25353570  0.13009997  1
  O  O240  1  1.00585696  0.25514301  0.63564040  1
  O  O241  1  0.99314821  0.75695646  0.13542882  1
  O  O242  1  0.99863152  0.75237952  0.63527693  1
  O  O243  1  0.00866575  0.25768036  0.36680141  1
  O  O244  1  0.00368277  0.25958986  0.86982267  1
  O  O245  1  0.01193628  0.75665192  0.37099647  1
  O  O246  1  0.00876786  0.75790952  0.87173248  1
  O  O247  1  0.49878412  0.25259075  0.35907525  1
  O  O248  1  0.49539262  0.26309988  0.88398545  1
  O  O249  1  0.49332446  0.74323023  0.35716304  1
  O  O250  1  0.51134512  0.74619311  0.86742366  1
  O  O251  1  0.23393317  0.12218061  0.48770717  1
  O  O252  1  0.24838755  0.13393307  0.98924686  1
  O  O253  1  0.24596620  0.62034170  0.47957381  1
  O  O254  1  0.24991413  0.63042078  0.99582653  1
  O  O255  1  0.73898394  0.12318015  0.49639166  1
  O  O256  1  0.74279548  0.13252274  0.99768935  1
  O  O257  1  0.74281296  0.63001410  0.49224991  1
  O  O258  1  0.74001172  0.62980986  1.00677919  1
  O  O259  1  0.25196642  0.36909309  -0.00114135  1
  O  O260  1  0.25233649  0.37123245  0.51373367  1
  O  O261  1  0.25741568  0.86797738  0.00965002  1
  O  O262  1  0.26276059  0.88135062  0.50126186  1
  O  O263  1  0.74626444  0.36224298  0.00810296  1
  O  O264  1  0.76950162  0.37920983  0.49736951  1
  O  O265  1  0.75754280  0.86667911  0.00530426  1
  O  O266  1  0.74662843  0.86764983  0.50831903  1
  O  O267  1  0.11344905  0.49839003  0.23671039  1
  O  O268  1  0.13429426  0.49520783  0.74542735  1
  O  O269  1  0.11784217  0.98524050  0.24432841  1
  O  O270  1  0.11740489  0.99501393  0.73973528  1
  O  O271  1  0.63379769  0.50722274  0.23853686  1
  O  O272  1  0.63032986  0.49549771  0.74276798  1
  O  O273  1  0.63632532  0.99069354  0.24532763  1
  O  O274  1  0.62842103  0.99580084  0.74684647  1
  O  O275  1  0.38133348  -0.01152790  0.25936229  1
  O  O276  1  0.37997882  -0.00256402  0.76546245  1
  O  O277  1  0.38024562  0.50145128  0.25569962  1
  O  O278  1  0.36141551  0.50795069  0.74763920  1
  O  O279  1  0.86816254  -0.00610472  0.25832038  1
  O  O280  1  0.87114660  0.00655702  0.75501385  1
  O  O281  1  0.86965872  0.50680311  0.25775642  1
  O  O282  1  0.85746442  0.49821745  0.75114625  1
  O  O283  1  0.12058790  0.36946842  0.37990408  1
  O  O284  1  0.11821754  0.37225347  0.86271201  1
  O  O285  1  0.12487949  0.86804740  0.36953774  1
  O  O286  1  0.12177776  0.87350091  0.87057233  1
  O  O287  1  0.61683072  0.38152543  0.37402153  1
  O  O288  1  0.60510213  0.37107578  0.87974495  1
  O  O289  1  0.61804630  0.87110358  0.37735679  1
  O  O290  1  0.62658242  0.86586895  0.86640407  1
  O  O291  1  0.38806230  0.12431850  0.11577146  1
  O  O292  1  0.38369879  0.11253228  0.64750356  1
  O  O293  1  0.38315996  0.63225691  0.12087469  1
  O  O294  1  0.37690412  0.63285599  0.63098688  1
  O  O295  1  0.87509475  0.13431242  0.12540781  1
  O  O296  1  0.87835700  0.11973226  0.63664351  1
  O  O297  1  0.87168632  0.62886987  0.13906972  1
  O  O298  1  0.87875859  0.62789204  0.63517622  1
  O  O299  1  0.24583430  0.26000409  0.11705035  1
  O  O300  1  0.24254305  0.26573143  0.62550793  1
  O  O301  1  0.25704430  0.75499604  0.12348622  1
  O  O302  1  0.26339312  0.75344540  0.63211571  1
  O  O303  1  0.75953216  0.25433134  0.12255705  1
  O  O304  1  0.75036531  0.25734202  0.61393903  1
  O  O305  1  0.75865241  0.75353007  0.11884855  1
  O  O306  1  0.74819535  0.75755854  0.61878244  1
  O  O307  1  0.24804274  0.24130034  0.37490580  1
  O  O308  1  0.24194997  0.24480558  0.88063148  1
  O  O309  1  0.24110557  0.74282851  0.37478009  1
  O  O310  1  0.24472751  0.74486944  0.88290126  1
  O  O311  1  0.75028051  0.24659595  0.37811671  1
  O  O312  1  0.75272926  0.24476552  0.88534703  1
  O  O313  1  0.75231836  0.73940369  0.38001409  1
  O  O314  1  0.73563226  0.75183113  0.88073339  1
  O  O315  1  0.00001138  0.11221331  -0.00693645  1
  O  O316  1  0.01091574  0.11935874  0.49933453  1
  O  O317  1  0.00429162  0.61054511  -0.00091876  1
  O  O318  1  -0.00109682  0.62099425  0.50159143  1
  O  O319  1  0.50596585  0.11852630  0.00556026  1
  O  O320  1  0.50741825  0.11393993  0.50608306  1
  O  O321  1  0.50405492  0.61706058  0.00835383  1
  O  O322  1  0.50554041  0.61979083  0.50468239  1
  O  O323  1  0.49712009  0.39072053  0.50076957  1
  O  O324  1  0.48874323  0.38075830  0.99678290  1
  O  O325  1  0.49220965  0.88715375  0.50374897  1
  O  O326  1  0.49141476  0.88238770  1.00722259  1
  O  O327  1  0.99267385  0.38381838  0.48772426  1
  O  O328  1  1.00663758  0.38663735  0.98993922  1
  O  O329  1  0.99939685  0.88353925  0.49570889  1
  O  O330  1  0.99516121  0.88387858  0.99403389  1
  O  O331  1  0.48438327  0.50570899  0.38461093  1
  O  O332  1  0.50094843  0.49311901  0.88743862  1
  O  O333  1  0.49079068  0.99973862  0.38207531  1
  O  O334  1  0.49219541  1.00354946  0.88748821  1
  O  O335  1  0.99369392  0.49577549  0.37091886  1
  O  O336  1  1.00280385  0.49352907  0.88705530  1
  O  O337  1  0.99785905  0.99478484  0.38413167  1
  O  O338  1  0.99511251  0.99489635  0.88110505  1
  O  O339  1  0.00911932  -0.00791100  0.11647797  1
  O  O340  1  0.00597577  0.00150844  0.61390127  1
  O  O341  1  0.01125617  0.49167960  0.11536732  1
  O  O342  1  0.01796398  0.50364706  0.62955640  1
  O  O343  1  0.50096733  0.00705128  0.11430982  1
  O  O344  1  0.50565249  0.00570568  0.61796094  1
  O  O345  1  0.50547987  0.50286595  0.11770640  1
  O  O346  1  0.50211664  0.50655473  0.61767007  1
  O  O347  1  0.25341308  0.36792665  0.23711393  1
  O  O348  1  0.24271173  0.38182189  0.74682387  1
  O  O349  1  0.24342296  0.86918652  0.24144651  1
  O  O350  1  0.23755758  0.87580483  0.75166620  1
  O  O351  1  0.75481864  0.38651601  0.24382590  1
  O  O352  1  0.74330540  0.38616132  0.74677274  1
  O  O353  1  0.75127304  0.87828709  0.24091258  1
  O  O354  1  0.74362440  0.88061746  0.74450647  1
  O  O355  1  0.24512483  0.12658761  0.25930803  1
  O  O356  1  0.26083956  0.12817461  0.76172804  1
  O  O357  1  0.23686164  0.62084838  0.27520629  1
  O  O358  1  0.25380418  0.61890334  0.75937819  1
  O  O359  1  0.74657653  0.11081243  0.24705268  1
  O  O360  1  0.75619326  0.11985550  0.75336765  1
  O  O361  1  0.75521476  0.61791295  0.25511901  1
  O  O362  1  0.74283806  0.60665380  0.74727695  1
  O  O363  1  0.36156428  0.11515315  0.37019799  1
  O  O364  1  0.37014834  0.11779523  0.86685900  1
  O  O365  1  0.36710455  0.61640327  0.37304922  1
  O  O366  1  0.36194961  0.63202799  0.87098962  1
  O  O367  1  0.87644243  0.11091598  0.37905699  1
  O  O368  1  0.86897893  0.12025692  0.86524762  1
  O  O369  1  0.86722999  0.62133104  0.36427787  1
  O  O370  1  0.87593456  0.61826463  0.86682996  1
  O  O371  1  0.13652832  0.38306530  0.12344218  1
  O  O372  1  0.13044870  0.38416496  0.63586396  1
  O  O373  1  0.13408950  0.88175430  0.13261053  1
  O  O374  1  0.13009465  0.88635153  0.63383416  1
  O  O375  1  0.63294305  0.38398146  0.11858508  1
  O  O376  1  0.62026026  0.38845530  0.62332488  1
  O  O377  1  0.64047899  0.87200069  0.12149981  1
  O  O378  1  0.63315050  0.88008470  0.63316212  1
  O  O379  1  0.11732230  0.25101047  0.26071088  1
  O  O380  1  0.11644414  0.25848252  0.75471398  1
  O  O381  1  0.11928946  0.75979577  0.25341935  1
  O  O382  1  0.12060672  0.76111281  0.75709765  1
  O  O383  1  0.60711266  0.24017355  0.25015767  1
  O  O384  1  0.62480425  0.25056362  0.75744383  1
  O  O385  1  0.61346168  0.74632623  0.24256625  1
  O  O386  1  0.61871730  0.75269814  0.75648835  1
  O  O387  1  0.39260971  0.24593572  0.24309628  1
  O  O388  1  0.37436520  0.23877322  0.75438903  1
  O  O389  1  0.38471648  0.75379508  0.23777682  1
  O  O390  1  0.38259671  0.74701644  0.74595694  1
  O  O391  1  0.88178119  0.25171162  0.23556443  1
  O  O392  1  0.88238497  0.24349280  0.75438504  1
  O  O393  1  0.88262715  0.74413577  0.24668178  1
  O  O394  1  0.88589825  0.75260860  0.74950529  1
  O  O395  1  0.38423693  0.50677068  0.50228623  1
  O  O396  1  0.38143272  0.49208731  1.00608680  1
  O  O397  1  0.38215586  0.99693748  0.49213704  1
  O  O398  1  0.38179052  0.99175595  0.99228363  1
  O  O399  1  0.87436523  0.49837586  0.48573691  1
  O  O400  1  0.89052919  0.50048818  1.00419473  1
  O  O401  1  0.88409100  0.99817271  0.49501484  1
  O  O402  1  0.88100034  0.99497333  0.99543377  1
  O  O403  1  0.11617926  0.00005874  0.00973032  1
  O  O404  1  0.11750836  0.00718938  0.50594461  1
  O  O405  1  0.11530763  0.50368987  0.01104748  1
  O  O406  1  0.12764563  0.49324135  0.51622887  1
  O  O407  1  0.61806996  0.00463826  0.00077485  1
  O  O408  1  0.61758826  0.00579271  0.50629993  1
  O  O409  1  0.61716553  0.50403822  0.00603516  1
  O  O410  1  0.61758529  0.51028702  0.50660468  1
  O  O411  1  0.35873131  0.37227368  0.11327086  1
  O  O412  1  0.35889347  0.37607221  0.63234938  1
  O  O413  1  0.36865456  0.86865651  0.11664837  1
  O  O414  1  0.37230614  0.86998204  0.61831609  1
  O  O415  1  0.86488253  0.37168967  0.12538384  1
  O  O416  1  0.88157838  0.38569541  0.60637066  1
  O  O417  1  0.86684726  0.86804961  0.11941787  1
  O  O418  1  0.85996946  0.87583481  0.62466873  1
  O  O419  1  0.13467758  0.13167144  0.37816254  1
  O  O420  1  0.13217238  0.13013428  0.87521475  1
  O  O421  1  0.12619450  0.64151626  0.37965515  1
  O  O422  1  0.13751577  0.63340450  0.87810950  1
  O  O423  1  0.62640009  0.11875039  0.38484997  1
  O  O424  1  0.63035099  0.12398666  0.88691644  1
  O  O425  1  0.63242813  0.61912989  0.38327615  1
  O  O426  1  0.61900782  0.62934367  0.88837546  1
