# generated using pymatgen
data_V85Zn86O256
_symmetry_space_group_name_H-M   'P 1'
_cell_length_a   16.95284282
_cell_length_b   16.94141981
_cell_length_c   16.93500538
_cell_angle_alpha   90.02679035
_cell_angle_beta   89.99410282
_cell_angle_gamma   90.01392442
_symmetry_Int_Tables_number   1
_chemical_formula_structural   V85Zn86O256
_chemical_formula_sum   'V85 Zn86 O256'
_cell_volume   4863.82136699
_cell_formula_units_Z   1
loop_
 _symmetry_equiv_pos_site_id
 _symmetry_equiv_pos_as_xyz
  1  'x, y, z'
loop_
 _atom_site_type_symbol
 _atom_site_label
 _atom_site_symmetry_multiplicity
 _atom_site_fract_x
 _atom_site_fract_y
 _atom_site_fract_z
 _atom_site_occupancy
  V  V0  1  0.12671348  0.24720794  0.87287386  1
  V  V1  1  0.74951545  0.87353041  0.13850045  1
  V  V2  1  0.12320103  0.25178676  0.37417034  1
  V  V3  1  0.62514360  0.24786325  0.87455943  1
  V  V4  1  0.75686676  0.13532783  0.39145085  1
  V  V5  1  0.00073243  0.75084760  0.75387519  1
  V  V6  1  0.49404244  0.62907559  0.12747811  1
  V  V7  1  -0.00357055  0.38848190  0.37749886  1
  V  V8  1  0.37848094  0.62234904  0.73845699  1
  V  V9  1  0.86863329  0.87742369  0.50857973  1
  V  V10  1  0.62714263  0.87582131  0.74064239  1
  V  V11  1  0.87285854  0.24739520  0.12770454  1
  V  V12  1  0.12905237  0.75021804  0.37892743  1
  V  V13  1  -0.00218158  0.37379586  0.87625217  1
  V  V14  1  0.74964390  0.24770676  0.00387288  1
  V  V15  1  0.12789829  0.12329167  -0.00203407  1
  V  V16  1  -0.00340683  -0.01265419  -0.00125853  1
  V  V17  1  0.37485072  0.25476342  0.12403824  1
  V  V18  1  0.00094226  0.12103510  0.12822352  1
  V  V19  1  0.62257383  0.50245611  0.62548304  1
  V  V20  1  0.25425514  0.24986713  -0.00533728  1
  V  V21  1  0.23736422  0.88062199  0.62366490  1
  V  V22  1  0.88016977  0.74676944  0.12149391  1
  V  V23  1  0.87517161  0.11856710  0.25148400  1
  V  V24  1  0.13073362  -0.00084357  0.13013617  1
  V  V25  1  0.87606263  -0.00286856  0.38068476  1
  V  V26  1  0.87814563  0.39073657  0.49813619  1
  V  V27  1  0.25220126  0.50413455  0.24670317  1
  V  V28  1  0.61072266  0.01604266  0.61872850  1
  V  V29  1  0.74801839  0.62363254  0.87707283  1
  V  V30  1  0.00150618  0.74396716  0.24723670  1
  V  V31  1  0.12411383  0.37733707  0.24748671  1
  V  V32  1  0.00180779  0.87537063  0.38584962  1
  V  V33  1  0.24726769  0.37894531  0.62602394  1
  V  V34  1  0.00058393  0.11487206  0.62142238  1
  V  V35  1  0.50047304  0.12439215  0.12547413  1
  V  V36  1  0.50181334  0.24122968  0.74454758  1
  V  V37  1  0.12306970  0.50354874  0.12212772  1
  V  V38  1  0.12926549  0.87674256  0.24994055  1
  V  V39  1  0.37134588  0.49901005  0.88112317  1
  V  V40  1  0.58879014  0.20941211  0.40374803  1
  V  V41  1  0.87608977  -0.01946826  0.87824651  1
  V  V42  1  0.49097841  0.87248830  0.87480095  1
  V  V43  1  0.62303078  0.37414578  0.74982094  1
  V  V44  1  0.87255747  0.49896033  0.87796177  1
  V  V45  1  0.62256503  0.62928367  0.50401926  1
  V  V46  1  0.49370023  -0.00634750  -0.00101087  1
  V  V47  1  0.49402209  0.37360586  0.88137566  1
  V  V48  1  0.37654352  -0.00354639  0.38687010  1
  V  V49  1  0.37755547  0.24402259  0.62342054  1
  V  V50  1  0.62554251  0.12118038  0.00338245  1
  V  V51  1  0.75606332  0.50122568  0.25571492  1
  V  V52  1  0.75937711  0.62583642  0.37741514  1
  V  V53  1  0.49700340  0.50751269  0.50943657  1
  V  V54  1  0.25231053  0.37587823  0.11921886  1
  V  V55  1  0.26125593  0.87336187  0.12403187  1
  V  V56  1  0.26535946  0.75383922  0.00096617  1
  V  V57  1  0.50784483  0.38396982  0.37206934  1
  V  V58  1  0.24462414  0.25053725  0.49845704  1
  V  V59  1  0.62651661  0.75405786  0.36949599  1
  V  V60  1  -0.00893150  0.24483130  0.74981119  1
  V  V61  1  0.50581243  0.88199448  0.38931905  1
  V  V62  1  0.62469731  0.62506206  0.00146724  1
  V  V63  1  0.49528215  0.76314465  0.24500753  1
  V  V64  1  0.12285149  0.75724373  0.87689618  1
  V  V65  1  0.12219074  0.62929917  0.00129966  1
  V  V66  1  0.12260861  0.61667861  0.50331919  1
  V  V67  1  0.24904205  0.12007674  0.36952983  1
  V  V68  1  0.74805865  0.49871316  0.75186647  1
  V  V69  1  0.87452348  0.24770028  0.61810870  1
  V  V70  1  0.86909337  0.75034224  0.62718429  1
  V  V71  1  0.37619667  0.50659374  0.37226235  1
  V  V72  1  0.75357946  -0.00029876  0.74261246  1
  V  V73  1  0.36688544  0.00709687  0.87067708  1
  V  V74  1  0.74872127  0.37319659  0.12824497  1
  V  V75  1  0.76242203  0.12360517  0.87398709  1
  V  V76  1  0.38151921  0.76228609  0.62029748  1
  V  V77  1  0.37410462  0.37918021  0.49858467  1
  V  V78  1  0.62410370  0.75269254  0.87402752  1
  V  V79  1  0.62448286  0.49980408  0.12996422  1
  V  V80  1  0.74999088  0.37007074  0.61896912  1
  V  V81  1  0.37373681  0.11687267  0.24641643  1
  V  V82  1  -0.00054470  0.24915773  0.25116795  1
  V  V83  1  -0.00166355  0.50487048  0.00422989  1
  V  V84  1  0.75441320  0.76116746  -0.00132501  1
  Zn  Zn85  1  0.37142071  0.12488141  0.74791063  1
  Zn  Zn86  1  0.24648338  0.50186374  0.75041550  1
  Zn  Zn87  1  0.74360445  -0.00206501  0.25669015  1
  Zn  Zn88  1  0.62883737  0.36072235  0.25649999  1
  Zn  Zn89  1  0.88142301  0.62166419  0.25027716  1
  Zn  Zn90  1  0.50234024  0.74572759  0.74656152  1
  Zn  Zn91  1  0.87676210  0.62199915  0.74903252  1
  Zn  Zn92  1  0.49984817  0.25167428  0.25036359  1
  Zn  Zn93  1  0.49582703  0.49625642  0.00424083  1
  Zn  Zn94  1  0.37312913  0.63378506  0.24622679  1
  Zn  Zn95  1  0.12552782  0.10399012  0.51258951  1
  Zn  Zn96  1  -0.00546846  0.61831400  0.62217540  1
  Zn  Zn97  1  0.25048044  0.62691463  0.87185263  1
  Zn  Zn98  1  0.62077238  -0.01305636  0.12784415  1
  Zn  Zn99  1  0.74703547  0.75424124  0.50552576  1
  Zn  Zn100  1  0.11388972  0.49627863  0.62777117  1
  Zn  Zn101  1  0.12063033  0.88250950  0.75290670  1
  Zn  Zn102  1  0.23174647  0.01789879  0.73972668  1
  Zn  Zn103  1  0.12367458  0.37721025  0.74958111  1
  Zn  Zn104  1  0.87363328  0.37381750  0.00323350  1
  Zn  Zn105  1  0.25235595  0.63011065  0.37520012  1
  Zn  Zn106  1  0.25497419  0.75454805  0.49953061  1
  Zn  Zn107  1  0.18909738  0.18691202  0.18808248  1
  Zn  Zn108  1  0.18406918  0.18974680  0.68890219  1
  Zn  Zn109  1  0.18759412  0.68972564  0.18336472  1
  Zn  Zn110  1  0.19233303  0.69087864  0.68668413  1
  Zn  Zn111  1  0.68185852  0.18332755  0.20173166  1
  Zn  Zn112  1  0.69191365  0.18451686  0.68765867  1
  Zn  Zn113  1  0.68701186  0.68851763  0.18937231  1
  Zn  Zn114  1  0.68868619  0.68708951  0.68825125  1
  Zn  Zn115  1  0.31582594  0.31544431  0.30944031  1
  Zn  Zn116  1  0.31259228  0.31058587  0.80988070  1
  Zn  Zn117  1  0.31411106  0.81944105  0.31229190  1
  Zn  Zn118  1  0.30933651  0.81321064  0.80597937  1
  Zn  Zn119  1  0.81475815  0.31382402  0.31482799  1
  Zn  Zn120  1  0.81206280  0.31219835  0.81169051  1
  Zn  Zn121  1  0.81663196  0.80838175  0.31493232  1
  Zn  Zn122  1  0.81039393  0.81228345  0.80893087  1
  Zn  Zn123  1  0.18842223  0.43904274  0.43460675  1
  Zn  Zn124  1  0.18711209  0.43530226  0.93590616  1
  Zn  Zn125  1  0.19359864  0.93604096  0.44255445  1
  Zn  Zn126  1  0.18687954  0.93581255  0.93842548  1
  Zn  Zn127  1  0.69106147  0.44087595  0.44107872  1
  Zn  Zn128  1  0.68332687  0.43459096  0.94158690  1
  Zn  Zn129  1  0.68955525  0.94215064  0.44098885  1
  Zn  Zn130  1  0.68434578  0.93765562  0.93532706  1
  Zn  Zn131  1  0.31178337  0.06126852  0.05826829  1
  Zn  Zn132  1  0.31087127  0.06315394  0.56222332  1
  Zn  Zn133  1  0.31150320  0.56738427  0.05892507  1
  Zn  Zn134  1  0.30627227  0.56801529  0.56090342  1
  Zn  Zn135  1  0.81333583  0.05721699  0.06233151  1
  Zn  Zn136  1  0.82043043  0.06128503  0.56578764  1
  Zn  Zn137  1  0.81220336  0.56606590  0.06521429  1
  Zn  Zn138  1  0.81017313  0.56424174  0.56494621  1
  Zn  Zn139  1  0.43824742  0.43773669  0.18761430  1
  Zn  Zn140  1  0.43398929  0.43251208  0.69088195  1
  Zn  Zn141  1  0.44016440  0.94019054  0.19174038  1
  Zn  Zn142  1  0.43957415  0.93763597  0.69010668  1
  Zn  Zn143  1  0.93611369  0.43661265  0.18747775  1
  Zn  Zn144  1  0.93767498  0.43850516  0.68905546  1
  Zn  Zn145  1  0.93772848  0.93121007  0.18904002  1
  Zn  Zn146  1  0.93734400  0.93510106  0.69385163  1
  Zn  Zn147  1  0.07742506  0.04603435  0.33911196  1
  Zn  Zn148  1  0.05459643  0.06433187  0.81193098  1
  Zn  Zn149  1  0.06706444  0.56655754  0.31333879  1
  Zn  Zn150  1  0.06405999  0.56516155  0.81129254  1
  Zn  Zn151  1  0.56414788  0.05674657  0.30920782  1
  Zn  Zn152  1  0.56535764  0.05948109  0.81276647  1
  Zn  Zn153  1  0.56603608  0.56913718  0.31215338  1
  Zn  Zn154  1  0.55766245  0.56197132  0.81308078  1
  Zn  Zn155  1  0.42495325  0.18895423  0.43703736  1
  Zn  Zn156  1  0.43855605  0.18555238  0.93745106  1
  Zn  Zn157  1  0.43947414  0.69136954  0.43652862  1
  Zn  Zn158  1  0.43913895  0.68147112  0.93245844  1
  Zn  Zn159  1  0.93825622  0.19080718  0.44271506  1
  Zn  Zn160  1  0.94038660  0.18404380  0.94305650  1
  Zn  Zn161  1  0.94040233  0.69129451  0.44027776  1
  Zn  Zn162  1  0.93664204  0.68747360  0.93580226  1
  Zn  Zn163  1  0.06262236  0.31224285  0.06161735  1
  Zn  Zn164  1  0.05911285  0.31360188  0.56169643  1
  Zn  Zn165  1  0.06474173  0.81202399  0.06484081  1
  Zn  Zn166  1  0.05899099  0.80605485  0.56598895  1
  Zn  Zn167  1  0.56382607  0.31173099  0.06310183  1
  Zn  Zn168  1  0.56201730  0.31312006  0.55876566  1
  Zn  Zn169  1  0.56433071  0.81256552  0.06070360  1
  Zn  Zn170  1  0.56255445  0.81457211  0.56324596  1
  O  O171  1  0.12162144  0.11687683  0.12225605  1
  O  O172  1  0.10777280  0.13143398  0.62358753  1
  O  O173  1  0.12866601  0.61854949  0.11094295  1
  O  O174  1  0.12816227  0.62710117  0.61092986  1
  O  O175  1  0.62111823  0.13101339  0.11316095  1
  O  O176  1  0.62510925  0.11589584  0.62738396  1
  O  O177  1  0.61842125  0.61926866  0.12107231  1
  O  O178  1  0.62993217  0.62052783  0.61250024  1
  O  O179  1  0.38202302  0.38897506  0.37769200  1
  O  O180  1  0.38374592  0.38417080  0.86730837  1
  O  O181  1  0.38535466  0.88986403  0.37141219  1
  O  O182  1  0.38703776  0.88142322  0.86754120  1
  O  O183  1  0.88157054  0.37307913  0.38901960  1
  O  O184  1  0.87976330  0.38065726  0.88089397  1
  O  O185  1  0.88187470  0.87842785  0.38250042  1
  O  O186  1  0.87172606  0.88233292  0.88059025  1
  O  O187  1  0.26746591  0.00678794  0.37435747  1
  O  O188  1  0.26719628  -0.00696303  0.88010390  1
  O  O189  1  0.25836102  0.50151446  0.36389447  1
  O  O190  1  0.25834155  0.49970942  0.87347269  1
  O  O191  1  0.76256630  0.00708307  0.37534664  1
  O  O192  1  0.76059959  0.00537485  0.87520833  1
  O  O193  1  0.74379387  0.51177947  0.36642402  1
  O  O194  1  0.75173587  0.50177666  0.87317751  1
  O  O195  1  0.24716822  0.49591390  0.12802279  1
  O  O196  1  0.25019030  0.48682963  0.62230322  1
  O  O197  1  0.23678599  0.99245433  0.11586784  1
  O  O198  1  0.25542078  0.98642414  0.62481499  1
  O  O199  1  0.74317422  0.49321209  0.13042993  1
  O  O200  1  0.74424454  0.49065502  0.63247088  1
  O  O201  1  0.75493355  0.97982600  0.12318010  1
  O  O202  1  0.75194585  1.00615022  0.64072669  1
  O  O203  1  0.00294824  0.36860251  0.25600956  1
  O  O204  1  -0.00211106  0.36762650  0.76479805  1
  O  O205  1  0.01099564  0.86422302  0.25597788  1
  O  O206  1  0.00294798  0.85629311  0.74631519  1
  O  O207  1  0.50339259  0.37448062  0.25800243  1
  O  O208  1  0.50617381  0.36655202  0.75897586  1
  O  O209  1  0.50244095  0.86576069  0.25542778  1
  O  O210  1  0.50982168  0.87242348  0.75936872  1
  O  O211  1  0.49135745  0.12782089  0.24268511  1
  O  O212  1  0.49962120  0.13917632  0.75678655  1
  O  O213  1  0.49961900  0.63719173  0.24330194  1
  O  O214  1  0.48395750  0.62666564  0.75276494  1
  O  O215  1  0.98927179  0.12921572  0.24741867  1
  O  O216  1  0.99827993  0.13976762  0.74288217  1
  O  O217  1  1.00100776  0.63856696  0.25425481  1
  O  O218  1  0.99626381  0.63629485  0.74987818  1
  O  O219  1  0.36198871  0.24093017  0.00670603  1
  O  O220  1  0.36344597  0.25784253  0.50294922  1
  O  O221  1  0.36344114  0.74589115  -0.00488682  1
  O  O222  1  0.37486876  0.74266931  0.51704092  1
  O  O223  1  0.86737876  0.24776031  0.01019423  1
  O  O224  1  0.87880282  0.26241092  0.51380776  1
  O  O225  1  0.86579373  0.74395310  0.00717189  1
  O  O226  1  0.87455517  0.75733937  0.51025165  1
  O  O227  1  0.13353847  0.25239001  0.49010810  1
  O  O228  1  0.13172580  0.24281105  0.99584150  1
  O  O229  1  0.12569926  0.74715475  0.48794252  1
  O  O230  1  0.12539498  0.74302886  0.99490327  1
  O  O231  1  0.62924764  0.26525385  0.47609017  1
  O  O232  1  0.63033596  0.24230052  0.99388811  1
  O  O233  1  0.62485275  0.74484831  0.49293651  1
  O  O234  1  0.63280824  0.74347462  0.99296220  1
  O  O235  1  0.49084527  0.24398853  0.12346862  1
  O  O236  1  0.49167136  0.25930828  0.63179783  1
  O  O237  1  0.50797610  0.74643235  0.13832334  1
  O  O238  1  0.48643690  0.75552731  0.62811471  1
  O  O239  1  0.99495198  0.24297159  0.13038043  1
  O  O240  1  0.99148483  0.25077380  0.63400186  1
  O  O241  1  0.99238311  0.75502268  0.13317739  1
  O  O242  1  0.99078226  0.74248073  0.63567012  1
  O  O243  1  0.00822640  0.25655572  0.37106721  1
  O  O244  1  0.00114682  0.25574976  0.87145806  1
  O  O245  1  0.00750019  0.75822459  0.36771526  1
  O  O246  1  0.00614902  0.74542069  0.86425698  1
  O  O247  1  0.49538434  0.26736994  0.37440490  1
  O  O248  1  0.50408270  0.25568290  0.86899785  1
  O  O249  1  0.50451687  0.76333482  0.36783674  1
  O  O250  1  0.50606517  0.75670939  0.87405536  1
  O  O251  1  0.24517135  0.13308509  0.48878171  1
  O  O252  1  0.23531514  0.13272910  1.00487533  1
  O  O253  1  0.23810868  0.63274989  0.49531226  1
  O  O254  1  0.24294561  0.63905497  0.99849729  1
  O  O255  1  0.76093877  0.12572599  0.49020357  1
  O  O256  1  0.74312378  0.12761089  0.99698330  1
  O  O257  1  0.74134926  0.62704828  0.49301449  1
  O  O258  1  0.74148066  0.63109320  0.99572180  1
  O  O259  1  0.24399057  0.36287873  0.00823609  1
  O  O260  1  0.25506155  0.36936542  0.50169020  1
  O  O261  1  0.24639752  0.86116089  0.00826434  1
  O  O262  1  0.25091078  0.87261556  0.51524141  1
  O  O263  1  0.74889548  0.36537726  0.00958405  1
  O  O264  1  0.76186223  0.37981206  0.50805701  1
  O  O265  1  0.74696194  0.86311346  0.00232071  1
  O  O266  1  0.76486963  0.87181637  0.49571865  1
  O  O267  1  0.13252902  0.49771871  0.24275454  1
  O  O268  1  0.12900033  0.49558374  0.74905417  1
  O  O269  1  0.12026159  0.98994805  0.24181654  1
  O  O270  1  0.12561392  0.99448681  0.76802695  1
  O  O271  1  0.63438252  0.50378577  0.23937444  1
  O  O272  1  0.62713581  0.49555639  0.74415439  1
  O  O273  1  0.63371063  1.01118750  0.23690168  1
  O  O274  1  0.63253594  0.99420569  0.74349822  1
  O  O275  1  0.37972173  0.01341905  0.25884746  1
  O  O276  1  0.37684924  0.00340641  0.76331853  1
  O  O277  1  0.36833556  0.50334364  0.25541083  1
  O  O278  1  0.37346490  0.50951688  0.75415237  1
  O  O279  1  0.87056729  0.00464629  0.25569655  1
  O  O280  1  0.86737490  -0.00679437  0.76711116  1
  O  O281  1  0.86088532  0.50329665  0.24347060  1
  O  O282  1  0.86431984  0.49730447  0.76109895  1
  O  O283  1  0.12029383  0.36818895  0.36876162  1
  O  O284  1  0.11452445  0.36296856  0.87785437  1
  O  O285  1  0.11976229  0.86784087  0.36812177  1
  O  O286  1  0.12507434  0.85996061  0.87847432  1
  O  O287  1  0.61108133  0.39246851  0.37322184  1
  O  O288  1  0.61914122  0.36756390  0.86927234  1
  O  O289  1  0.61471156  0.87101863  0.38060353  1
  O  O290  1  0.61601724  0.87000134  0.86862875  1
  O  O291  1  0.37676080  0.13117470  0.13023697  1
  O  O292  1  0.37538591  0.14115982  0.61802861  1
  O  O293  1  0.39050326  0.62137296  0.12498533  1
  O  O294  1  0.37111179  0.63148898  0.63509145  1
  O  O295  1  0.87896004  0.12652752  0.13289460  1
  O  O296  1  0.88617092  0.13689132  0.62420897  1
  O  O297  1  0.86855348  0.64090793  0.13097663  1
  O  O298  1  0.87369619  0.63425499  0.62827470  1
  O  O299  1  0.25657478  0.25467112  0.11844054  1
  O  O300  1  0.25409376  0.25932288  0.61402733  1
  O  O301  1  0.24845625  0.75759927  0.11118024  1
  O  O302  1  0.26028286  0.76263032  0.62406298  1
  O  O303  1  0.75101093  0.25426297  0.12654966  1
  O  O304  1  0.75745030  0.26282716  0.63203868  1
  O  O305  1  0.75465039  0.75684747  0.11920558  1
  O  O306  1  0.76377934  0.74987337  0.62742831  1
  O  O307  1  0.24694042  0.24732730  0.38023145  1
  O  O308  1  0.24051143  0.25600936  0.88368810  1
  O  O309  1  0.24350720  0.75243733  0.37568527  1
  O  O310  1  0.24405127  0.75112690  0.88591561  1
  O  O311  1  0.76123981  0.23443257  0.37700668  1
  O  O312  1  0.74523862  0.24237914  0.88039839  1
  O  O313  1  0.74118600  0.74455141  0.37683634  1
  O  O314  1  0.74552810  0.74416425  0.88148733  1
  O  O315  1  0.01078462  0.11897761  0.01016808  1
  O  O316  1  0.00216625  0.12988417  0.51662435  1
  O  O317  1  0.00745186  0.61457358  -0.00460857  1
  O  O318  1  0.01823001  0.63113978  0.49903936  1
  O  O319  1  0.50786867  0.11743445  0.00435415  1
  O  O320  1  0.52875454  0.14842298  0.45772606  1
  O  O321  1  0.50918474  0.62522746  0.00813258  1
  O  O322  1  0.50898287  0.61691695  0.49376605  1
  O  O323  1  0.49283463  0.38743386  0.49164313  1
  O  O324  1  0.50550062  0.37489702  0.98585439  1
  O  O325  1  0.49737810  0.87309563  0.48701857  1
  O  O326  1  0.50486135  0.88369423  0.99156982  1
  O  O327  1  0.98813808  0.37449211  0.49181232  1
  O  O328  1  0.99777553  0.38005661  0.99046913  1
  O  O329  1  0.99458094  0.86855926  0.48916180  1
  O  O330  1  1.00428974  0.88846213  1.00415564  1
  O  O331  1  0.49264852  0.50102472  0.37923801  1
  O  O332  1  0.49253990  0.49027532  0.87714270  1
  O  O333  1  0.49465978  0.98852281  0.37163253  1
  O  O334  1  0.49448800  0.99253322  0.88088513  1
  O  O335  1  1.00475357  0.48709450  0.36686195  1
  O  O336  1  0.99427644  0.49242917  0.88354615  1
  O  O337  1  0.98265466  0.98546331  0.36189418  1
  O  O338  1  0.98195017  1.00509509  0.88366324  1
  O  O339  1  0.00738579  0.00254944  0.12021247  1
  O  O340  1  -0.00712293  0.01657711  0.63363821  1
  O  O341  1  0.00477108  0.49256889  0.11156108  1
  O  O342  1  0.00035393  0.50459176  0.62733380  1
  O  O343  1  0.49946882  0.00491978  0.11566517  1
  O  O344  1  0.51109694  0.00309347  0.63010099  1
  O  O345  1  0.50806004  0.50764272  0.12556214  1
  O  O346  1  0.50156825  0.49366656  0.61442094  1
  O  O347  1  0.24652940  0.38639988  0.24224624  1
  O  O348  1  0.24819851  0.37433654  0.73792695  1
  O  O349  1  0.23653604  0.86778428  0.24109852  1
  O  O350  1  0.24420462  0.87688741  0.73621922  1
  O  O351  1  0.74732393  0.38218536  0.24838227  1
  O  O352  1  0.74201726  0.38147463  0.74483138  1
  O  O353  1  0.75140740  0.87196640  0.24118744  1
  O  O354  1  0.73834884  0.88698741  0.75997592  1
  O  O355  1  0.25779006  0.12967000  0.26127284  1
  O  O356  1  0.25761754  0.12815449  0.74265466  1
  O  O357  1  0.25223113  0.61572238  0.24786537  1
  O  O358  1  0.26289961  0.62376780  0.75176833  1
  O  O359  1  0.76716975  0.12579903  0.25650967  1
  O  O360  1  0.74424402  0.11426352  0.76473177  1
  O  O361  1  0.75023371  0.61916280  0.25965473  1
  O  O362  1  0.74858894  0.61439497  0.75898478  1
  O  O363  1  0.36760469  0.11885411  0.36688210  1
  O  O364  1  0.37890865  0.11049176  0.87379449  1
  O  O365  1  0.37412282  0.61702246  0.37157385  1
  O  O366  1  0.37293505  0.61504076  0.86471283  1
  O  O367  1  0.87380786  0.11751442  0.37247577  1
  O  O368  1  0.86399153  0.12418834  0.88042369  1
  O  O369  1  0.86272202  0.63327549  0.37528862  1
  O  O370  1  0.86515080  0.61523862  0.87502194  1
  O  O371  1  0.13049142  0.38200742  0.12946123  1
  O  O372  1  0.13369137  0.37471208  0.62391253  1
  O  O373  1  0.13123212  0.88144670  0.13253869  1
  O  O374  1  0.13408720  0.87114905  0.62562577  1
  O  O375  1  0.63010692  0.38107278  0.13146176  1
  O  O376  1  0.63244368  0.38001907  0.62736679  1
  O  O377  1  0.64455466  0.86961479  0.12126960  1
  O  O378  1  0.62264205  0.87827067  0.63802717  1
  O  O379  1  0.12067741  0.25995372  0.25255798  1
  O  O380  1  0.11396715  0.25514424  0.75939852  1
  O  O381  1  0.12085170  0.75333651  0.25804072  1
  O  O382  1  0.11645239  0.74769376  0.75879022  1
  O  O383  1  0.61662720  0.24380347  0.27842763  1
  O  O384  1  0.62014493  0.25431653  0.75461875  1
  O  O385  1  0.61468527  0.74578158  0.26383508  1
  O  O386  1  0.62539066  0.75674783  0.75630894  1
  O  O387  1  0.37549485  0.24135057  0.24020877  1
  O  O388  1  0.38478425  0.25111927  0.73976060  1
  O  O389  1  0.39139532  0.75140713  0.25473789  1
  O  O390  1  0.37620291  0.73951483  0.74009259  1
  O  O391  1  0.88169457  0.24351589  0.24598032  1
  O  O392  1  0.88196757  0.25951787  0.73755502  1
  O  O393  1  0.88614393  0.74866008  0.24407905  1
  O  O394  1  0.88278387  0.74879413  0.74628124  1
  O  O395  1  0.37999378  0.50136218  0.49290729  1
  O  O396  1  0.37733696  0.50509171  0.98630221  1
  O  O397  1  0.38092010  1.01169234  0.48469819  1
  O  O398  1  0.38631789  1.00436288  0.98899881  1
  O  O399  1  0.87354559  0.48961873  0.50178952  1
  O  O400  1  0.88140440  0.49957793  0.99679931  1
  O  O401  1  0.87738187  0.99045333  0.49342027  1
  O  O402  1  0.88272000  1.00244487  0.98921781  1
  O  O403  1  0.11839285  0.00701738  0.00406005  1
  O  O404  1  0.11763993  0.01537083  0.44603397  1
  O  O405  1  0.11790176  0.50668824  0.00189849  1
  O  O406  1  0.12951018  0.51394907  0.49864203  1
  O  O407  1  0.61667028  0.00644799  0.00404769  1
  O  O408  1  0.63050976  -0.00537929  0.52185916  1
  O  O409  1  0.62392462  0.50571655  0.01378228  1
  O  O410  1  0.61663687  0.50797169  0.50661546  1
  O  O411  1  0.37119765  0.36212164  0.12774692  1
  O  O412  1  0.36793522  0.36714780  0.61695475  1
  O  O413  1  0.36000735  0.88410468  0.13264502  1
  O  O414  1  0.37016833  0.86450757  0.63119345  1
  O  O415  1  0.86591149  0.36629510  0.12505683  1
  O  O416  1  0.86820858  0.37266390  0.61550169  1
  O  O417  1  0.86292398  0.86053390  0.12854899  1
  O  O418  1  0.88354552  0.86698973  0.61690124  1
  O  O419  1  0.13495693  0.14523372  0.35940864  1
  O  O420  1  0.11466416  0.13969739  0.88536272  1
  O  O421  1  0.12947697  0.63336723  0.38296181  1
  O  O422  1  0.12887183  0.63284857  0.88632266  1
  O  O423  1  0.64797691  0.12218560  0.37192422  1
  O  O424  1  0.63146258  0.12759040  0.88740624  1
  O  O425  1  0.63145661  0.63476445  0.38485705  1
  O  O426  1  0.62797777  0.62979894  0.88113453  1
