# generated using pymatgen
data_V85Zn86O256
_symmetry_space_group_name_H-M   'P 1'
_cell_length_a   16.93312943
_cell_length_b   16.92783283
_cell_length_c   16.94583589
_cell_angle_alpha   89.96710551
_cell_angle_beta   89.99292916
_cell_angle_gamma   89.98351297
_symmetry_Int_Tables_number   1
_chemical_formula_structural   V85Zn86O256
_chemical_formula_sum   'V85 Zn86 O256'
_cell_volume   4857.37342884
_cell_formula_units_Z   1
loop_
 _symmetry_equiv_pos_site_id
 _symmetry_equiv_pos_as_xyz
  1  'x, y, z'
loop_
 _atom_site_type_symbol
 _atom_site_label
 _atom_site_symmetry_multiplicity
 _atom_site_fract_x
 _atom_site_fract_y
 _atom_site_fract_z
 _atom_site_occupancy
  V  V0  1  0.00833841  0.12643500  0.61918633  1
  V  V1  1  0.50230579  0.25549115  0.24887717  1
  V  V2  1  0.63119817  -0.01419502  0.62693434  1
  V  V3  1  0.86496166  0.86866541  0.50255314  1
  V  V4  1  0.00820563  0.86513639  0.87273324  1
  V  V5  1  0.75282945  0.25420401  0.50060204  1
  V  V6  1  0.12384276  0.25034524  0.87263999  1
  V  V7  1  0.25054945  0.24965683  0.00169201  1
  V  V8  1  0.00244611  0.62968819  0.62806812  1
  V  V9  1  0.87186289  0.24877151  0.12855322  1
  V  V10  1  0.25035413  0.62556990  0.38098321  1
  V  V11  1  0.24981128  0.86919286  0.12006792  1
  V  V12  1  0.87127534  0.38018302  -0.00285452  1
  V  V13  1  0.12527641  0.87391278  0.25178935  1
  V  V14  1  0.75292826  0.00446880  0.24990411  1
  V  V15  1  0.50161026  0.25036157  0.74775817  1
  V  V16  1  0.49764590  0.50489771  -0.00409605  1
  V  V17  1  -0.00241393  0.74790449  0.25318213  1
  V  V18  1  0.24904365  0.38499131  0.62675957  1
  V  V19  1  0.37490843  0.37906750  0.49782032  1
  V  V20  1  -0.00305493  0.12534937  0.12741563  1
  V  V21  1  0.50655680  0.38346509  0.37262415  1
  V  V22  1  0.75682056  0.49889493  0.75562682  1
  V  V23  1  0.25073292  0.50116519  0.25097249  1
  V  V24  1  0.62659619  0.25584576  0.36915119  1
  V  V25  1  0.87680496  0.00480456  0.37357778  1
  V  V26  1  0.62466687  0.62723022  -0.00369700  1
  V  V27  1  -0.00304960  0.50125840  -0.00535974  1
  V  V28  1  0.75182201  0.87498178  0.12407872  1
  V  V29  1  0.87005490  0.39110271  0.49562558  1
  V  V30  1  0.50266665  0.12317339  0.62245163  1
  V  V31  1  0.37463239  0.25083786  0.62188906  1
  V  V32  1  0.62627467  0.12607736  0.49975967  1
  V  V33  1  0.25189122  0.00044368  0.25268018  1
  V  V34  1  0.50783698  0.63440996  0.63133921  1
  V  V35  1  0.37283251  0.86942767  -0.00329436  1
  V  V36  1  0.24965306  0.12203440  0.87064973  1
  V  V37  1  0.62247581  0.76376964  0.86748236  1
  V  V38  1  0.12662070  0.86440594  0.74336350  1
  V  V39  1  0.75144137  0.12487510  0.87302812  1
  V  V40  1  0.49696872  0.63172303  0.11979284  1
  V  V41  1  0.74938491  0.25135290  -0.00017056  1
  V  V42  1  0.62453877  -0.00034569  0.12549837  1
  V  V43  1  0.87808621  0.62723294  0.75777280  1
  V  V44  1  -0.00058461  0.87068255  0.37804897  1
  V  V45  1  -0.00574074  0.24661605  0.25193248  1
  V  V46  1  0.87508398  0.75395046  0.12553922  1
  V  V47  1  0.49892484  0.37708064  0.87362837  1
  V  V48  1  0.24366216  0.64184851  0.87013974  1
  V  V49  1  0.62429250  0.38277721  0.74387948  1
  V  V50  1  0.12694522  0.38578807  0.74861960  1
  V  V51  1  0.38533204  -0.00778206  0.37405883  1
  V  V52  1  -0.00318028  -0.00372711  0.00014242  1
  V  V53  1  0.12559687  0.00063253  0.12553240  1
  V  V54  1  0.00704156  0.00331860  0.50165338  1
  V  V55  1  0.12432257  0.74415770  0.38233598  1
  V  V56  1  0.51570180  0.50067553  0.51478753  1
  V  V57  1  0.37830814  0.62723553  0.24979632  1
  V  V58  1  0.12342183  0.12519749  -0.00092525  1
  V  V59  1  0.37532006  0.24929132  0.12647521  1
  V  V60  1  0.86990516  0.61449927  0.25580938  1
  V  V61  1  0.85960187  0.75043522  0.62909972  1
  V  V62  1  0.87671532  -0.00791317  0.87808804  1
  V  V63  1  -0.00385588  0.37811318  0.87289109  1
  V  V64  1  0.75436864  0.75224203  -0.00071731  1
  V  V65  1  0.69713700  0.68072289  0.43958629  1
  V  V66  1  0.87617672  0.12629085  0.74707758  1
  V  V67  1  0.35885664  0.49921934  0.86893986  1
  V  V68  1  0.62399061  0.12507181  -0.00311679  1
  V  V69  1  0.37386461  0.12536338  0.74560685  1
  V  V70  1  0.73758498  0.49705873  0.25701418  1
  V  V71  1  0.00034695  0.25303627  0.74716756  1
  V  V72  1  0.38045459  -0.00340399  0.87004233  1
  V  V73  1  0.75334452  0.12750688  0.37096585  1
  V  V74  1  0.12452748  0.37415056  0.25098876  1
  V  V75  1  0.25100827  0.75255074  0.51231994  1
  V  V76  1  0.24526296  0.24659024  0.49918782  1
  V  V77  1  0.62088940  0.86788046  0.25968925  1
  V  V78  1  -0.00060060  0.62516209  0.12369761  1
  V  V79  1  0.13128510  0.63730810  -0.00004488  1
  V  V80  1  0.00723753  0.50767122  0.49511546  1
  V  V81  1  0.49987814  -0.00525485  -0.00336542  1
  V  V82  1  0.12360753  0.24372184  0.37796161  1
  V  V83  1  0.12534951  0.50003843  0.12452969  1
  V  V84  1  0.38228026  0.86628600  0.50700957  1
  Zn  Zn85  1  0.87437120  0.25325813  0.62194429  1
  Zn  Zn86  1  0.74452766  0.38216211  0.62067957  1
  Zn  Zn87  1  0.49925138  0.12541799  0.12526742  1
  Zn  Zn88  1  0.25193195  0.37573888  0.12627045  1
  Zn  Zn89  1  0.24887367  -0.00918041  0.73624150  1
  Zn  Zn90  1  0.37318494  0.37480626  -0.00013667  1
  Zn  Zn91  1  0.12766435  -0.00562728  0.62250035  1
  Zn  Zn92  1  0.49696187  0.75971436  0.27177671  1
  Zn  Zn93  1  0.74391435  -0.01133587  0.74871722  1
  Zn  Zn94  1  0.37703267  0.12535929  0.25384360  1
  Zn  Zn95  1  0.36718521  0.63091039  0.73927200  1
  Zn  Zn96  1  0.61938116  0.49750584  0.13297522  1
  Zn  Zn97  1  0.49455094  0.76591842  0.74340873  1
  Zn  Zn98  1  0.50596951  -0.00945103  0.49475909  1
  Zn  Zn99  1  0.12874247  0.50852015  0.62394276  1
  Zn  Zn100  1  0.24962488  0.12047475  0.38042739  1
  Zn  Zn101  1  0.37916504  0.50189705  0.37522105  1
  Zn  Zn102  1  0.62426007  0.25066502  0.87332232  1
  Zn  Zn103  1  -0.00426698  0.38020367  0.37337196  1
  Zn  Zn104  1  0.73682704  0.37726300  0.12697050  1
  Zn  Zn105  1  0.37321672  0.75088243  0.12234708  1
  Zn  Zn106  1  0.75435268  0.62141800  0.87882814  1
  Zn  Zn107  1  0.18710748  0.18594920  0.18979856  1
  Zn  Zn108  1  0.18757205  0.19115680  0.68546038  1
  Zn  Zn109  1  0.18763524  0.68771550  0.18989322  1
  Zn  Zn110  1  0.18032739  0.69230752  0.69178630  1
  Zn  Zn111  1  0.68637601  0.18865214  0.18609486  1
  Zn  Zn112  1  0.68654688  0.18749295  0.68785573  1
  Zn  Zn113  1  0.68694388  0.68357528  0.18846150  1
  Zn  Zn114  1  0.68312687  0.68133176  0.68848384  1
  Zn  Zn115  1  0.31381539  0.31408698  0.31393612  1
  Zn  Zn116  1  0.31103370  0.31298089  0.81039590  1
  Zn  Zn117  1  0.31312296  0.81183916  0.31376798  1
  Zn  Zn118  1  0.31344721  0.81269276  0.80664719  1
  Zn  Zn119  1  0.81147131  0.32325601  0.31292959  1
  Zn  Zn120  1  0.81201732  0.31320639  0.81350471  1
  Zn  Zn121  1  0.80930525  0.81050332  0.31452862  1
  Zn  Zn122  1  0.81366693  0.81015928  0.81407331  1
  Zn  Zn123  1  0.18538371  0.43609651  0.43603934  1
  Zn  Zn124  1  0.18168707  0.43581175  0.94088932  1
  Zn  Zn125  1  0.19163670  0.93232003  0.43971497  1
  Zn  Zn126  1  0.18753347  0.93710559  0.93397716  1
  Zn  Zn127  1  0.68684596  0.45615510  0.42841826  1
  Zn  Zn128  1  0.68445067  0.43881187  0.93479504  1
  Zn  Zn129  1  0.68682222  0.93816220  0.43778368  1
  Zn  Zn130  1  0.69516076  0.93933317  0.94226314  1
  Zn  Zn131  1  0.31395009  0.06190821  0.06293611  1
  Zn  Zn132  1  0.31278766  0.05745203  0.55839759  1
  Zn  Zn133  1  0.31271589  0.56289875  0.06000597  1
  Zn  Zn134  1  0.31916469  0.56687195  0.56224696  1
  Zn  Zn135  1  0.81407602  0.06491951  0.06307127  1
  Zn  Zn136  1  0.81542410  0.06189100  0.56066197  1
  Zn  Zn137  1  0.80957198  0.56247605  0.06916200  1
  Zn  Zn138  1  0.80112666  0.56341115  0.57717104  1
  Zn  Zn139  1  0.43900862  0.43886863  0.18541346  1
  Zn  Zn140  1  0.43166060  0.44156502  0.69043654  1
  Zn  Zn141  1  0.43916054  0.93619293  0.18489361  1
  Zn  Zn142  1  0.43544659  0.94124368  0.67985457  1
  Zn  Zn143  1  0.93704160  0.43416721  0.18232962  1
  Zn  Zn144  1  0.93410986  0.44098402  0.68004090  1
  Zn  Zn145  1  0.93643853  0.93706467  0.18997816  1
  Zn  Zn146  1  0.91090716  0.91940286  0.70591505  1
  Zn  Zn147  1  0.06229517  0.06417962  0.31330032  1
  Zn  Zn148  1  0.06264128  0.05754675  0.80610831  1
  Zn  Zn149  1  0.05977232  0.56450415  0.31430520  1
  Zn  Zn150  1  0.06224679  0.56717105  0.81370073  1
  Zn  Zn151  1  0.56507201  0.06649821  0.30964732  1
  Zn  Zn152  1  0.56204427  -0.06203086  0.80987698  1
  Zn  Zn153  1  0.55857079  0.59208458  0.33141221  1
  Zn  Zn154  1  0.56394443  0.56532087  0.81163675  1
  Zn  Zn155  1  0.43573021  0.18605449  0.43474087  1
  Zn  Zn156  1  0.43779797  0.18537668  0.93572250  1
  Zn  Zn157  1  0.44323806  0.68401942  0.44250545  1
  Zn  Zn158  1  0.42475302  0.70139295  0.90574430  1
  Zn  Zn159  1  0.93585230  0.18919688  0.43761435  1
  Zn  Zn160  1  0.93634133  0.18845842  0.93808651  1
  Zn  Zn161  1  0.88785807  0.65957519  0.46013936  1
  Zn  Zn162  1  0.93676225  0.68740128  0.94038314  1
  Zn  Zn163  1  0.06110804  0.31385120  0.06379096  1
  Zn  Zn164  1  0.05933843  0.31850553  0.56149249  1
  Zn  Zn165  1  0.06029269  0.81557135  0.06239081  1
  Zn  Zn166  1  0.05744815  0.80821041  0.56190029  1
  Zn  Zn167  1  0.56196611  0.31538977  0.06024095  1
  Zn  Zn168  1  0.56356102  0.31384006  0.55941907  1
  Zn  Zn169  1  0.56431350  0.81328787  0.06175052  1
  Zn  Zn170  1  0.56684590  0.80528861  0.55309510  1
  O  O171  1  0.11823916  0.11968221  0.12033178  1
  O  O172  1  0.11048872  0.12880667  0.62807210  1
  O  O173  1  0.12093236  0.62144049  0.11670203  1
  O  O174  1  0.10780809  0.62534026  0.63010975  1
  O  O175  1  0.62636248  0.11910516  0.11229844  1
  O  O176  1  0.61754247  0.12534012  0.61715752  1
  O  O177  1  0.61616063  0.62320895  0.11263002  1
  O  O178  1  0.60864483  0.61839429  0.62880924  1
  O  O179  1  0.38646864  0.37681650  0.38191961  1
  O  O180  1  0.37829474  0.38490685  0.87438379  1
  O  O181  1  0.37345824  0.88689357  0.37924227  1
  O  O182  1  0.36154757  0.89198370  0.88220816  1
  O  O183  1  0.87935746  0.37179211  0.39200259  1
  O  O184  1  0.88151201  0.36975520  0.88892384  1
  O  O185  1  0.88124393  0.87936388  0.38176121  1
  O  O186  1  0.88908347  0.88873446  0.87978456  1
  O  O187  1  0.25767561  -0.00071204  0.36832111  1
  O  O188  1  0.25503198  0.01428968  0.87472075  1
  O  O189  1  0.24902336  0.50905500  0.37017949  1
  O  O190  1  0.25754358  0.49628563  0.87920089  1
  O  O191  1  0.75743523  0.00488894  0.36802172  1
  O  O192  1  0.76048923  0.00693603  0.87382031  1
  O  O193  1  0.76350125  0.49346923  0.35520106  1
  O  O194  1  0.74877044  0.50228998  0.86301529  1
  O  O195  1  0.24334708  0.49840846  0.13120302  1
  O  O196  1  0.24798376  0.48915731  0.61601749  1
  O  O197  1  0.24586530  0.99351064  0.13249517  1
  O  O198  1  0.24038141  1.00824807  0.62393176  1
  O  O199  1  0.74484871  0.49896324  0.13688078  1
  O  O200  1  0.74441726  0.49679720  0.64647483  1
  O  O201  1  0.74934925  0.99393518  0.13110840  1
  O  O202  1  0.73396978  1.00870086  0.62274715  1
  O  O203  1  0.00606136  0.36584872  0.25005780  1
  O  O204  1  0.00275496  0.37130033  0.75174313  1
  O  O205  1  0.00307137  0.87060430  0.26121302  1
  O  O206  1  0.00484426  0.88042045  0.76744277  1
  O  O207  1  0.49489682  0.36573163  0.25883504  1
  O  O208  1  0.50405567  0.37390916  0.75776642  1
  O  O209  1  0.51468447  0.87348477  0.24589470  1
  O  O210  1  0.48899914  0.87794467  0.75232964  1
  O  O211  1  0.49973475  0.14085974  0.24825386  1
  O  O212  1  0.49154736  0.13362168  0.73276525  1
  O  O213  1  0.48495146  0.61333740  0.23515661  1
  O  O214  1  0.49901186  0.62558597  0.73945448  1
  O  O215  1  1.00368662  0.13847334  0.24419963  1
  O  O216  1  0.99590910  0.13610160  0.74427702  1
  O  O217  1  0.99489294  0.62916149  0.24054434  1
  O  O218  1  0.99138272  0.61619515  0.73787623  1
  O  O219  1  0.36708353  0.24935302  0.00614923  1
  O  O220  1  0.36959872  0.26182959  0.50131692  1
  O  O221  1  0.38025583  0.76710689  -0.00536547  1
  O  O222  1  0.36853463  0.75925176  0.49181132  1
  O  O223  1  0.86920526  0.25657219  0.00677170  1
  O  O224  1  0.86529685  0.25858573  0.49908468  1
  O  O225  1  0.86272034  0.74500160  0.00927092  1
  O  O226  1  0.87661638  0.76432922  0.50548200  1
  O  O227  1  0.13191903  0.26168262  0.48910679  1
  O  O228  1  0.13025598  0.24511138  0.99499113  1
  O  O229  1  0.13613987  0.75615550  0.49116256  1
  O  O230  1  0.12101547  0.73554090  1.00607396  1
  O  O231  1  0.63299338  0.24840241  0.48791833  1
  O  O232  1  0.62881118  0.24096859  0.99630575  1
  O  O233  1  0.63655292  0.73754806  0.49731564  1
  O  O234  1  0.63768444  0.74724626  0.99709380  1
  O  O235  1  0.49305652  0.24966127  0.13146145  1
  O  O236  1  0.49347751  0.24692235  0.62677425  1
  O  O237  1  0.49849299  0.73802310  0.12260825  1
  O  O238  1  0.50429021  0.73905118  0.62620327  1
  O  O239  1  0.99313871  0.24654929  0.13190999  1
  O  O240  1  0.99668121  0.24638700  0.62914657  1
  O  O241  1  0.99243596  0.74818024  0.13006961  1
  O  O242  1  0.98893833  0.73181241  0.61535502  1
  O  O243  1  0.00551774  0.25210100  0.36778340  1
  O  O244  1  0.00487281  0.25616366  0.86867096  1
  O  O245  1  0.00851858  0.75749136  0.37149492  1
  O  O246  1  -0.00276153  0.76773013  0.88630195  1
  O  O247  1  0.50714398  0.25798027  0.36896301  1
  O  O248  1  0.49664605  0.25969267  0.86762431  1
  O  O249  1  0.51893783  0.69934808  0.36324559  1
  O  O250  1  0.52397259  0.75739616  0.88694279  1
  O  O251  1  0.25547095  0.14345307  0.49938460  1
  O  O252  1  0.24527132  0.13340722  0.99394131  1
  O  O253  1  0.25836565  0.63429113  0.48736174  1
  O  O254  1  0.23528532  0.62112532  0.99523096  1
  O  O255  1  0.74794045  0.13522291  0.49151713  1
  O  O256  1  0.74526567  0.13046445  0.99444460  1
  O  O257  1  0.77758788  0.63437895  0.49326956  1
  O  O258  1  0.74228717  0.63225638  1.00039757  1
  O  O259  1  0.24816132  0.36049111  0.00176086  1
  O  O260  1  0.25674703  0.36905891  0.50362262  1
  O  O261  1  0.25853964  0.88564472  0.00958999  1
  O  O262  1  0.26202876  0.85978595  0.49403273  1
  O  O263  1  0.75626749  0.37044796  -0.00103209  1
  O  O264  1  0.75681916  0.37453025  0.49721666  1
  O  O265  1  0.75051178  0.86917742  0.01563462  1
  O  O266  1  0.76689678  0.88206014  0.49712375  1
  O  O267  1  0.12811588  0.49390422  0.24547121  1
  O  O268  1  0.12030200  0.48860571  0.74855883  1
  O  O269  1  0.13133745  0.99410790  0.24679246  1
  O  O270  1  0.12739946  0.98710228  0.74750318  1
  O  O271  1  0.63602896  0.51446859  0.25518104  1
  O  O272  1  0.63440131  0.49039713  0.75898155  1
  O  O273  1  0.63197226  0.99380058  0.24400470  1
  O  O274  1  0.62776892  0.99731168  0.73308498  1
  O  O275  1  0.37009808  -0.00144387  0.25819087  1
  O  O276  1  0.36912003  0.00834468  0.75528857  1
  O  O277  1  0.36610887  0.50586315  0.25059997  1
  O  O278  1  0.37344530  0.50586819  0.76678731  1
  O  O279  1  0.86549426  -0.00619166  0.26109046  1
  O  O280  1  0.88973739  0.02056973  0.76419313  1
  O  O281  1  0.87571925  0.51206436  0.23937639  1
  O  O282  1  0.86469392  0.50569418  0.74905411  1
  O  O283  1  0.12103838  0.36816801  0.36326701  1
  O  O284  1  0.11818885  0.36915432  0.86795369  1
  O  O285  1  0.11902579  0.86697505  0.36980680  1
  O  O286  1  0.11343536  0.87923042  0.86949234  1
  O  O287  1  0.61415832  0.37018457  0.37852378  1
  O  O288  1  0.61362185  0.37239139  0.86748770  1
  O  O289  1  0.62927136  0.87948303  0.35834794  1
  O  O290  1  0.63520334  0.86982857  0.87343144  1
  O  O291  1  0.37626770  0.13701109  0.12730088  1
  O  O292  1  0.38229320  0.13123451  0.62353097  1
  O  O293  1  0.37772853  0.63006489  0.12855748  1
  O  O294  1  0.39407608  0.61521953  0.62932131  1
  O  O295  1  0.88082879  0.14000188  0.12139485  1
  O  O296  1  0.88253004  0.12747561  0.63315747  1
  O  O297  1  0.88121989  0.63652454  0.13026520  1
  O  O298  1  0.88044790  0.63127751  0.63576260  1
  O  O299  1  0.25573801  0.24921327  0.11844106  1
  O  O300  1  0.25434401  0.26067814  0.61671288  1
  O  O301  1  0.24984945  0.76541661  0.13028909  1
  O  O302  1  0.24775548  0.73953937  0.61097112  1
  O  O303  1  0.75648826  0.25258742  0.11957286  1
  O  O304  1  0.74869782  0.25188739  0.61013842  1
  O  O305  1  0.75593177  0.75605417  0.12134108  1
  O  O306  1  0.75984664  0.74536349  0.63048599  1
  O  O307  1  0.24186315  0.25111564  0.38120948  1
  O  O308  1  0.24717843  0.24142750  0.88223107  1
  O  O309  1  0.24193280  0.74305790  0.37767103  1
  O  O310  1  0.24764549  0.73894569  0.88077975  1
  O  O311  1  0.74421851  0.24969324  0.37858920  1
  O  O312  1  0.74924231  0.24181410  0.88184390  1
  O  O313  1  0.74325849  0.73820706  0.36882529  1
  O  O314  1  0.74427471  0.75040583  0.88441635  1
  O  O315  1  0.00547961  0.11894399  0.00603341  1
  O  O316  1  -0.00627949  0.11736468  0.50720562  1
  O  O317  1  0.00826755  0.61875919  0.00333435  1
  O  O318  1  -0.01334216  0.61205321  0.50832694  1
  O  O319  1  0.50919945  0.11639868  -0.00138954  1
  O  O320  1  0.50602479  0.12820485  0.50848892  1
  O  O321  1  0.50342536  0.62063939  0.00116628  1
  O  O322  1  0.49705314  0.60648582  0.51461987  1
  O  O323  1  0.49341907  0.38088498  0.49348321  1
  O  O324  1  0.49681636  0.38200068  0.98560443  1
  O  O325  1  0.48805009  0.87092247  0.49628077  1
  O  O326  1  0.49255235  0.88824303  1.00648181  1
  O  O327  1  0.98831555  0.39018504  0.50072421  1
  O  O328  1  0.99403586  0.38234730  0.99555064  1
  O  O329  1  0.99527647  0.88042627  0.48811783  1
  O  O330  1  1.00736009  0.88970345  0.99236460  1
  O  O331  1  0.50099659  0.49595383  0.38753043  1
  O  O332  1  0.48918110  0.49647185  0.87901311  1
  O  O333  1  0.48842276  1.00483926  0.37339964  1
  O  O334  1  0.49146577  1.00123843  0.88285026  1
  O  O335  1  1.00191718  0.50026076  0.38962825  1
  O  O336  1  1.00462694  0.49508832  0.88751462  1
  O  O337  1  0.99283961  0.99426753  0.37655480  1
  O  O338  1  0.99542276  1.00071306  0.88536567  1
  O  O339  1  0.00277356  0.00376432  0.12036813  1
  O  O340  1  0.00168112  0.01064329  0.61408841  1
  O  O341  1  0.00598340  0.50454612  0.11530504  1
  O  O342  1  0.00095659  0.51024067  0.61413126  1
  O  O343  1  0.50581097  0.00526872  0.11734461  1
  O  O344  1  0.51117539  0.00943008  0.61791094  1
  O  O345  1  0.49633339  0.51037623  0.11199120  1
  O  O346  1  0.50031809  0.49309708  0.61634081  1
  O  O347  1  0.24177809  0.38145239  0.25013896  1
  O  O348  1  0.23973333  0.36990099  0.73895740  1
  O  O349  1  0.24656783  0.88450070  0.24403428  1
  O  O350  1  0.23265865  0.87269153  0.75463853  1
  O  O351  1  0.75281401  0.39123809  0.24382905  1
  O  O352  1  0.74348391  0.38271430  0.75240457  1
  O  O353  1  0.74332493  0.88336824  0.24198811  1
  O  O354  1  0.80134759  0.89290576  0.74215172  1
  O  O355  1  0.25135730  0.11033465  0.25017959  1
  O  O356  1  0.25632136  0.13163587  0.75819467  1
  O  O357  1  0.25891156  0.62196901  0.25637657  1
  O  O358  1  0.24684704  0.62995214  0.76549895  1
  O  O359  1  0.74477175  0.11228874  0.25356771  1
  O  O360  1  0.75828685  0.12351844  0.75753576  1
  O  O361  1  0.76306663  0.61514173  0.24254438  1
  O  O362  1  0.75741605  0.61476055  0.75432905  1
  O  O363  1  0.37066748  0.11098608  0.37378740  1
  O  O364  1  0.36872514  0.11696035  0.86913182  1
  O  O365  1  0.36638777  0.62184433  0.36579058  1
  O  O366  1  0.35266370  0.61111967  0.88714851  1
  O  O367  1  0.86996475  0.11287540  0.37766106  1
  O  O368  1  0.86608367  0.12197151  0.87186407  1
  O  O369  1  0.88566135  0.62575767  0.35249717  1
  O  O370  1  0.87654619  0.62924308  0.86287406  1
  O  O371  1  0.12613074  0.37850724  0.13650349  1
  O  O372  1  0.13180367  0.37754106  0.63241641  1
  O  O373  1  0.13023199  0.88185256  0.13037330  1
  O  O374  1  0.11171475  0.87302034  0.63991509  1
  O  O375  1  0.62234753  0.38402812  0.12082217  1
  O  O376  1  0.62542251  0.36697580  0.64048254  1
  O  O377  1  0.63387470  0.88262468  0.12987602  1
  O  O378  1  0.62346778  0.88796601  0.61373446  1
  O  O379  1  0.11882468  0.25725710  0.25469056  1
  O  O380  1  0.11840644  0.26005274  0.75474025  1
  O  O381  1  0.11784198  0.75561762  0.25651549  1
  O  O382  1  0.11713719  0.76455985  0.75361692  1
  O  O383  1  0.61960086  0.24854459  0.26123250  1
  O  O384  1  0.61691556  0.25558588  0.75373046  1
  O  O385  1  0.62579439  0.76580275  0.24128418  1
  O  O386  1  0.62378868  0.74844774  0.76566672  1
  O  O387  1  0.38135382  0.24893986  0.24359783  1
  O  O388  1  0.38063302  0.24633596  0.74250367  1
  O  O389  1  0.37997204  0.74274639  0.24783920  1
  O  O390  1  0.39124838  0.73395972  0.79115747  1
  O  O391  1  0.88262088  0.25815158  0.24213178  1
  O  O392  1  0.88046195  0.24207799  0.74911503  1
  O  O393  1  0.87891817  0.74251833  0.24333416  1
  O  O394  1  0.87562737  0.73879947  0.74248643  1
  O  O395  1  0.37984946  0.48686321  0.49827000  1
  O  O396  1  0.38211107  0.49626750  0.99158741  1
  O  O397  1  0.37843930  0.98921437  0.48715375  1
  O  O398  1  0.38326713  0.99792881  0.99274295  1
  O  O399  1  0.87683552  0.49307909  0.50533196  1
  O  O400  1  0.88365905  0.49253012  1.00767958  1
  O  O401  1  0.88409608  0.99056183  0.49221917  1
  O  O402  1  0.88576823  1.00800491  0.99237525  1
  O  O403  1  0.11916157  0.00752480  0.00587491  1
  O  O404  1  0.11062031  -0.00696960  0.49537746  1
  O  O405  1  0.11642134  0.50472692  0.00781568  1
  O  O406  1  0.11053135  0.49720827  0.50257637  1
  O  O407  1  0.61964407  0.00504212  0.00404952  1
  O  O408  1  0.62365420  0.00846056  0.50430287  1
  O  O409  1  0.61163044  0.51045165  -0.00671331  1
  O  O410  1  0.61368780  0.48493099  0.51034760  1
  O  O411  1  0.37329538  0.36268386  0.12195548  1
  O  O412  1  0.36766025  0.37097392  0.61927074  1
  O  O413  1  0.36714820  0.87503285  0.11586420  1
  O  O414  1  0.37282181  0.88008585  0.60487533  1
  O  O415  1  0.87527607  0.36359347  0.11215422  1
  O  O416  1  0.86878262  0.37283607  0.61035527  1
  O  O417  1  0.86862913  0.86262157  0.13188824  1
  O  O418  1  0.88866098  0.86355105  0.60805844  1
  O  O419  1  0.12862596  0.13916451  0.37103196  1
  O  O420  1  0.13166593  0.13048535  0.87720551  1
  O  O421  1  0.13307418  0.63668758  0.36904219  1
  O  O422  1  0.13506343  0.62026072  0.88688147  1
  O  O423  1  0.63212918  0.13378937  0.38037011  1
  O  O424  1  0.64046320  0.12356749  0.88717651  1
  O  O425  1  0.65056895  0.59898279  0.39937995  1
  O  O426  1  0.62753209  0.63602117  0.88600308  1
