# generated using pymatgen
data_V85Zn86O256
_symmetry_space_group_name_H-M   'P 1'
_cell_length_a   16.91863971
_cell_length_b   16.93198286
_cell_length_c   16.93543985
_cell_angle_alpha   89.95420271
_cell_angle_beta   89.92418390
_cell_angle_gamma   90.05375493
_symmetry_Int_Tables_number   1
_chemical_formula_structural   V85Zn86O256
_chemical_formula_sum   'V85 Zn86 O256'
_cell_volume   4851.42176854
_cell_formula_units_Z   1
loop_
 _symmetry_equiv_pos_site_id
 _symmetry_equiv_pos_as_xyz
  1  'x, y, z'
loop_
 _atom_site_type_symbol
 _atom_site_label
 _atom_site_symmetry_multiplicity
 _atom_site_fract_x
 _atom_site_fract_y
 _atom_site_fract_z
 _atom_site_occupancy
  V  V0  1  0.62448724  0.50039589  0.62252160  1
  V  V1  1  0.00296171  0.24933640  0.25370162  1
  V  V2  1  0.74620312  0.75331299  -0.00047125  1
  V  V3  1  0.13105922  0.62406261  0.48946589  1
  V  V4  1  0.37459985  0.37346835  0.00072118  1
  V  V5  1  -0.00283483  0.88079630  0.87403843  1
  V  V6  1  0.50097937  0.24940909  0.74989252  1
  V  V7  1  0.37737249  0.63440906  0.75296248  1
  V  V8  1  0.75119407  0.62766578  0.87151605  1
  V  V9  1  0.00999221  0.12882953  0.12221234  1
  V  V10  1  0.61942068  0.24590022  0.37135286  1
  V  V11  1  0.75435900  0.50387824  0.74645613  1
  V  V12  1  0.49734618  0.37151092  0.36947314  1
  V  V13  1  0.36334011  0.50339581  0.37249296  1
  V  V14  1  0.74176629  0.62305410  0.37897064  1
  V  V15  1  0.36930004  0.37149196  0.50007750  1
  V  V16  1  0.12534034  -0.00049818  0.62227156  1
  V  V17  1  0.37362692  0.75454043  0.61518675  1
  V  V18  1  -0.01017981  -0.00831552  0.49544296  1
  V  V19  1  0.62967620  0.23944673  0.87524524  1
  V  V20  1  0.86877258  0.37787271  0.00378793  1
  V  V21  1  0.87488708  0.62110889  0.24906361  1
  V  V22  1  0.87687429  0.12070734  0.25286166  1
  V  V23  1  0.25242276  0.50354448  0.75201075  1
  V  V24  1  0.38666809  0.24691190  0.13238734  1
  V  V25  1  0.12802387  0.87226534  0.74759483  1
  V  V26  1  0.00228988  0.37627063  0.87607535  1
  V  V27  1  0.87251908  0.12217953  0.76210822  1
  V  V28  1  0.24362055  0.24420878  0.00430637  1
  V  V29  1  0.38313088  0.86812764  0.00343316  1
  V  V30  1  0.50521708  0.74502053  0.25243108  1
  V  V31  1  0.74871440  0.00400711  0.75955830  1
  V  V32  1  0.12817248  0.37763082  0.25469243  1
  V  V33  1  0.11922674  0.76450096  0.37404343  1
  V  V34  1  0.87396912  0.88318191  -0.00149058  1
  V  V35  1  0.86842513  0.25488191  0.12832401  1
  V  V36  1  0.69094555  0.93665716  0.08288312  1
  V  V37  1  -0.00321821  0.49530358  0.50319549  1
  V  V38  1  0.50671472  0.10489068  0.12507978  1
  V  V39  1  0.75239569  0.25701421  0.49737038  1
  V  V40  1  0.00075328  0.24997833  0.74998601  1
  V  V41  1  0.61923984  0.74971885  0.85836676  1
  V  V42  1  0.62738642  0.87438904  0.25930875  1
  V  V43  1  0.50035540  0.37373425  0.87380043  1
  V  V44  1  0.37120251  0.50490979  0.87573240  1
  V  V45  1  0.50205288  0.50265355  0.49735419  1
  V  V46  1  0.74804339  -0.00221779  0.24951659  1
  V  V47  1  0.00157647  0.50309655  0.00104479  1
  V  V48  1  0.12912360  0.50328406  0.13130428  1
  V  V49  1  0.87422860  0.49049135  0.38045210  1
  V  V50  1  0.36751362  0.24847981  0.62335640  1
  V  V51  1  0.12685174  0.50309204  0.62769984  1
  V  V52  1  0.25481879  -0.00517965  0.25871217  1
  V  V53  1  0.00584705  0.00666786  -0.00311017  1
  V  V54  1  0.12525723  0.13150204  0.49981253  1
  V  V55  1  0.14092538  0.63045874  0.00013381  1
  V  V56  1  0.24197539  0.87187491  0.11830434  1
  V  V57  1  0.62364759  0.62645030  -0.00137838  1
  V  V58  1  0.13755966  0.74778915  0.87787962  1
  V  V59  1  0.00049634  0.62734900  0.12457589  1
  V  V60  1  0.37880730  0.00105009  0.88374889  1
  V  V61  1  0.87334155  0.74831746  0.61276562  1
  V  V62  1  0.62280822  0.36905189  0.24353627  1
  V  V63  1  0.35751460  0.62376587  0.25343164  1
  V  V64  1  0.62716047  0.37446148  0.74803104  1
  V  V65  1  0.50223329  0.63323837  0.62668693  1
  V  V66  1  0.50253719  0.12336220  0.62296328  1
  V  V67  1  0.37508885  0.12386587  0.75427933  1
  V  V68  1  0.48184797  0.87318030  0.37755213  1
  V  V69  1  0.75312850  0.12196668  0.37544479  1
  V  V70  1  0.25160692  0.37653802  0.12976881  1
  V  V71  1  0.87018688  0.75157259  0.12014821  1
  V  V72  1  0.75736640  0.87815203  0.62550820  1
  V  V73  1  -0.00931600  0.74443225  0.75372683  1
  V  V74  1  0.62871619  0.49751695  0.12206192  1
  V  V75  1  0.87703400  0.50870659  0.87058222  1
  V  V76  1  0.75019136  0.49146807  0.24522581  1
  V  V77  1  0.25840086  0.12986607  0.37962502  1
  V  V78  1  0.50107740  0.50060917  -0.00076116  1
  V  V79  1  0.75047838  0.24312627  -0.00317300  1
  V  V80  1  0.87489821  0.25336485  0.62052565  1
  V  V81  1  0.50070684  0.87263926  0.86055782  1
  V  V82  1  0.62578950  -0.00963942  0.62699270  1
  V  V83  1  0.49005563  -0.00563960  0.49576475  1
  V  V84  1  0.24124150  0.12169165  0.88090658  1
  Zn  Zn85  1  0.25450906  0.75314062  0.48712712  1
  Zn  Zn86  1  0.49812147  0.62490467  0.12842544  1
  Zn  Zn87  1  0.12929835  0.25300415  0.38189884  1
  Zn  Zn88  1  0.25402689  0.87651000  0.61659979  1
  Zn  Zn89  1  0.75416254  0.37880802  0.61789750  1
  Zn  Zn90  1  0.91740287  -0.07344091  0.34968477  1
  Zn  Zn91  1  -0.00194177  0.12407162  0.62356595  1
  Zn  Zn92  1  0.12922490  0.00749711  0.12395829  1
  Zn  Zn93  1  -0.00365706  0.62358698  0.62908852  1
  Zn  Zn94  1  0.38330310  0.12177964  0.25619396  1
  Zn  Zn95  1  -0.01023661  0.76328736  0.25765624  1
  Zn  Zn96  1  0.62493002  0.11052674  0.00187038  1
  Zn  Zn97  1  0.62486140  0.12184053  0.49802640  1
  Zn  Zn98  1  0.36952217  0.74490400  0.12445778  1
  Zn  Zn99  1  0.10643210  0.88573547  0.25221618  1
  Zn  Zn100  1  -0.00187304  0.37074670  0.38200066  1
  Zn  Zn101  1  0.25043787  -0.00127438  0.75089489  1
  Zn  Zn102  1  0.12885775  0.37481179  0.75225308  1
  Zn  Zn103  1  0.12320514  0.24698977  0.88028357  1
  Zn  Zn104  1  0.76366036  0.78989049  0.46258280  1
  Zn  Zn105  1  0.24915917  0.37287151  0.62561060  1
  Zn  Zn106  1  0.62571611  0.64874752  0.49556185  1
  Zn  Zn107  1  0.19262291  0.18790092  0.19463437  1
  Zn  Zn108  1  0.18616797  0.18367574  0.69192256  1
  Zn  Zn109  1  0.18165201  0.69573238  0.19454069  1
  Zn  Zn110  1  0.18940726  0.68539270  0.68822283  1
  Zn  Zn111  1  0.68597235  0.18424712  0.18579942  1
  Zn  Zn112  1  0.68920045  0.18513630  0.68554819  1
  Zn  Zn113  1  0.68669558  0.68528924  0.18826537  1
  Zn  Zn114  1  0.69153375  0.68579302  0.67993225  1
  Zn  Zn115  1  0.31242935  0.31078755  0.31202256  1
  Zn  Zn116  1  0.31139970  0.31192366  0.81367832  1
  Zn  Zn117  1  0.30450808  0.80671416  0.30945263  1
  Zn  Zn118  1  0.31453449  0.81421733  0.80972428  1
  Zn  Zn119  1  0.80978629  0.31047226  0.31189838  1
  Zn  Zn120  1  0.81422734  0.31547072  0.81231332  1
  Zn  Zn121  1  0.80282925  0.80868031  0.29582078  1
  Zn  Zn122  1  0.81048589  0.81831388  0.81165091  1
  Zn  Zn123  1  0.18634187  0.43705770  0.44037392  1
  Zn  Zn124  1  0.18907358  0.43893115  0.94187203  1
  Zn  Zn125  1  0.19034900  0.93847307  0.44245546  1
  Zn  Zn126  1  0.18651340  0.93616124  0.93846216  1
  Zn  Zn127  1  0.68456046  0.43692597  0.43343540  1
  Zn  Zn128  1  0.68978041  0.43354640  0.93392488  1
  Zn  Zn129  1  0.68826568  0.94205885  0.43835039  1
  Zn  Zn130  1  0.68532450  0.93451648  0.91779951  1
  Zn  Zn131  1  0.31557942  0.05924327  0.06551374  1
  Zn  Zn132  1  0.31108007  0.06121544  0.56260617  1
  Zn  Zn133  1  0.31455407  0.56065279  0.06789010  1
  Zn  Zn134  1  0.31313640  0.56495934  0.56281485  1
  Zn  Zn135  1  0.82346678  0.07085129  0.05860691  1
  Zn  Zn136  1  0.81218636  0.06961674  0.56705272  1
  Zn  Zn137  1  0.80944989  0.56356162  0.06013452  1
  Zn  Zn138  1  0.81641420  0.56691121  0.56340991  1
  Zn  Zn139  1  0.43817158  0.44066078  0.18904726  1
  Zn  Zn140  1  0.43793527  0.43963608  0.68620816  1
  Zn  Zn141  1  0.43492063  0.93363420  0.19071349  1
  Zn  Zn142  1  0.43531726  0.93992998  0.68738759  1
  Zn  Zn143  1  0.94164869  0.43598724  0.18830872  1
  Zn  Zn144  1  0.93792260  0.43508321  0.68765012  1
  Zn  Zn145  1  0.93338029  0.94089074  0.17744546  1
  Zn  Zn146  1  0.93884110  0.93761937  0.68481168  1
  Zn  Zn147  1  0.06699770  0.06108535  0.31642777  1
  Zn  Zn148  1  0.06153273  0.06083677  0.80968563  1
  Zn  Zn149  1  0.05879299  0.56159534  0.31336875  1
  Zn  Zn150  1  0.06699590  0.56672738  0.81487509  1
  Zn  Zn151  1  0.56163966  0.05797127  0.30816151  1
  Zn  Zn152  1  0.56121576  0.05901228  0.81354951  1
  Zn  Zn153  1  0.55973824  0.55814352  0.31127363  1
  Zn  Zn154  1  0.56166551  0.56347737  0.80989108  1
  Zn  Zn155  1  0.43791170  0.18689063  0.44036711  1
  Zn  Zn156  1  0.43884730  0.18520299  0.94522164  1
  Zn  Zn157  1  0.44069581  0.68706592  0.43306754  1
  Zn  Zn158  1  0.43663732  0.68980483  0.93785742  1
  Zn  Zn159  1  0.93830088  0.18275521  0.43902964  1
  Zn  Zn160  1  0.93787213  0.18968382  0.93867350  1
  Zn  Zn161  1  0.93965049  0.67981955  0.43741799  1
  Zn  Zn162  1  0.94219932  0.69032172  0.93792989  1
  Zn  Zn163  1  0.06188295  0.31463680  0.06529425  1
  Zn  Zn164  1  0.06420228  0.31493258  0.56654871  1
  Zn  Zn165  1  0.06062602  0.81225887  0.06178138  1
  Zn  Zn166  1  0.06167688  0.81235488  0.56106197  1
  Zn  Zn167  1  0.56445121  0.31152486  0.05996725  1
  Zn  Zn168  1  0.56152871  0.31227524  0.55872448  1
  Zn  Zn169  1  0.55517345  0.80660212  0.06251930  1
  Zn  Zn170  1  0.57287065  0.81261919  0.55443056  1
  O  O171  1  0.11350696  0.13116714  0.12887936  1
  O  O172  1  0.12485115  0.11744851  0.61936777  1
  O  O173  1  0.12192634  0.62110967  0.12360927  1
  O  O174  1  0.12243679  0.61555802  0.61948237  1
  O  O175  1  0.61131500  0.12639380  0.12233460  1
  O  O176  1  0.61315935  0.11961484  0.62507777  1
  O  O177  1  0.62387833  0.61532728  0.11708415  1
  O  O178  1  0.61883889  0.61898613  0.61950588  1
  O  O179  1  0.38066771  0.37790750  0.37913381  1
  O  O180  1  0.38152816  0.38086891  0.88027081  1
  O  O181  1  0.38354533  0.87079489  0.37022903  1
  O  O182  1  0.38147987  0.87783933  0.88293263  1
  O  O183  1  0.87611284  0.38665016  0.36826115  1
  O  O184  1  0.88559977  0.38431272  0.88180343  1
  O  O185  1  0.83166098  0.86577642  0.38672850  1
  O  O186  1  0.88307097  0.87058065  0.88722117  1
  O  O187  1  0.24506141  0.00767971  0.36374371  1
  O  O188  1  0.25720997  0.00596959  0.87586667  1
  O  O189  1  0.26443241  0.49536027  0.37903948  1
  O  O190  1  0.26382299  0.49559157  0.87118526  1
  O  O191  1  0.74353940  0.01533989  0.36710063  1
  O  O192  1  0.75288234  0.00342804  0.85934337  1
  O  O193  1  0.75497851  0.50294317  0.36528069  1
  O  O194  1  0.75826826  0.50518969  0.86839984  1
  O  O195  1  0.24401188  0.48512581  0.12261519  1
  O  O196  1  0.24501595  0.49928474  0.63355722  1
  O  O197  1  0.24823902  0.99122631  0.13336478  1
  O  O198  1  0.23889622  0.99884295  0.62851915  1
  O  O199  1  0.73830836  0.50058949  0.12956659  1
  O  O200  1  0.74745146  0.49957235  0.63059282  1
  O  O201  1  0.75597758  1.00531203  0.13071946  1
  O  O202  1  0.74356752  1.00041848  0.63364774  1
  O  O203  1  0.01195324  0.36755753  0.25134693  1
  O  O204  1  0.00154906  0.36756986  0.75982643  1
  O  O205  1  -0.01340332  0.88136610  0.25878524  1
  O  O206  1  0.00738895  0.86856032  0.75661097  1
  O  O207  1  0.50663446  0.37942535  0.26134386  1
  O  O208  1  0.50654804  0.36976314  0.75306979  1
  O  O209  1  0.50460009  0.86969611  0.26008621  1
  O  O210  1  0.49299462  0.87287978  0.76237577  1
  O  O211  1  0.49818588  0.11977089  0.23431716  1
  O  O212  1  0.49480586  0.12839922  0.74349654  1
  O  O213  1  0.50013660  0.63474975  0.25125379  1
  O  O214  1  0.49099220  0.61830736  0.73748910  1
  O  O215  1  0.99682892  0.13180535  0.24567464  1
  O  O216  1  0.99062153  0.13213310  0.74959337  1
  O  O217  1  0.98535210  0.62128752  0.24383672  1
  O  O218  1  1.00435456  0.64135984  0.75050993  1
  O  O219  1  0.36685359  0.25580319  0.01155292  1
  O  O220  1  0.38157519  0.25893847  0.51127700  1
  O  O221  1  0.37285268  0.76308351  0.00205523  1
  O  O222  1  0.37324861  0.74013703  0.51187644  1
  O  O223  1  0.86997469  0.25776109  0.00639882  1
  O  O224  1  0.86705731  0.24546341  0.50791373  1
  O  O225  1  0.86768225  0.75697782  0.00247342  1
  O  O226  1  0.87102506  0.74484787  0.50987817  1
  O  O227  1  0.12177409  0.23707488  0.50329962  1
  O  O228  1  0.13909160  0.25630457  1.00125588  1
  O  O229  1  0.11947694  0.73773308  0.49113353  1
  O  O230  1  0.11990444  0.74201223  0.99128474  1
  O  O231  1  0.63065056  0.24780608  0.48760553  1
  O  O232  1  0.63614025  0.25505722  0.99128907  1
  O  O233  1  0.65542628  0.75725436  0.50412620  1
  O  O234  1  0.62956439  0.74488256  0.99468613  1
  O  O235  1  0.48710860  0.25440830  0.12417941  1
  O  O236  1  0.49546298  0.24139771  0.62966958  1
  O  O237  1  0.49138251  0.74752352  0.13771899  1
  O  O238  1  0.49321607  0.73937948  0.61552070  1
  O  O239  1  0.99320244  0.24790300  0.13434124  1
  O  O240  1  0.99404330  0.25023291  0.63433344  1
  O  O241  1  0.98743564  0.74379059  0.12554159  1
  O  O242  1  0.98872662  0.75124533  0.63501147  1
  O  O243  1  0.00061560  0.25093152  0.36391817  1
  O  O244  1  0.00172810  0.25937931  0.87083134  1
  O  O245  1  0.01290271  0.73958564  0.37327704  1
  O  O246  1  0.00576527  0.75924959  0.86599023  1
  O  O247  1  0.50802470  0.25772714  0.37872980  1
  O  O248  1  0.50563549  0.25483105  0.87060492  1
  O  O249  1  0.49979010  0.76252579  0.36703969  1
  O  O250  1  0.50588013  0.76179072  0.87769077  1
  O  O251  1  0.24403458  0.11668463  0.48644250  1
  O  O252  1  0.25687874  0.13257503  0.99480757  1
  O  O253  1  0.23425686  0.62830638  0.50459279  1
  O  O254  1  0.24017881  0.62309060  1.00736672  1
  O  O255  1  0.74678568  0.13339748  0.49148847  1
  O  O256  1  0.74869132  0.13888200  1.00244169  1
  O  O257  1  0.74835428  0.61320223  0.48218911  1
  O  O258  1  0.74319389  0.63040175  0.98975987  1
  O  O259  1  0.25661129  0.36848477  0.00890334  1
  O  O260  1  0.26510753  0.37865832  0.50371934  1
  O  O261  1  0.25612502  0.87946626  0.01418374  1
  O  O262  1  0.24514838  0.86587727  0.50444170  1
  O  O263  1  0.76404363  0.36827772  -0.00436343  1
  O  O264  1  0.74609125  0.36165342  0.49650887  1
  O  O265  1  0.75164717  0.87691266  0.00526813  1
  O  O266  1  0.74908233  0.89126557  0.52263005  1
  O  O267  1  0.11969533  0.49413934  0.23932886  1
  O  O268  1  0.13405732  0.50224438  0.74573424  1
  O  O269  1  0.13628726  1.00014948  0.24594847  1
  O  O270  1  0.12492849  0.99077313  0.74210091  1
  O  O271  1  0.63054999  0.49252277  0.24123279  1
  O  O272  1  0.63153542  0.49500853  0.74279388  1
  O  O273  1  0.63817719  0.99246846  0.24704063  1
  O  O274  1  0.64087433  1.01051407  0.74432963  1
  O  O275  1  0.35897566  0.00219891  0.24654718  1
  O  O276  1  0.37267381  0.00544567  0.76208522  1
  O  O277  1  0.38022470  0.51383780  0.25834411  1
  O  O278  1  0.37116938  0.50646001  0.75711312  1
  O  O279  1  0.86318685  0.00288096  0.25162908  1
  O  O280  1  0.86892187  0.01568435  0.74328835  1
  O  O281  1  0.86752549  0.50234410  0.25213223  1
  O  O282  1  0.86802543  0.49595362  0.75940244  1
  O  O283  1  0.12352144  0.37300443  0.36878157  1
  O  O284  1  0.11289327  0.37754005  0.87681725  1
  O  O285  1  0.12007571  0.86637201  0.37625417  1
  O  O286  1  0.11743995  0.86904553  0.86894722  1
  O  O287  1  0.61673530  0.36865017  0.36490544  1
  O  O288  1  0.61883460  0.36789999  0.86722319  1
  O  O289  1  0.62683655  0.87700364  0.36166341  1
  O  O290  1  0.60933349  0.86578173  0.87235805  1
  O  O291  1  0.38580220  0.13443852  0.12432334  1
  O  O292  1  0.38404533  0.13007748  0.62990521  1
  O  O293  1  0.37728378  0.62323093  0.13989134  1
  O  O294  1  0.38304217  0.63189038  0.63139303  1
  O  O295  1  0.88688623  0.13644760  0.13313062  1
  O  O296  1  0.87714293  0.13959783  0.63596831  1
  O  O297  1  0.87844557  0.62780042  0.12940718  1
  O  O298  1  0.87553997  0.64248580  0.62841109  1
  O  O299  1  0.25743316  0.25700754  0.12136396  1
  O  O300  1  0.26389187  0.25028396  0.63372698  1
  O  O301  1  0.25152138  0.76857565  0.13518450  1
  O  O302  1  0.26623602  0.74709709  0.62561950  1
  O  O303  1  0.76258631  0.24760624  0.11949624  1
  O  O304  1  0.75482490  0.25085807  0.61451404  1
  O  O305  1  0.76197174  0.74082389  0.11640201  1
  O  O306  1  0.76665181  0.76138023  0.63855088  1
  O  O307  1  0.24842570  0.23406854  0.37159889  1
  O  O308  1  0.25024019  0.24172952  0.88573524  1
  O  O309  1  0.22685137  0.74731601  0.37141608  1
  O  O310  1  0.23682762  0.75496077  0.87050646  1
  O  O311  1  0.74269832  0.24190453  0.37899302  1
  O  O312  1  0.74133398  0.25607673  0.88217039  1
  O  O313  1  0.75168361  0.72426356  0.36247490  1
  O  O314  1  0.74185536  0.74821538  0.87832831  1
  O  O315  1  -0.00519591  0.11948933  0.00812074  1
  O  O316  1  0.00976554  0.11785912  0.50245914  1
  O  O317  1  0.00600439  0.61932499  0.00723557  1
  O  O318  1  0.00973752  0.61271967  0.50537273  1
  O  O319  1  0.50514871  0.12809633  0.01766115  1
  O  O320  1  0.50214563  0.11654153  0.50753795  1
  O  O321  1  0.50538482  0.61808968  0.00188891  1
  O  O322  1  0.50668557  0.61823773  0.50248429  1
  O  O323  1  0.49118517  0.38127942  0.49049858  1
  O  O324  1  0.49464584  0.38092839  0.99441075  1
  O  O325  1  0.50368767  0.87766998  0.48432917  1
  O  O326  1  0.48554427  0.87299499  0.99463987  1
  O  O327  1  1.00720539  0.38958909  0.49971899  1
  O  O328  1  0.99229502  0.38154718  0.99498372  1
  O  O329  1  1.00108597  0.89178184  0.50297761  1
  O  O330  1  0.99288190  0.88134131  0.99253242  1
  O  O331  1  0.49370656  0.49131175  0.38160796  1
  O  O332  1  0.49168479  0.49416117  0.87865805  1
  O  O333  1  0.50310229  0.98496611  0.38101911  1
  O  O334  1  0.49399759  0.98547158  0.87381927  1
  O  O335  1  0.99056714  0.49793404  0.38356889  1
  O  O336  1  0.99455906  0.49663038  0.87850994  1
  O  O337  1  0.99494265  1.00345887  0.38805034  1
  O  O338  1  1.00288985  0.98894663  0.87958739  1
  O  O339  1  0.00222709  0.01279779  0.11662250  1
  O  O340  1  0.01127916  0.00273477  0.62045460  1
  O  O341  1  0.00874810  0.50580682  0.11995241  1
  O  O342  1  0.00626054  0.50203270  0.62241445  1
  O  O343  1  0.49652541  0.00621106  0.12359645  1
  O  O344  1  0.50708588  0.00483936  0.62307539  1
  O  O345  1  0.51164658  0.49997130  0.11843812  1
  O  O346  1  0.50220643  0.50993511  0.61585982  1
  O  O347  1  0.23800912  0.36984931  0.24400353  1
  O  O348  1  0.25035816  0.38752966  0.74968702  1
  O  O349  1  0.24827658  0.88560741  0.24234387  1
  O  O350  1  0.23830452  0.87596980  0.74612652  1
  O  O351  1  0.74015807  0.38470439  0.25335771  1
  O  O352  1  0.74377937  0.38693954  0.75039085  1
  O  O353  1  0.73945512  0.88424356  0.23652138  1
  O  O354  1  0.75758952  0.89577549  0.74382055  1
  O  O355  1  0.25320509  0.11530593  0.26159886  1
  O  O356  1  0.25840069  0.12460310  0.76258171  1
  O  O357  1  0.25896024  0.62592837  0.24725536  1
  O  O358  1  0.26093573  0.61222414  0.74773732  1
  O  O359  1  0.75537099  0.11892131  0.25458022  1
  O  O360  1  0.76293147  0.11860424  0.74687168  1
  O  O361  1  0.75657708  0.61042908  0.25331359  1
  O  O362  1  0.74558409  0.61135672  0.75583367  1
  O  O363  1  0.36353436  0.12666960  0.37559958  1
  O  O364  1  0.37197024  0.11656730  0.87570443  1
  O  O365  1  0.37706208  0.61748921  0.36342864  1
  O  O366  1  0.38263459  0.61637630  0.86657422  1
  O  O367  1  0.86474116  0.13287223  0.36451650  1
  O  O368  1  0.87634278  0.13044670  0.86100919  1
  O  O369  1  0.86766325  0.61206262  0.36592685  1
  O  O370  1  0.87219918  0.61442290  0.88117489  1
  O  O371  1  0.13166077  0.38300195  0.13169832  1
  O  O372  1  0.12886421  0.38913108  0.62876722  1
  O  O373  1  0.13293144  0.87681001  0.12705866  1
  O  O374  1  0.12363423  0.88020030  0.63308046  1
  O  O375  1  0.62050398  0.37933337  0.13608779  1
  O  O376  1  0.62653618  0.38045838  0.63077404  1
  O  O377  1  0.62108586  0.87601701  0.13013417  1
  O  O378  1  0.62928440  0.88649699  0.63192201  1
  O  O379  1  0.11775041  0.25852792  0.25152386  1
  O  O380  1  0.11289846  0.25155650  0.75385497  1
  O  O381  1  0.11310014  0.75901406  0.26116250  1
  O  O382  1  0.11736493  0.75548148  0.75429330  1
  O  O383  1  0.63205732  0.25841576  0.25908142  1
  O  O384  1  0.62244422  0.25269056  0.75674884  1
  O  O385  1  0.61633721  0.75848908  0.24359902  1
  O  O386  1  0.62729318  0.74094380  0.75967142  1
  O  O387  1  0.37050212  0.24581140  0.23528384  1
  O  O388  1  0.38298100  0.24488426  0.74529130  1
  O  O389  1  0.37985426  0.73548792  0.25218192  1
  O  O390  1  0.37312431  0.73787582  0.74335530  1
  O  O391  1  0.88126235  0.24719860  0.24351608  1
  O  O392  1  0.88296679  0.24368061  0.74791510  1
  O  O393  1  0.87314185  0.73840185  0.23788476  1
  O  O394  1  0.88913236  0.75356923  0.75307761  1
  O  O395  1  0.38503562  0.49607000  0.49505017  1
  O  O396  1  0.37962128  0.49522523  0.99402461  1
  O  O397  1  0.39107962  0.99834887  0.51097149  1
  O  O398  1  0.37111912  0.98700505  0.98975615  1
  O  O399  1  0.88292178  0.50306108  0.49261342  1
  O  O400  1  0.87890433  0.49423517  0.99399528  1
  O  O401  1  0.89167977  1.00834347  0.51080161  1
  O  O402  1  0.88693694  0.99246949  1.00336154  1
  O  O403  1  0.11059574  -0.00379222  0.00288181  1
  O  O404  1  0.11736062  0.00954589  0.50630400  1
  O  O405  1  0.12185641  0.50705508  0.01149537  1
  O  O406  1  0.12187491  0.50853268  0.50751828  1
  O  O407  1  0.64179756  -0.00698346  0.00753162  1
  O  O408  1  0.61543523  0.00196103  0.51128250  1
  O  O409  1  0.62336594  0.50186504  0.00447198  1
  O  O410  1  0.61219192  0.49383603  0.50444214  1
  O  O411  1  0.36939015  0.36822541  0.12446592  1
  O  O412  1  0.37791845  0.36639748  0.61753706  1
  O  O413  1  0.36770038  0.87436975  0.11428452  1
  O  O414  1  0.37759477  0.85695903  0.63153047  1
  O  O415  1  0.88162478  0.36751532  0.11613540  1
  O  O416  1  0.87101449  0.35941802  0.63271964  1
  O  O417  1  0.87724974  0.86428431  0.10978631  1
  O  O418  1  0.87099849  0.86188095  0.63066214  1
  O  O419  1  0.13514616  0.12845557  0.38355198  1
  O  O420  1  0.13766268  0.12443192  0.87261416  1
  O  O421  1  0.12405503  0.62075882  0.38767805  1
  O  O422  1  0.12282098  0.63464795  0.88771525  1
  O  O423  1  0.62938767  0.13273129  0.37232987  1
  O  O424  1  0.61790557  0.13617807  0.88115062  1
  O  O425  1  0.63810777  0.61336473  0.37582439  1
  O  O426  1  0.62788611  0.63047631  0.88034258  1
