# generated using pymatgen
data_V85Zn86O256
_symmetry_space_group_name_H-M   'P 1'
_cell_length_a   16.95099750
_cell_length_b   16.94665985
_cell_length_c   16.94811910
_cell_angle_alpha   90.03985189
_cell_angle_beta   90.05430641
_cell_angle_gamma   90.04020119
_symmetry_Int_Tables_number   1
_chemical_formula_structural   V85Zn86O256
_chemical_formula_sum   'V85 Zn86 O256'
_cell_volume   4868.55939191
_cell_formula_units_Z   1
loop_
 _symmetry_equiv_pos_site_id
 _symmetry_equiv_pos_as_xyz
  1  'x, y, z'
loop_
 _atom_site_type_symbol
 _atom_site_label
 _atom_site_symmetry_multiplicity
 _atom_site_fract_x
 _atom_site_fract_y
 _atom_site_fract_z
 _atom_site_occupancy
  V  V0  1  0.49658930  0.74556892  0.74907950  1
  V  V1  1  0.51373402  0.11243251  0.61389095  1
  V  V2  1  0.62757493  0.39459079  0.74753683  1
  V  V3  1  0.49613804  0.87697046  0.87518402  1
  V  V4  1  0.87280870  0.50639892  0.37467923  1
  V  V5  1  0.87191875  0.00481313  0.37403706  1
  V  V6  1  0.24628034  0.89426692  0.62483077  1
  V  V7  1  0.74516949  -0.01203780  0.24494740  1
  V  V8  1  0.86226939  0.12924741  0.24892581  1
  V  V9  1  0.74918672  -0.00528883  0.75066151  1
  V  V10  1  -0.00178069  0.12524768  0.12844331  1
  V  V11  1  0.62614747  0.12513435  0.00092068  1
  V  V12  1  0.74839580  0.50606300  0.24892586  1
  V  V13  1  0.37095123  0.11908180  0.24807063  1
  V  V14  1  0.11757694  0.25410856  0.85635469  1
  V  V15  1  0.75729052  0.25645108  -0.00267917  1
  V  V16  1  0.50001228  0.37705116  0.37548798  1
  V  V17  1  0.23420360  0.49703766  0.74832717  1
  V  V18  1  0.13663097  0.00313679  0.13113769  1
  V  V19  1  0.24839557  0.12093180  0.86866690  1
  V  V20  1  0.36597970  0.86212568  0.00070824  1
  V  V21  1  0.50577830  0.50045329  0.00534379  1
  V  V22  1  0.12360591  0.12706461  0.00012674  1
  V  V23  1  0.37180609  0.49919901  0.87371567  1
  V  V24  1  0.88000296  0.74544617  0.62576884  1
  V  V25  1  0.62837710  0.75045677  0.87895615  1
  V  V26  1  0.74921245  0.86849494  0.62636309  1
  V  V27  1  0.49855723  0.25250965  0.24738090  1
  V  V28  1  0.00607337  0.75090986  0.75362559  1
  V  V29  1  0.37400378  0.62289809  0.74262864  1
  V  V30  1  0.37650280  0.12132617  0.74642443  1
  V  V31  1  0.87584176  0.24645611  0.63090115  1
  V  V32  1  0.12791980  0.89097660  0.74767672  1
  V  V33  1  0.87658465  -0.01250263  0.87826729  1
  V  V34  1  0.25306678  0.49817645  0.25088522  1
  V  V35  1  0.24907414  0.75524747  0.50400040  1
  V  V36  1  0.24941511  0.24979548  -0.00377108  1
  V  V37  1  0.75204263  0.12451792  0.87395642  1
  V  V38  1  0.12784347  0.62257086  0.50838080  1
  V  V39  1  0.74899930  0.38489347  0.11973721  1
  V  V40  1  0.00667934  0.49720922  0.50850694  1
  V  V41  1  0.74759542  0.25000794  0.49637778  1
  V  V42  1  0.38056098  0.24933413  0.62422314  1
  V  V43  1  0.00038719  0.37422215  0.37684494  1
  V  V44  1  0.12504890  0.37416325  0.25117459  1
  V  V45  1  0.87962327  0.12318805  0.74883584  1
  V  V46  1  0.24919416  0.24906524  0.49773267  1
  V  V47  1  0.49866821  -0.00015718  -0.00112155  1
  V  V48  1  0.00321103  0.62196800  0.63349006  1
  V  V49  1  0.62299946  0.38279869  0.24248815  1
  V  V50  1  0.12487746  0.49990797  0.11874369  1
  V  V51  1  0.37068055  -0.00115703  0.87030754  1
  V  V52  1  0.87165750  0.86884763  0.01380194  1
  V  V53  1  0.12411550  0.11946180  0.50559442  1
  V  V54  1  0.12130573  0.87600433  0.24967632  1
  V  V55  1  0.11744534  0.74974737  0.37055096  1
  V  V56  1  0.86980721  0.50226721  0.85173728  1
  V  V57  1  -0.01100025  0.49129742  -0.00356614  1
  V  V58  1  0.87371918  0.37497757  0.50369557  1
  V  V59  1  0.37577463  0.37505338  -0.00280559  1
  V  V60  1  0.24884428  0.11477571  0.37196532  1
  V  V61  1  0.61715517  0.74952416  0.37059235  1
  V  V62  1  0.25079076  0.62605658  0.37701652  1
  V  V63  1  0.62790921  -0.01593723  0.12299998  1
  V  V64  1  0.37606754  0.37486025  0.50139572  1
  V  V65  1  0.23835468  0.37647109  0.62906561  1
  V  V66  1  0.37800350  0.63476035  0.24372677  1
  V  V67  1  0.62933394  0.24985064  0.37420038  1
  V  V68  1  0.12442842  0.63256615  0.00107534  1
  V  V69  1  0.37656644  0.24959328  0.12277231  1
  V  V70  1  0.25140574  0.85783112  0.12607545  1
  V  V71  1  0.50091419  0.37499679  0.87242577  1
  V  V72  1  0.62873309  0.25278206  0.86928733  1
  V  V73  1  0.25063088  0.37293865  0.12348199  1
  V  V74  1  0.37720471  0.50117040  0.37606194  1
  V  V75  1  0.87696996  0.26415145  0.12273275  1
  V  V76  1  0.50357630  0.50773813  0.51427554  1
  V  V77  1  0.75410494  0.74175912  0.49668494  1
  V  V78  1  0.62828263  0.62389803  0.00831964  1
  V  V79  1  -0.00072664  -0.00125314  0.50374847  1
  V  V80  1  0.62200739  0.87680099  0.74773702  1
  V  V81  1  0.38828459  0.88178234  0.49784009  1
  V  V82  1  0.24933962  0.63268291  0.87890181  1
  V  V83  1  0.87467906  0.74304138  0.14734430  1
  V  V84  1  0.74671393  0.38850410  0.62976825  1
  Zn  Zn85  1  0.51331913  0.89204714  0.36872220  1
  Zn  Zn86  1  0.69028872  0.08306318  0.42362738  1
  Zn  Zn87  1  0.50528562  0.24900248  0.74604022  1
  Zn  Zn88  1  0.63019477  0.61648751  0.50798206  1
  Zn  Zn89  1  0.87776087  0.87510823  0.49737447  1
  Zn  Zn90  1  0.50018670  0.12409485  0.12303769  1
  Zn  Zn91  1  0.50470766  0.76527130  0.23711676  1
  Zn  Zn92  1  0.75057455  0.62653320  0.37030266  1
  Zn  Zn93  1  -0.00434652  0.87293675  0.37085625  1
  Zn  Zn94  1  0.00020124  -0.00207100  0.00318903  1
  Zn  Zn95  1  0.38573892  0.00205188  0.37685575  1
  Zn  Zn96  1  0.12716062  0.75588447  0.88050828  1
  Zn  Zn97  1  0.00155795  0.63448291  0.13664019  1
  Zn  Zn98  1  0.74824328  0.75369931  0.01024923  1
  Zn  Zn99  1  -0.00235288  0.25268530  0.25047438  1
  Zn  Zn100  1  0.12286064  0.24721351  0.37566864  1
  Zn  Zn101  1  0.37235930  0.75100180  0.62377499  1
  Zn  Zn102  1  -0.00547035  0.37015356  0.86481434  1
  Zn  Zn103  1  0.00320861  0.87343274  0.87854247  1
  Zn  Zn104  1  0.75211441  0.61829666  0.87136321  1
  Zn  Zn105  1  0.50032600  0.62762837  0.12483595  1
  Zn  Zn106  1  0.00289540  0.12235936  0.62796941  1
  Zn  Zn107  1  0.18756294  0.19002113  0.18825605  1
  Zn  Zn108  1  0.19393894  0.18126980  0.68269477  1
  Zn  Zn109  1  0.18707220  0.68536396  0.19047861  1
  Zn  Zn110  1  0.18798975  0.69042802  0.68986804  1
  Zn  Zn111  1  0.68532232  0.19389032  0.18310234  1
  Zn  Zn112  1  0.69418443  0.19012442  0.68584792  1
  Zn  Zn113  1  0.68954406  0.69290758  0.18580592  1
  Zn  Zn114  1  0.69224081  0.66819543  0.68991733  1
  Zn  Zn115  1  0.31334936  0.30894553  0.31396760  1
  Zn  Zn116  1  0.30931310  0.30950444  0.80893924  1
  Zn  Zn117  1  0.30928419  0.81769999  0.31396932  1
  Zn  Zn118  1  0.30744405  0.81343846  0.80948200  1
  Zn  Zn119  1  0.81304109  0.32016063  0.30892607  1
  Zn  Zn120  1  0.82045480  0.31989031  0.80911416  1
  Zn  Zn121  1  0.80843735  0.81651067  0.31531342  1
  Zn  Zn122  1  0.80041123  0.77831470  0.79739243  1
  Zn  Zn123  1  0.18846648  0.43674680  0.43990475  1
  Zn  Zn124  1  0.18511962  0.43719064  0.93379574  1
  Zn  Zn125  1  0.18622736  0.93794599  0.43667511  1
  Zn  Zn126  1  0.18639846  0.93897871  0.93964252  1
  Zn  Zn127  1  0.68467379  0.43662867  0.43734369  1
  Zn  Zn128  1  0.69223138  0.44093683  0.93319855  1
  Zn  Zn129  1  0.67548204  0.91965067  0.45476477  1
  Zn  Zn130  1  0.68991722  0.93362894  0.93806918  1
  Zn  Zn131  1  0.31326625  0.06163464  0.05814005  1
  Zn  Zn132  1  0.31738599  0.06388183  0.55964487  1
  Zn  Zn133  1  0.31087679  0.56274902  0.06022481  1
  Zn  Zn134  1  0.31170129  0.55901377  0.56479141  1
  Zn  Zn135  1  0.81279205  0.06291034  0.06330906  1
  Zn  Zn136  1  0.79220464  0.05261038  0.55703880  1
  Zn  Zn137  1  0.81241848  0.56960707  0.06205863  1
  Zn  Zn138  1  0.81987368  0.56261494  0.56599175  1
  Zn  Zn139  1  0.43680360  0.44122486  0.18587374  1
  Zn  Zn140  1  0.43317859  0.43423373  0.69036565  1
  Zn  Zn141  1  0.43639941  0.93614114  0.18449898  1
  Zn  Zn142  1  0.43696890  0.93649047  0.68194177  1
  Zn  Zn143  1  0.95281219  0.47327732  0.20427607  1
  Zn  Zn144  1  0.94751832  0.43122687  0.69270498  1
  Zn  Zn145  1  0.94016990  0.94024251  0.18811861  1
  Zn  Zn146  1  0.93692754  0.93449305  0.68752070  1
  Zn  Zn147  1  0.06045704  0.06089363  0.31351178  1
  Zn  Zn148  1  0.05849468  0.06310222  0.81550027  1
  Zn  Zn149  1  0.06471178  0.56256381  0.31698276  1
  Zn  Zn150  1  0.06009044  0.56234508  0.81834620  1
  Zn  Zn151  1  0.55690886  0.06109498  0.30304855  1
  Zn  Zn152  1  0.56143736  0.06243825  0.80779489  1
  Zn  Zn153  1  0.56308736  0.56694096  0.31824883  1
  Zn  Zn154  1  0.55937095  0.56656791  0.81971103  1
  Zn  Zn155  1  0.44229219  0.18312341  0.43570106  1
  Zn  Zn156  1  0.43996278  0.18753109  0.93390251  1
  Zn  Zn157  1  0.43552055  0.68939497  0.43866646  1
  Zn  Zn158  1  0.43899806  0.68544112  0.93501875  1
  Zn  Zn159  1  0.93522458  0.18657426  0.43790558  1
  Zn  Zn160  1  0.93743446  0.18447500  0.93729291  1
  Zn  Zn161  1  0.94069811  0.68498791  0.44019380  1
  Zn  Zn162  1  0.93979566  0.68240085  0.93954544  1
  Zn  Zn163  1  0.06030365  0.31452847  0.05767685  1
  Zn  Zn164  1  0.06038709  0.30534581  0.56799989  1
  Zn  Zn165  1  0.05527367  0.81393222  0.06720867  1
  Zn  Zn166  1  0.06464319  0.81574320  0.56258828  1
  Zn  Zn167  1  0.56594500  0.31320590  0.05962395  1
  Zn  Zn168  1  0.56435663  0.31399043  0.56165344  1
  Zn  Zn169  1  0.55210658  0.80795287  0.06172897  1
  Zn  Zn170  1  0.58433407  0.76377541  0.58604003  1
  O  O171  1  0.11970730  0.12258573  0.12077912  1
  O  O172  1  0.12311520  0.12795379  0.61065549  1
  O  O173  1  0.12546082  0.61466291  0.12002702  1
  O  O174  1  0.12099221  0.62813145  0.61457128  1
  O  O175  1  0.62442572  0.12686835  0.10910110  1
  O  O176  1  0.61097221  0.13229428  0.63369036  1
  O  O177  1  0.62534036  0.62649538  0.11179914  1
  O  O178  1  0.61591839  0.65406510  0.61565011  1
  O  O179  1  0.37982996  0.38013929  0.38099798  1
  O  O180  1  0.37929202  0.37727539  0.87804841  1
  O  O181  1  0.36687629  0.87889826  0.39122455  1
  O  O182  1  0.37263515  0.88343034  0.87900945  1
  O  O183  1  0.88261015  0.38074741  0.38509597  1
  O  O184  1  0.87576556  0.39425523  0.87294781  1
  O  O185  1  0.87536526  0.89069221  0.37346556  1
  O  O186  1  0.87507808  0.88419500  0.87981154  1
  O  O187  1  0.25484474  0.01301756  0.37820846  1
  O  O188  1  0.25550379  0.01352065  0.87903022  1
  O  O189  1  0.25728781  0.50479626  0.37225828  1
  O  O190  1  0.25472874  0.50446832  0.86673697  1
  O  O191  1  0.75592244  0.00942260  0.35351530  1
  O  O192  1  0.75640752  0.00208319  0.86780703  1
  O  O193  1  0.75610503  0.49933034  0.36968122  1
  O  O194  1  0.76397014  0.50089164  0.86897742  1
  O  O195  1  0.24109022  0.49236813  0.12769085  1
  O  O196  1  0.25373609  0.48851246  0.63499963  1
  O  O197  1  0.23801174  1.00292141  0.12249056  1
  O  O198  1  0.25011460  0.99347950  0.62172184  1
  O  O199  1  0.75710486  0.49055396  0.13054469  1
  O  O200  1  0.75289566  0.48766510  0.62140647  1
  O  O201  1  0.74234474  1.00595065  0.13497648  1
  O  O202  1  0.76179123  0.98237315  0.64544516  1
  O  O203  1  0.00862542  0.37976656  0.26060158  1
  O  O204  1  -0.00227595  0.35820970  0.75384960  1
  O  O205  1  0.01586952  0.87921903  0.25091571  1
  O  O206  1  0.01372967  0.87111568  0.75093552  1
  O  O207  1  0.50502496  0.37299148  0.25239596  1
  O  O208  1  0.50955668  0.37215143  0.75438426  1
  O  O209  1  0.48344883  0.87276336  0.26057851  1
  O  O210  1  0.50432563  0.87325034  0.75658206  1
  O  O211  1  0.48995774  0.13713156  0.24292783  1
  O  O212  1  0.48941123  0.12863871  0.74529636  1
  O  O213  1  0.48440901  0.62159986  0.25030886  1
  O  O214  1  0.48738927  0.63492933  0.76068104  1
  O  O215  1  0.99472523  0.12924782  0.23924243  1
  O  O216  1  0.98396291  0.11817786  0.74655481  1
  O  O217  1  0.99486757  0.57862131  0.23491420  1
  O  O218  1  1.01090263  0.63180053  0.73871256  1
  O  O219  1  0.37046127  0.25505975  0.00171014  1
  O  O220  1  0.36934268  0.25293481  0.50552947  1
  O  O221  1  0.37471247  0.76348566  -0.00960474  1
  O  O222  1  0.36533035  0.75881530  0.50126111  1
  O  O223  1  0.86450020  0.24604397  0.00583372  1
  O  O224  1  0.87027874  0.26316250  0.50245430  1
  O  O225  1  0.87473365  0.76344678  -0.00217408  1
  O  O226  1  0.87340628  0.75129261  0.50629643  1
  O  O227  1  0.13358598  0.24275135  0.49786420  1
  O  O228  1  0.13087248  0.23900270  0.99801066  1
  O  O229  1  0.13072550  0.74215300  0.49481837  1
  O  O230  1  0.11662475  0.73621387  1.00278214  1
  O  O231  1  0.63434011  0.25873772  0.48769446  1
  O  O232  1  0.63393200  0.24504647  0.98876434  1
  O  O233  1  0.63958802  0.74834915  0.48702443  1
  O  O234  1  0.62195515  0.74186649  0.99457729  1
  O  O235  1  0.49266481  0.25109627  0.12690145  1
  O  O236  1  0.48970218  0.24835122  0.62463068  1
  O  O237  1  0.49508118  0.74113245  0.12755947  1
  O  O238  1  0.48784660  0.76276043  0.64601799  1
  O  O239  1  0.99215823  0.24669850  0.12447139  1
  O  O240  1  0.97986850  0.24161253  0.61646492  1
  O  O241  1  0.98310356  0.74942756  0.12751140  1
  O  O242  1  0.99899381  0.74180038  0.62801056  1
  O  O243  1  -0.00020305  0.26360118  0.37496926  1
  O  O244  1  0.01569339  0.24490543  0.87938622  1
  O  O245  1  0.01346593  0.75041954  0.38011023  1
  O  O246  1  0.00393976  0.75028295  0.86713424  1
  O  O247  1  0.50501939  0.25852839  0.36801387  1
  O  O248  1  0.51160950  0.25680344  0.87325142  1
  O  O249  1  0.51323745  0.74751885  0.37587679  1
  O  O250  1  0.50535462  0.75834711  0.86925207  1
  O  O251  1  0.24526375  0.13118929  0.49386313  1
  O  O252  1  0.24391225  0.13134129  0.99073716  1
  O  O253  1  0.24458437  0.63026373  0.49787757  1
  O  O254  1  0.24015824  0.61810218  0.99003258  1
  O  O255  1  0.76419323  0.14885512  0.49258060  1
  O  O256  1  0.74464527  0.13314752  0.99356348  1
  O  O257  1  0.75423564  0.63218804  0.50029285  1
  O  O258  1  0.74138745  0.62950230  0.99412195  1
  O  O259  1  0.25523676  0.36905224  0.00250642  1
  O  O260  1  0.25655296  0.36782282  0.50559793  1
  O  O261  1  0.25300676  0.87925784  0.01313368  1
  O  O262  1  0.24700701  0.86935584  0.50894182  1
  O  O263  1  0.74305077  0.36741169  0.00742131  1
  O  O264  1  0.75630551  0.37306196  0.50915040  1
  O  O265  1  0.76818706  0.87840893  0.00258430  1
  O  O266  1  0.75732711  0.85749050  0.51189120  1
  O  O267  1  0.13490146  0.48812408  0.24329832  1
  O  O268  1  0.13530440  0.50300483  0.75394709  1
  O  O269  1  0.12505419  0.99314494  0.24265130  1
  O  O270  1  0.12175109  0.98999530  0.75180727  1
  O  O271  1  0.62980669  0.48918281  0.25645803  1
  O  O272  1  0.62125469  0.49402447  0.75518415  1
  O  O273  1  0.63712377  1.00828541  0.23642797  1
  O  O274  1  0.63271664  0.98521975  0.75729360  1
  O  O275  1  0.37542901  0.01737594  0.24704164  1
  O  O276  1  0.37938071  0.00540313  0.76204750  1
  O  O277  1  0.36953106  0.50397528  0.25782665  1
  O  O278  1  0.37095249  0.50668719  0.75727958  1
  O  O279  1  0.86523104  0.00873193  0.24890746  1
  O  O280  1  0.86910991  0.00185012  0.76013608  1
  O  O281  1  0.85847856  0.48158573  0.26595030  1
  O  O282  1  0.87949087  0.50630787  0.75302676  1
  O  O283  1  0.11870375  0.37470660  0.36870880  1
  O  O284  1  0.13093111  0.35491352  0.87358595  1
  O  O285  1  0.12798840  0.86659292  0.36561945  1
  O  O286  1  0.12661163  0.87515621  0.86417226  1
  O  O287  1  0.61746794  0.36910047  0.36529214  1
  O  O288  1  0.62322246  0.36966497  0.86628419  1
  O  O289  1  0.62659607  0.85793552  0.37732109  1
  O  O290  1  0.61450716  0.87224379  0.87188380  1
  O  O291  1  0.37354619  0.13364428  0.12879081  1
  O  O292  1  0.38177016  0.13074549  0.63056858  1
  O  O293  1  0.37039516  0.61766162  0.14168261  1
  O  O294  1  0.36839113  0.62748529  0.63947583  1
  O  O295  1  0.88233907  0.13422844  0.12959847  1
  O  O296  1  0.86513213  0.12989688  0.63399766  1
  O  O297  1  0.87788621  0.64021162  0.12505175  1
  O  O298  1  0.88893604  0.63633696  0.62174697  1
  O  O299  1  0.25635949  0.25501473  0.11716198  1
  O  O300  1  0.26079823  0.25239499  0.61488656  1
  O  O301  1  0.24717448  0.75948010  0.12317148  1
  O  O302  1  0.24927592  0.75460091  0.61356284  1
  O  O303  1  0.75591296  0.26015718  0.11532126  1
  O  O304  1  0.75772958  0.25961294  0.61541947  1
  O  O305  1  0.76693156  0.75123237  0.12572946  1
  O  O306  1  0.76397097  0.75148520  0.61977845  1
  O  O307  1  0.24974589  0.24574771  0.38829718  1
  O  O308  1  0.24209022  0.23844826  0.87656749  1
  O  O309  1  0.24090652  0.74557382  0.38709042  1
  O  O310  1  0.24641264  0.73616606  0.87087855  1
  O  O311  1  0.74071132  0.26617645  0.38172869  1
  O  O312  1  0.74741359  0.24897646  0.88075235  1
  O  O313  1  0.74727224  0.74614884  0.38168397  1
  O  O314  1  0.73081949  0.76832816  0.88990763  1
  O  O315  1  0.00704420  0.12572338  0.01212457  1
  O  O316  1  0.00850657  0.11909179  0.49815189  1
  O  O317  1  0.00957455  0.60997799  0.00592422  1
  O  O318  1  0.00918593  0.61642729  0.50927571  1
  O  O319  1  0.50925901  0.11917335  -0.00246945  1
  O  O320  1  0.50132135  0.12815136  0.51465079  1
  O  O321  1  0.50652989  0.61538732  -0.00291527  1
  O  O322  1  0.49475509  0.60944678  0.49879144  1
  O  O323  1  0.49388843  0.38200229  0.49504426  1
  O  O324  1  0.49717602  0.38082945  0.99260784  1
  O  O325  1  0.48567476  0.86880087  0.49775796  1
  O  O326  1  0.48760244  0.88227209  0.99350971  1
  O  O327  1  0.99543483  0.37952000  0.49913017  1
  O  O328  1  1.00866676  0.38742586  0.98543244  1
  O  O329  1  0.99908973  0.88317597  0.49495852  1
  O  O330  1  0.98783723  0.87870663  0.99808402  1
  O  O331  1  0.49236242  0.49382277  0.38035553  1
  O  O332  1  0.49103198  0.49322350  0.88288405  1
  O  O333  1  0.50091846  1.00498008  0.37883530  1
  O  O334  1  0.49174772  0.99643711  0.87903883  1
  O  O335  1  0.99490909  0.48930053  0.38913262  1
  O  O336  1  0.98973576  0.49973161  0.88348937  1
  O  O337  1  0.99005410  0.99917731  0.38263597  1
  O  O338  1  0.98968258  0.99905124  0.88140124  1
  O  O339  1  0.00953821  0.01076180  0.12424559  1
  O  O340  1  -0.01185697  0.00302130  0.60825901  1
  O  O341  1  0.01718214  0.48350905  0.10891131  1
  O  O342  1  -0.00561761  0.50646222  0.61554940  1
  O  O343  1  0.50880740  0.00295842  0.11631860  1
  O  O344  1  0.50152005  0.01322611  0.62822090  1
  O  O345  1  0.49554454  0.50282022  0.10909005  1
  O  O346  1  0.49260130  0.49461049  0.61204341  1
  O  O347  1  0.24510887  0.37783066  0.24575421  1
  O  O348  1  0.25478540  0.38416061  0.74108742  1
  O  O349  1  0.24193955  0.87235113  0.23426407  1
  O  O350  1  0.23741624  0.87345473  0.74028321  1
  O  O351  1  0.73982137  0.38104773  0.23912615  1
  O  O352  1  0.74331468  0.37342527  0.73633223  1
  O  O353  1  0.74963538  0.89002466  0.24682422  1
  O  O354  1  0.74221166  0.87401483  0.74802434  1
  O  O355  1  0.25822962  0.13760712  0.26128360  1
  O  O356  1  0.26499661  0.12616723  0.75527219  1
  O  O357  1  0.25706359  0.61720831  0.25655968  1
  O  O358  1  0.25464758  0.61716318  0.75679789  1
  O  O359  1  0.76057008  0.12882688  0.24149436  1
  O  O360  1  0.75407296  0.11221367  0.75548859  1
  O  O361  1  0.74413169  0.60888022  0.24842374  1
  O  O362  1  0.76241347  0.67026528  0.77087299  1
  O  O363  1  0.36709755  0.12786211  0.36580929  1
  O  O364  1  0.36847600  0.12056844  0.86750619  1
  O  O365  1  0.36868736  0.61949254  0.36874527  1
  O  O366  1  0.36584528  0.61792114  0.87013609  1
  O  O367  1  0.88189453  0.11694430  0.36099513  1
  O  O368  1  0.86876208  0.11658983  0.86955335  1
  O  O369  1  0.87590228  0.60958815  0.38047208  1
  O  O370  1  0.87518080  0.60493775  0.88416691  1
  O  O371  1  0.13184792  0.37736303  0.13093738  1
  O  O372  1  0.13956152  0.36714954  0.62033258  1
  O  O373  1  0.13354319  0.88207079  0.12833618  1
  O  O374  1  0.13204704  0.87518176  0.63759822  1
  O  O375  1  0.63436932  0.37312733  0.13153086  1
  O  O376  1  0.63781596  0.37134215  0.63330771  1
  O  O377  1  0.62377853  0.88543074  0.11285065  1
  O  O378  1  0.63949449  0.86100634  0.63501934  1
  O  O379  1  0.12190878  0.26321330  0.25188867  1
  O  O380  1  0.12841951  0.23790324  0.75897515  1
  O  O381  1  0.12995703  0.75676824  0.26008608  1
  O  O382  1  0.11690172  0.75848859  0.75120744  1
  O  O383  1  0.61875471  0.26313999  0.25131163  1
  O  O384  1  0.62921489  0.25385031  0.76168692  1
  O  O385  1  0.62381511  0.74256739  0.26568924  1
  O  O386  1  0.61341071  0.76212811  0.76158752  1
  O  O387  1  0.38043835  0.24724321  0.24188794  1
  O  O388  1  0.37739857  0.24202350  0.74022638  1
  O  O389  1  0.36968738  0.73476582  0.25782974  1
  O  O390  1  0.37863858  0.74086887  0.75366060  1
  O  O391  1  0.87615507  0.24687236  0.24145112  1
  O  O392  1  0.86080501  0.23557838  0.74207948  1
  O  O393  1  0.87351433  0.75095376  0.24638831  1
  O  O394  1  0.89785786  0.75993967  0.73857868  1
  O  O395  1  0.38082097  0.49449816  0.49460082  1
  O  O396  1  0.37957988  0.49301020  0.99295422  1
  O  O397  1  0.37430813  0.98591434  0.49978141  1
  O  O398  1  0.37880785  0.99719595  0.98710841  1
  O  O399  1  0.88222157  0.48924561  0.49629786  1
  O  O400  1  0.89058950  0.49815818  1.01055466  1
  O  O401  1  0.87691553  1.00169780  0.48795767  1
  O  O402  1  0.87584586  0.99140369  0.99671694  1
  O  O403  1  0.12372981  0.01420080  0.00625317  1
  O  O404  1  0.11368796  0.00854984  0.49255460  1
  O  O405  1  0.12240629  0.50616138  0.00475054  1
  O  O406  1  0.11762088  0.50876643  0.49660526  1
  O  O407  1  0.62314160  0.00826207  0.00358067  1
  O  O408  1  0.68753537  0.01278682  0.50857912  1
  O  O409  1  0.61608285  0.50955480  -0.01058301  1
  O  O410  1  0.60861872  0.49876710  0.49867041  1
  O  O411  1  0.36964044  0.37004370  0.11798679  1
  O  O412  1  0.36871001  0.36484878  0.62020696  1
  O  O413  1  0.35720102  0.88239348  0.11538999  1
  O  O414  1  0.36414844  0.87458837  0.61466453  1
  O  O415  1  0.86747248  0.36520647  0.12942333  1
  O  O416  1  0.86455538  0.36974235  0.62030958  1
  O  O417  1  0.88005618  0.86745768  0.11786362  1
  O  O418  1  0.86797487  0.86327568  0.62455021  1
  O  O419  1  0.13271741  0.12772700  0.38087744  1
  O  O420  1  0.13073883  0.12977843  0.88087337  1
  O  O421  1  0.13076699  0.62993644  0.38360688  1
  O  O422  1  0.13209591  0.62574174  0.88487758  1
  O  O423  1  0.62387633  0.14510834  0.35888516  1
  O  O424  1  0.63085559  0.13161992  0.88137770  1
  O  O425  1  0.62967888  0.63406843  0.38380204  1
  O  O426  1  0.62657039  0.63662274  0.88268694  1
