# generated using pymatgen
data_V85Zn86O256
_symmetry_space_group_name_H-M   'P 1'
_cell_length_a   16.92340274
_cell_length_b   16.91253519
_cell_length_c   16.92046523
_cell_angle_alpha   89.93933306
_cell_angle_beta   90.00296984
_cell_angle_gamma   90.04040433
_symmetry_Int_Tables_number   1
_chemical_formula_structural   V85Zn86O256
_chemical_formula_sum   'V85 Zn86 O256'
_cell_volume   4842.93177338
_cell_formula_units_Z   1
loop_
 _symmetry_equiv_pos_site_id
 _symmetry_equiv_pos_as_xyz
  1  'x, y, z'
loop_
 _atom_site_type_symbol
 _atom_site_label
 _atom_site_symmetry_multiplicity
 _atom_site_fract_x
 _atom_site_fract_y
 _atom_site_fract_z
 _atom_site_occupancy
  V  V0  1  0.49414225  0.50386385  -0.00466155  1
  V  V1  1  0.25052253  0.49511691  0.75391492  1
  V  V2  1  0.61627154  0.12113551  0.50214359  1
  V  V3  1  0.88408653  0.62520442  0.24808384  1
  V  V4  1  0.11915983  0.49964127  0.12972949  1
  V  V5  1  0.74717204  0.62585932  0.37316377  1
  V  V6  1  0.49747804  0.75725475  0.24411114  1
  V  V7  1  0.25598445  0.62171911  0.87599399  1
  V  V8  1  0.37535081  0.49955075  0.37432494  1
  V  V9  1  0.00117260  0.61905972  0.61592192  1
  V  V10  1  0.87306118  0.49617197  0.88268510  1
  V  V11  1  0.74976169  0.12517485  0.37802917  1
  V  V12  1  0.63676994  0.87373682  0.76278414  1
  V  V13  1  0.62354413  0.50419261  0.62725613  1
  V  V14  1  0.25111180  -0.00261816  0.74817730  1
  V  V15  1  0.12497385  0.25078437  0.87067999  1
  V  V16  1  0.74802663  0.25201537  0.50179728  1
  V  V17  1  0.62917087  0.49603017  0.12323170  1
  V  V18  1  0.37657477  0.62746905  0.24150715  1
  V  V19  1  -0.00156683  0.49496895  0.00491110  1
  V  V20  1  0.62203389  -0.00806511  0.62397649  1
  V  V21  1  0.87686367  0.62405413  0.75055738  1
  V  V22  1  0.00487686  0.37605268  0.87544204  1
  V  V23  1  -0.00281540  0.12009940  0.12274095  1
  V  V24  1  0.75100725  0.87428421  0.12589681  1
  V  V25  1  0.00838805  0.37319891  0.37996840  1
  V  V26  1  -0.00049992  0.12554459  0.62288191  1
  V  V27  1  -0.00952345  -0.00683276  0.50047186  1
  V  V28  1  0.37360843  0.12654203  0.74018222  1
  V  V29  1  0.12295945  0.49352576  0.62459307  1
  V  V30  1  0.49523194  0.37713791  0.87367095  1
  V  V31  1  0.38748125  0.87516645  0.49816998  1
  V  V32  1  0.37276518  0.37835089  -0.00291379  1
  V  V33  1  -0.00096540  0.25445670  0.74880104  1
  V  V34  1  0.38359735  0.86632035  -0.00008633  1
  V  V35  1  0.24718486  0.37276467  0.12591190  1
  V  V36  1  0.50249724  0.37004895  0.36435651  1
  V  V37  1  0.24887332  0.49916648  0.25055887  1
  V  V38  1  0.62246083  0.37475495  0.75205425  1
  V  V39  1  -0.00083389  0.74732347  0.74950917  1
  V  V40  1  0.87906317  0.89180417  -0.00179086  1
  V  V41  1  0.75195520  0.75254472  -0.00653173  1
  V  V42  1  0.61986726  0.23238830  0.88115550  1
  V  V43  1  -0.00462169  0.87371939  0.36984182  1
  V  V44  1  0.37355584  0.62748637  0.74026622  1
  V  V45  1  0.88278673  0.74743752  0.12327550  1
  V  V46  1  0.74852175  0.50107534  0.75148806  1
  V  V47  1  0.87108925  0.25137252  0.63329515  1
  V  V48  1  0.87553421  0.12694222  0.25175213  1
  V  V49  1  0.12803950  -0.00087419  0.61848171  1
  V  V50  1  0.74600161  0.62863823  0.87491234  1
  V  V51  1  0.11889770  0.62424607  0.00417937  1
  V  V52  1  0.12345523  -0.00644587  0.12667509  1
  V  V53  1  0.25503677  0.74920047  0.50116898  1
  V  V54  1  0.49605947  0.24998526  0.73892827  1
  V  V55  1  0.12358496  0.74896424  0.87655194  1
  V  V56  1  0.62563602  0.00495341  0.11863883  1
  V  V57  1  0.24913720  0.62522328  0.37504290  1
  V  V58  1  0.39020581  -0.00316949  0.37727726  1
  V  V59  1  0.24372775  0.24954049  0.49722007  1
  V  V60  1  0.37924084  0.25047481  0.12821895  1
  V  V61  1  0.75179455  0.49144799  0.24831113  1
  V  V62  1  0.87679028  0.38454229  0.50107129  1
  V  V63  1  0.37649450  0.36763954  0.50618496  1
  V  V64  1  0.62499312  0.63165243  -0.00030121  1
  V  V65  1  0.61789631  0.75857230  0.37702424  1
  V  V66  1  0.24914757  0.24806028  -0.00041154  1
  V  V67  1  0.12700580  0.75625378  0.36893826  1
  V  V68  1  0.25077875  0.12200649  0.87425953  1
  V  V69  1  0.25570590  0.86938358  0.62289372  1
  V  V70  1  0.38263778  -0.00449421  0.87547078  1
  V  V71  1  0.74865638  -0.00076036  0.25107766  1
  V  V72  1  0.12088426  0.11559188  -0.00185616  1
  V  V73  1  0.24299484  0.12608815  0.37262106  1
  V  V74  1  0.24903447  -0.00707328  0.25192141  1
  V  V75  1  0.49964273  0.50123702  0.50024622  1
  V  V76  1  0.50434658  0.12805061  0.11810989  1
  V  V77  1  0.25225607  0.86800472  0.12435720  1
  V  V78  1  0.76350627  0.11667186  0.87480088  1
  V  V79  1  0.49509127  0.76435550  0.75291184  1
  V  V80  1  0.38098596  0.12690660  0.25019404  1
  V  V81  1  0.24997645  0.36706257  0.63129957  1
  V  V82  1  0.87247692  0.75341991  0.61806831  1
  V  V83  1  -0.00174133  0.88938400  0.87659156  1
  V  V84  1  0.87374335  0.26103171  0.11825663  1
  Zn  Zn85  1  0.49538800  0.63027232  0.62409794  1
  Zn  Zn86  1  0.49699202  0.62821119  0.12126656  1
  Zn  Zn87  1  0.49540658  0.12346512  0.61827538  1
  Zn  Zn88  1  0.87838785  0.50233122  0.37868302  1
  Zn  Zn89  1  0.12768740  0.87273988  0.74975461  1
  Zn  Zn90  1  0.12917840  0.36376548  0.25807736  1
  Zn  Zn91  1  0.25315092  0.74647997  0.00425051  1
  Zn  Zn92  1  0.75995338  0.88807114  0.62225186  1
  Zn  Zn93  1  0.62757376  0.36674658  0.23847003  1
  Zn  Zn94  1  0.86680470  -0.00917744  0.38418401  1
  Zn  Zn95  1  0.12004931  0.12903414  0.49329968  1
  Zn  Zn96  1  0.62241250  0.24884520  0.36754888  1
  Zn  Zn97  1  0.00646576  0.75129216  0.24367562  1
  Zn  Zn98  1  0.87091814  0.10964512  0.74750397  1
  Zn  Zn99  1  0.75011261  0.37635755  0.62866003  1
  Zn  Zn100  1  0.12392646  0.62165303  0.49835257  1
  Zn  Zn101  1  0.62551735  0.62622900  0.49928059  1
  Zn  Zn102  1  0.74562474  0.25740634  0.00441463  1
  Zn  Zn103  1  0.75307494  0.75911812  0.49470726  1
  Zn  Zn104  1  0.01181122  0.24381490  0.25846529  1
  Zn  Zn105  1  0.50362096  0.00031789  -0.00427591  1
  Zn  Zn106  1  0.61954468  0.87988089  0.25253214  1
  Zn  Zn107  1  0.18947013  0.18270897  0.18765842  1
  Zn  Zn108  1  0.18604738  0.18693377  0.68564080  1
  Zn  Zn109  1  0.18567093  0.68485482  0.18792269  1
  Zn  Zn110  1  0.18659844  0.68535518  0.68684307  1
  Zn  Zn111  1  0.68930701  0.19203314  0.18726320  1
  Zn  Zn112  1  0.68616282  0.18287916  0.69182715  1
  Zn  Zn113  1  0.68874055  0.68596095  0.18771343  1
  Zn  Zn114  1  0.68462081  0.69275898  0.69084681  1
  Zn  Zn115  1  0.31362346  0.31148229  0.31372563  1
  Zn  Zn116  1  0.31377142  0.31058618  0.81159564  1
  Zn  Zn117  1  0.31674183  0.81436636  0.31387082  1
  Zn  Zn118  1  0.31326860  0.81002684  0.81443161  1
  Zn  Zn119  1  0.81748515  0.31042128  0.31534512  1
  Zn  Zn120  1  0.79219258  0.33060221  0.84986059  1
  Zn  Zn121  1  0.81279790  0.81074474  0.31228020  1
  Zn  Zn122  1  0.81335077  0.93653404  0.81089322  1
  Zn  Zn123  1  0.18787593  0.43840863  0.44309212  1
  Zn  Zn124  1  0.18542129  0.43775700  0.93787234  1
  Zn  Zn125  1  0.18757401  0.93584202  0.43606107  1
  Zn  Zn126  1  0.19145345  0.93390464  0.93809630  1
  Zn  Zn127  1  0.68780690  0.43883256  0.43688591  1
  Zn  Zn128  1  0.68238470  0.43613667  0.94210613  1
  Zn  Zn129  1  0.68705764  0.93549511  0.44516696  1
  Zn  Zn130  1  0.68705330  0.93834422  0.94169243  1
  Zn  Zn131  1  0.31330300  0.05871266  0.06203942  1
  Zn  Zn132  1  0.31308715  0.05976898  0.55680120  1
  Zn  Zn133  1  0.30853156  0.56155090  0.06206784  1
  Zn  Zn134  1  0.30931134  0.55723549  0.56297721  1
  Zn  Zn135  1  0.80632870  0.07194145  0.06012822  1
  Zn  Zn136  1  0.80851591  0.06313695  0.56829572  1
  Zn  Zn137  1  0.81280840  0.56254540  0.06566221  1
  Zn  Zn138  1  0.80851735  0.56831745  0.56301642  1
  Zn  Zn139  1  0.43736779  0.44237257  0.18222645  1
  Zn  Zn140  1  0.43253138  0.44215663  0.68843838  1
  Zn  Zn141  1  0.43582857  0.93916883  0.18421991  1
  Zn  Zn142  1  0.43962970  0.93904431  0.68252192  1
  Zn  Zn143  1  0.94175578  0.43580125  0.19720583  1
  Zn  Zn144  1  0.93745285  0.43588273  0.69133859  1
  Zn  Zn145  1  0.93550232  0.93816844  0.18940961  1
  Zn  Zn146  1  0.94661679  0.93235234  0.68705182  1
  Zn  Zn147  1  0.06209185  0.05633284  0.31055194  1
  Zn  Zn148  1  0.06326725  0.06586589  0.80385864  1
  Zn  Zn149  1  0.06128363  0.55765969  0.31874178  1
  Zn  Zn150  1  0.06728262  0.56158357  0.81042110  1
  Zn  Zn151  1  0.56571096  0.07027693  0.30673926  1
  Zn  Zn152  1  0.56011920  0.05704629  0.80293731  1
  Zn  Zn153  1  0.56363905  0.56270652  0.31004619  1
  Zn  Zn154  1  0.55911957  0.56743508  0.81461852  1
  Zn  Zn155  1  0.43184900  0.18967821  0.43577821  1
  Zn  Zn156  1  0.43543348  0.18683333  0.93490546  1
  Zn  Zn157  1  0.43673629  0.68762485  0.43412343  1
  Zn  Zn158  1  0.43988698  0.69112579  0.92872164  1
  Zn  Zn159  1  0.93440203  0.19024820  0.44118737  1
  Zn  Zn160  1  0.93858859  0.18485996  0.93992691  1
  Zn  Zn161  1  0.93872634  0.68633542  0.43435177  1
  Zn  Zn162  1  0.93689156  0.68739592  0.93820363  1
  Zn  Zn163  1  0.05962273  0.30845181  0.06571481  1
  Zn  Zn164  1  0.06290098  0.31551650  0.56195980  1
  Zn  Zn165  1  0.06156197  0.81534703  0.05887821  1
  Zn  Zn166  1  0.06589776  0.81105267  0.55794750  1
  Zn  Zn167  1  0.55994130  0.31347666  0.06054895  1
  Zn  Zn168  1  0.56550578  0.31566828  0.56081316  1
  Zn  Zn169  1  0.56493044  0.81420353  0.06567437  1
  Zn  Zn170  1  0.56321545  0.80694446  0.56864726  1
  O  O171  1  0.11994729  0.11487726  0.11661006  1
  O  O172  1  0.11825061  0.11663614  0.62159324  1
  O  O173  1  0.12887551  0.61411564  0.11595048  1
  O  O174  1  0.11703928  0.61745139  0.62344804  1
  O  O175  1  0.61551045  0.11960160  0.12975503  1
  O  O176  1  0.62190775  0.11887036  0.61800479  1
  O  O177  1  0.62406891  0.61552427  0.11598192  1
  O  O178  1  0.62406103  0.61470482  0.62407990  1
  O  O179  1  0.38472213  0.38048726  0.38152470  1
  O  O180  1  0.38686761  0.36931082  0.88051318  1
  O  O181  1  0.37452152  0.88938322  0.38110577  1
  O  O182  1  0.36793509  0.88172006  0.88928898  1
  O  O183  1  0.88033858  0.37766535  0.38611655  1
  O  O184  1  0.89247981  0.39007122  0.86533463  1
  O  O185  1  0.88909536  0.87301429  0.37491701  1
  O  O186  1  0.88471878  0.87891193  0.88522619  1
  O  O187  1  0.25715258  0.00449024  0.36751199  1
  O  O188  1  0.25624564  0.00321426  0.86707348  1
  O  O189  1  0.25505806  0.50329423  0.37052083  1
  O  O190  1  0.24144356  0.50832036  0.86682533  1
  O  O191  1  0.74850140  0.00630316  0.36909083  1
  O  O192  1  0.75010431  0.01202142  0.87911675  1
  O  O193  1  0.75070998  0.50870722  0.36756630  1
  O  O194  1  0.75808516  0.50870409  0.87256608  1
  O  O195  1  0.23970949  0.49362557  0.13016243  1
  O  O196  1  0.24436305  0.48844466  0.63264509  1
  O  O197  1  0.24442294  0.99252002  0.13209614  1
  O  O198  1  0.24422164  0.99371405  0.62651535  1
  O  O199  1  0.74206754  0.50341115  0.13404088  1
  O  O200  1  0.74145278  0.50053158  0.63327604  1
  O  O201  1  0.74391008  0.99914472  0.13176723  1
  O  O202  1  0.73012500  1.00411056  0.62589314  1
  O  O203  1  0.00429757  0.36898214  0.26624809  1
  O  O204  1  0.00259097  0.36215603  0.75628236  1
  O  O205  1  -0.00066157  0.87446996  0.26446470  1
  O  O206  1  0.00713122  0.86279997  0.75841125  1
  O  O207  1  0.49888716  0.38380964  0.26249189  1
  O  O208  1  0.49927736  0.37038121  0.75559992  1
  O  O209  1  0.49788780  0.86147871  0.24625175  1
  O  O210  1  0.50186783  0.86810447  0.75077412  1
  O  O211  1  0.48703588  0.12348552  0.23939449  1
  O  O212  1  0.49036380  0.13327707  0.74701724  1
  O  O213  1  0.49182079  0.63149331  0.24730021  1
  O  O214  1  0.48548408  0.62160697  0.74772944  1
  O  O215  1  0.99089091  0.12315380  0.24644457  1
  O  O216  1  0.99645246  0.13765190  0.74272876  1
  O  O217  1  0.98742808  0.62657359  0.25707263  1
  O  O218  1  0.99741448  0.62897356  0.74369621  1
  O  O219  1  0.36874123  0.25691851  0.00484039  1
  O  O220  1  0.36627865  0.26141704  0.49943428  1
  O  O221  1  0.37472276  0.76168900  -0.00469760  1
  O  O222  1  0.36298687  0.75850766  0.48925501  1
  O  O223  1  0.88133518  0.24883927  0.01590198  1
  O  O224  1  0.86370215  0.25599340  0.51228251  1
  O  O225  1  0.86927634  0.75297363  0.00729933  1
  O  O226  1  0.87764811  0.74248170  0.51562358  1
  O  O227  1  0.13909421  0.24846817  0.50321849  1
  O  O228  1  0.12756611  0.23919532  0.99102743  1
  O  O229  1  0.13786502  0.74689311  0.48910287  1
  O  O230  1  0.12452100  0.74037472  0.99418838  1
  O  O231  1  0.63670224  0.24588704  0.49962183  1
  O  O232  1  0.62115499  0.25251784  0.98371274  1
  O  O233  1  0.62206598  0.74592155  0.48766239  1
  O  O234  1  0.63304625  0.73928287  1.00678414  1
  O  O235  1  0.48715599  0.24574896  0.12016833  1
  O  O236  1  0.50321531  0.25107338  0.63592101  1
  O  O237  1  0.50485264  0.74589037  0.13993247  1
  O  O238  1  0.50332324  0.74391197  0.64394232  1
  O  O239  1  0.99268154  0.23580669  0.12928703  1
  O  O240  1  0.99474112  0.24793681  0.63138566  1
  O  O241  1  0.98818244  0.75530868  0.12553576  1
  O  O242  1  0.99823570  0.74136771  0.62990672  1
  O  O243  1  -0.00876724  0.26484724  0.37567915  1
  O  O244  1  0.00419028  0.25583656  0.87021075  1
  O  O245  1  0.00751908  0.76000201  0.37611331  1
  O  O246  1  0.00836322  0.75012890  0.86805588  1
  O  O247  1  0.49788825  0.26710911  0.37840717  1
  O  O248  1  0.50573679  0.25448223  0.86776504  1
  O  O249  1  0.51214158  0.74378035  0.36373176  1
  O  O250  1  0.50734569  0.73938805  0.85117582  1
  O  O251  1  0.25083664  0.13248728  0.49083571  1
  O  O252  1  0.24438255  0.12938372  0.99440421  1
  O  O253  1  0.25334348  0.63215471  0.49277951  1
  O  O254  1  0.24031635  0.62539776  0.99333316  1
  O  O255  1  0.74316192  0.13160643  0.49423619  1
  O  O256  1  0.75253761  0.13549168  0.98123679  1
  O  O257  1  0.74878855  0.63017456  0.48523822  1
  O  O258  1  0.74377576  0.63002771  0.99500108  1
  O  O259  1  0.25359635  0.36929032  0.00441858  1
  O  O260  1  0.25785652  0.36793112  0.50607926  1
  O  O261  1  0.25911330  0.87027081  0.00778719  1
  O  O262  1  0.25663589  0.86796584  0.50479230  1
  O  O263  1  0.76179739  0.36215417  -0.04050200  1
  O  O264  1  0.75507660  0.36724384  0.50202648  1
  O  O265  1  0.75755695  0.86813204  0.00478932  1
  O  O266  1  0.75231943  0.87147452  0.50831411  1
  O  O267  1  0.12989995  0.49730597  0.24327419  1
  O  O268  1  0.13981420  0.50471302  0.73946970  1
  O  O269  1  0.13720093  1.00343095  0.23949517  1
  O  O270  1  0.13207283  0.99830740  0.73557967  1
  O  O271  1  0.63247757  0.49751687  0.24008027  1
  O  O272  1  0.62646108  0.49686793  0.74511230  1
  O  O273  1  0.63457231  1.00085577  0.24271958  1
  O  O274  1  0.61972247  0.98400798  0.73982272  1
  O  O275  1  0.37013932  0.00516270  0.25852662  1
  O  O276  1  0.36992302  0.00423565  0.75614500  1
  O  O277  1  0.36964551  0.50709966  0.25369396  1
  O  O278  1  0.36003599  0.50964986  0.74920360  1
  O  O279  1  0.86354265  0.00954722  0.25208261  1
  O  O280  1  0.87659657  -0.00293546  0.74180968  1
  O  O281  1  0.86821023  0.50837732  0.24925667  1
  O  O282  1  0.86905437  0.50568573  0.75840531  1
  O  O283  1  0.11286976  0.37718309  0.38122204  1
  O  O284  1  0.11487480  0.36579200  0.87850745  1
  O  O285  1  0.11495852  0.86698289  0.37712988  1
  O  O286  1  0.12017654  0.86379593  0.87641148  1
  O  O287  1  0.60921799  0.37631027  0.37674610  1
  O  O288  1  0.60945036  0.36947903  0.86847160  1
  O  O289  1  0.62631338  0.86186220  0.37170438  1
  O  O290  1  0.63000614  0.87903797  0.86205461  1
  O  O291  1  0.37795829  0.13106051  0.13150858  1
  O  O292  1  0.37443078  0.11822739  0.63567117  1
  O  O293  1  0.37279457  0.62275516  0.13732015  1
  O  O294  1  0.36985741  0.62328373  0.63664233  1
  O  O295  1  0.88263758  0.12585931  0.13284721  1
  O  O296  1  0.88088873  0.13500336  0.62605596  1
  O  O297  1  0.87059667  0.63545841  0.13441073  1
  O  O298  1  0.88361565  0.62773388  0.63151584  1
  O  O299  1  0.25992362  0.25170762  0.11765062  1
  O  O300  1  0.24765689  0.26053005  0.62050148  1
  O  O301  1  0.24359684  0.76393976  0.12663772  1
  O  O302  1  0.24511477  0.75785230  0.61516391  1
  O  O303  1  0.76738789  0.24487000  0.12037014  1
  O  O304  1  0.75497081  0.25177608  0.62209270  1
  O  O305  1  0.75799736  0.75506935  0.11772357  1
  O  O306  1  0.76743302  0.74270176  0.62573112  1
  O  O307  1  0.25758766  0.23891508  0.38411855  1
  O  O308  1  0.24174449  0.24456889  0.87884473  1
  O  O309  1  0.24460372  0.74680608  0.37831833  1
  O  O310  1  0.23752959  0.74211000  0.87601469  1
  O  O311  1  0.75093471  0.24205130  0.38528786  1
  O  O312  1  0.72865247  0.23437941  0.86905039  1
  O  O313  1  0.73680537  0.74416617  0.37140110  1
  O  O314  1  0.75659286  0.74034076  0.89098032  1
  O  O315  1  0.00949602  0.12408666  0.00857654  1
  O  O316  1  0.00155684  0.11793534  0.50484413  1
  O  O317  1  0.01136786  0.61246778  -0.00597898  1
  O  O318  1  0.00070088  0.62492585  0.51224175  1
  O  O319  1  0.49018439  0.12194932  0.01414532  1
  O  O320  1  0.51265127  0.13649774  0.49837985  1
  O  O321  1  0.50617173  0.62159254  -0.00291966  1
  O  O322  1  0.49696663  0.61233374  0.50115644  1
  O  O323  1  0.49359107  0.38354937  0.49541802  1
  O  O324  1  0.49366729  0.38351032  0.99233953  1
  O  O325  1  0.48617920  0.86582898  0.50588304  1
  O  O326  1  0.48754297  0.87695595  1.00511127  1
  O  O327  1  0.98943051  0.37025195  0.49281138  1
  O  O328  1  1.00509886  0.38672048  0.99263225  1
  O  O329  1  1.00481555  0.88328667  0.48928464  1
  O  O330  1  0.99038569  0.87183674  0.98865738  1
  O  O331  1  0.49602992  0.49340817  0.38224518  1
  O  O332  1  0.50312298  0.49281703  0.88666808  1
  O  O333  1  0.48841089  1.00535920  0.36759718  1
  O  O334  1  0.48616535  1.00391336  0.87575782  1
  O  O335  1  0.99467319  0.48297008  0.37507801  1
  O  O336  1  0.99863111  0.49386542  0.88099390  1
  O  O337  1  0.99814733  0.98893175  0.38169679  1
  O  O338  1  1.01145289  0.98805781  0.86942059  1
  O  O339  1  0.00896198  0.00964234  0.13265231  1
  O  O340  1  0.00994004  0.00134213  0.61662382  1
  O  O341  1  0.01032020  0.49326094  0.12023219  1
  O  O342  1  0.00999174  0.50647422  0.63492317  1
  O  O343  1  0.50848812  0.00897821  0.12582470  1
  O  O344  1  0.51459424  0.00592528  0.62669163  1
  O  O345  1  0.50615577  0.50491617  0.11138858  1
  O  O346  1  0.50558891  0.50156485  0.61711907  1
  O  O347  1  0.25075227  0.38287930  0.24558025  1
  O  O348  1  0.25557291  0.38104179  0.74342628  1
  O  O349  1  0.25926259  0.88533520  0.24210406  1
  O  O350  1  0.24975305  0.87758539  0.74087512  1
  O  O351  1  0.75130638  0.38845010  0.25826110  1
  O  O352  1  0.74016708  0.38333810  0.75557226  1
  O  O353  1  0.75067463  0.88491213  0.24525015  1
  O  O354  1  0.73947749  0.87242392  0.74459823  1
  O  O355  1  0.26174179  0.11414505  0.25418802  1
  O  O356  1  0.25556978  0.11974203  0.75386705  1
  O  O357  1  0.25674365  0.61933908  0.25536312  1
  O  O358  1  0.25487737  0.62028463  0.75665436  1
  O  O359  1  0.75504040  0.11860789  0.25868938  1
  O  O360  1  0.75079473  0.12632520  0.76789751  1
  O  O361  1  0.75691393  0.61868147  0.25866716  1
  O  O362  1  0.75377934  0.62297354  0.75920051  1
  O  O363  1  0.36932186  0.11581907  0.36872479  1
  O  O364  1  0.36769882  0.11664145  0.86722932  1
  O  O365  1  0.36902355  0.61804265  0.36524814  1
  O  O366  1  0.35941188  0.62970764  0.86902057  1
  O  O367  1  0.86407841  0.12229878  0.37084681  1
  O  O368  1  0.86688058  0.12835061  0.86994016  1
  O  O369  1  0.86724504  0.62489732  0.36716796  1
  O  O370  1  0.86821486  0.61643160  0.87127918  1
  O  O371  1  0.13191910  0.38125794  0.12404222  1
  O  O372  1  0.13482607  0.38116417  0.62441755  1
  O  O373  1  0.13194478  0.88743071  0.11684647  1
  O  O374  1  0.13609915  0.88126156  0.62361705  1
  O  O375  1  0.62086406  0.38966285  0.12025409  1
  O  O376  1  0.62568132  0.38714437  0.63294587  1
  O  O377  1  0.63327508  0.88407110  0.12994222  1
  O  O378  1  0.62567352  0.88435890  0.62796394  1
  O  O379  1  0.12587559  0.25036706  0.24628684  1
  O  O380  1  0.11791985  0.24273685  0.76378102  1
  O  O381  1  0.12338614  0.74404428  0.26361355  1
  O  O382  1  0.11610599  0.74728645  0.75747457  1
  O  O383  1  0.62789226  0.25539312  0.25383427  1
  O  O384  1  0.61401517  0.25456421  0.75845802  1
  O  O385  1  0.61439165  0.75055645  0.25755521  1
  O  O386  1  0.61735041  0.76803383  0.74538545  1
  O  O387  1  0.36901194  0.24060902  0.23990870  1
  O  O388  1  0.38309025  0.23802689  0.75522834  1
  O  O389  1  0.38922901  0.74259330  0.25809896  1
  O  O390  1  0.38482411  0.74392907  0.75278588  1
  O  O391  1  0.87433892  0.23637951  0.24311573  1
  O  O392  1  0.88095299  0.25288848  0.73902013  1
  O  O393  1  0.87642442  0.74283922  0.24105257  1
  O  O394  1  0.89117899  0.73995508  0.74010317  1
  O  O395  1  0.38018183  0.49010080  0.49497392  1
  O  O396  1  0.38240902  0.49303435  1.00466124  1
  O  O397  1  0.37502228  0.99387678  0.48497952  1
  O  O398  1  0.37488298  0.99071491  0.99089473  1
  O  O399  1  0.86745170  0.48753494  0.50329532  1
  O  O400  1  0.88471604  0.50709035  0.99284323  1
  O  O401  1  0.88657148  1.00423903  0.50280775  1
  O  O402  1  0.87195944  0.99032161  1.00968667  1
  O  O403  1  0.13343898  0.01012673  0.00632630  1
  O  O404  1  0.12066214  0.00195370  0.50833031  1
  O  O405  1  0.11848058  0.50501859  0.00821557  1
  O  O406  1  0.13247658  0.50407510  0.51840798  1
  O  O407  1  0.62251321  -0.00172881  0.01367364  1
  O  O408  1  0.62289325  0.00895896  0.50959591  1
  O  O409  1  0.61927798  0.51060617  0.00368099  1
  O  O410  1  0.61681144  0.50100214  0.50839502  1
  O  O411  1  0.36929595  0.36814916  0.12009955  1
  O  O412  1  0.36538736  0.38014606  0.61616474  1
  O  O413  1  0.36647035  0.88129391  0.10983446  1
  O  O414  1  0.36258569  0.88396809  0.61451126  1
  O  O415  1  0.88375932  0.35876285  0.13256414  1
  O  O416  1  0.87305234  0.36900234  0.61972929  1
  O  O417  1  0.86991264  0.86880305  0.11986459  1
  O  O418  1  0.87933676  0.85565043  0.62937983  1
  O  O419  1  0.13914302  0.11695284  0.37435284  1
  O  O420  1  0.12924660  0.12873092  0.88058545  1
  O  O421  1  0.13230286  0.62949863  0.37824360  1
  O  O422  1  0.13182700  0.63066351  0.88225006  1
  O  O423  1  0.63437521  0.12627122  0.38231072  1
  O  O424  1  0.61765515  0.13104880  0.87307974  1
  O  O425  1  0.63157398  0.63298222  0.37410391  1
  O  O426  1  0.63842902  0.62021597  0.88273909  1
