# generated using pymatgen
data_V85Zn86O256
_symmetry_space_group_name_H-M   'P 1'
_cell_length_a   16.90412027
_cell_length_b   16.91073186
_cell_length_c   16.90346966
_cell_angle_alpha   89.95632737
_cell_angle_beta   90.05030014
_cell_angle_gamma   89.97914281
_symmetry_Int_Tables_number   1
_chemical_formula_structural   V85Zn86O256
_chemical_formula_sum   'V85 Zn86 O256'
_cell_volume   4832.03991702
_cell_formula_units_Z   1
loop_
 _symmetry_equiv_pos_site_id
 _symmetry_equiv_pos_as_xyz
  1  'x, y, z'
loop_
 _atom_site_type_symbol
 _atom_site_label
 _atom_site_symmetry_multiplicity
 _atom_site_fract_x
 _atom_site_fract_y
 _atom_site_fract_z
 _atom_site_occupancy
  V  V0  1  0.75512475  0.12595884  0.37129051  1
  V  V1  1  0.12961711  0.49611707  0.13908259  1
  V  V2  1  0.12440984  0.87349878  0.75224800  1
  V  V3  1  0.38265952  -0.00583824  0.87201848  1
  V  V4  1  0.12685249  0.62396450  0.00023063  1
  V  V5  1  0.00514622  0.37059943  0.36042339  1
  V  V6  1  -0.00009933  0.48954069  0.50327671  1
  V  V7  1  0.74984794  0.49832123  0.75095568  1
  V  V8  1  0.49872033  0.62460562  0.62246470  1
  V  V9  1  0.49264439  0.38444263  0.37641799  1
  V  V10  1  0.24927023  0.12130127  0.87720917  1
  V  V11  1  0.12927898  0.87218428  0.24970370  1
  V  V12  1  0.87244704  0.49500426  0.37795883  1
  V  V13  1  0.62122765  0.49933796  0.61959575  1
  V  V14  1  0.87634956  0.62312578  0.74923797  1
  V  V15  1  0.37489435  0.75565123  0.62321527  1
  V  V16  1  0.74630661  0.62482902  0.37024452  1
  V  V17  1  -0.00032508  0.62407906  0.12451952  1
  V  V18  1  0.61806735  0.62632282  0.49355163  1
  V  V19  1  0.74324666  0.75397436  -0.00958312  1
  V  V20  1  0.00697154  0.24872410  0.76934001  1
  V  V21  1  0.87883704  0.00308120  0.36675044  1
  V  V22  1  -0.00132581  -0.00127758  -0.00149011  1
  V  V23  1  0.00247802  0.87503986  0.37402007  1
  V  V24  1  0.00716817  0.62024895  0.62486879  1
  V  V25  1  0.87787287  0.24284137  0.63266785  1
  V  V26  1  0.23783542  0.37792275  0.62419854  1
  V  V27  1  0.74377189  0.75069590  0.49539019  1
  V  V28  1  0.75165363  0.37749075  0.12978162  1
  V  V29  1  0.87050575  0.62088759  0.24982055  1
  V  V30  1  0.12430567  0.12938733  0.49977807  1
  V  V31  1  0.37163413  0.87692532  0.00191462  1
  V  V32  1  0.75753617  0.00427504  0.74588113  1
  V  V33  1  0.37454836  0.75564312  0.13101327  1
  V  V34  1  0.62630087  0.37764242  0.25335073  1
  V  V35  1  0.50091844  0.49959365  0.00033569  1
  V  V36  1  0.62599653  0.12589655  0.50081268  1
  V  V37  1  0.24931429  0.61004461  0.37035251  1
  V  V38  1  0.25706958  0.11788301  0.37770588  1
  V  V39  1  0.62770681  0.86764021  0.25764640  1
  V  V40  1  0.12372556  0.12616054  -0.00181472  1
  V  V41  1  0.50270527  0.12107097  0.12526834  1
  V  V42  1  0.75526410  0.12598644  0.86935805  1
  V  V43  1  0.49178832  0.25233986  0.74286194  1
  V  V44  1  0.73952044  0.87854344  0.12117509  1
  V  V45  1  0.49977148  0.62660824  0.12697928  1
  V  V46  1  0.50688819  -0.00688352  -0.00118434  1
  V  V47  1  0.62582006  0.12069501  0.00288903  1
  V  V48  1  0.12450940  -0.00025679  0.62606060  1
  V  V49  1  0.49789602  0.37398582  0.87457075  1
  V  V50  1  0.74522465  0.87399270  0.62813284  1
  V  V51  1  0.37982792  0.39050894  0.50592190  1
  V  V52  1  0.24947761  0.75294700  0.00517350  1
  V  V53  1  0.26265911  0.24909976  0.50270223  1
  V  V54  1  0.87705462  0.24651544  0.13922709  1
  V  V55  1  0.37326007  0.13036577  0.74702464  1
  V  V56  1  0.24658325  0.75141439  0.48958001  1
  V  V57  1  0.87259031  0.87471691  -0.00151108  1
  V  V58  1  0.36991247  0.50140564  0.87317701  1
  V  V59  1  0.49327789  0.00150826  0.49442725  1
  V  V60  1  0.75625220  0.25493237  0.49921235  1
  V  V61  1  0.75037135  0.25092662  0.00006455  1
  V  V62  1  0.75894600  0.37832465  0.61988563  1
  V  V63  1  0.62327959  0.62827869  -0.00985406  1
  V  V64  1  0.37450664  0.37377797  0.00583362  1
  V  V65  1  0.24853582  0.37470424  0.14249972  1
  V  V66  1  0.51643699  0.76500046  0.76419313  1
  V  V67  1  0.88220203  0.49654498  0.87487425  1
  V  V68  1  -0.00492449  0.12513141  0.13714322  1
  V  V69  1  0.63117794  0.50229670  0.12688702  1
  V  V70  1  0.25842302  -0.00529364  0.24951259  1
  V  V71  1  0.88243405  0.37376995  -0.00169784  1
  V  V72  1  0.37486180  0.62975822  0.75108254  1
  V  V73  1  0.74537409  0.00311429  0.24504434  1
  V  V74  1  0.00213080  0.74875531  0.25564814  1
  V  V75  1  0.37980146  0.12095295  0.25494927  1
  V  V76  1  0.37277554  0.61321394  0.25339012  1
  V  V77  1  0.12342568  0.62466783  0.49561559  1
  V  V78  1  0.49675792  0.86958179  0.37681315  1
  V  V79  1  0.62130455  -0.00195754  0.63005924  1
  V  V80  1  0.13205969  -0.00414381  0.12453711  1
  V  V81  1  0.87630241  0.75024890  0.62518741  1
  V  V82  1  0.62331567  0.25116158  0.87331559  1
  V  V83  1  0.23525020  0.26393720  -0.00956252  1
  V  V84  1  -0.00038063  0.00169429  0.49690719  1
  Zn  Zn85  1  -0.00227289  0.87282386  0.87415735  1
  Zn  Zn86  1  0.00440738  0.49520811  -0.00128595  1
  Zn  Zn87  1  0.50174745  0.24898327  0.25127049  1
  Zn  Zn88  1  0.50465663  0.74539514  0.25644363  1
  Zn  Zn89  1  0.23754586  0.50732094  0.73523154  1
  Zn  Zn90  1  0.13092075  0.25815880  0.35882499  1
  Zn  Zn91  1  0.12194874  0.75218536  0.87791496  1
  Zn  Zn92  1  0.62519767  0.25295516  0.37595240  1
  Zn  Zn93  1  -0.00303940  0.12449999  0.63123609  1
  Zn  Zn94  1  0.12017197  0.37252963  0.78453187  1
  Zn  Zn95  1  0.74721161  0.62663973  0.87158833  1
  Zn  Zn96  1  0.00111631  0.74903487  0.75284210  1
  Zn  Zn97  1  0.62192390  0.37495354  0.74706867  1
  Zn  Zn98  1  0.37281417  0.24705569  0.12600469  1
  Zn  Zn99  1  0.87652880  0.00271025  0.86998202  1
  Zn  Zn100  1  0.87347268  0.87603682  0.49797747  1
  Zn  Zn101  1  0.24775029  0.87361758  0.62233020  1
  Zn  Zn102  1  0.36773901  0.88117414  0.49357897  1
  Zn  Zn103  1  0.49410030  0.12969101  0.62142823  1
  Zn  Zn104  1  0.87226562  0.75016934  0.12444349  1
  Zn  Zn105  1  0.24784935  0.62965810  0.87260167  1
  Zn  Zn106  1  0.25089526  -0.00074989  0.74887331  1
  Zn  Zn107  1  0.18944987  0.18901368  0.18425765  1
  Zn  Zn108  1  0.18657285  0.19282452  0.68711596  1
  Zn  Zn109  1  0.18859236  0.68831265  0.18852457  1
  Zn  Zn110  1  0.18812929  0.69109062  0.68411535  1
  Zn  Zn111  1  0.68742340  0.18976938  0.18704994  1
  Zn  Zn112  1  0.68480016  0.18920220  0.68686819  1
  Zn  Zn113  1  0.68906191  0.69078235  0.18238385  1
  Zn  Zn114  1  0.68746098  0.68563738  0.68477855  1
  Zn  Zn115  1  0.31940073  0.30421144  0.31781010  1
  Zn  Zn116  1  0.29223950  0.31988915  0.82217669  1
  Zn  Zn117  1  0.31540945  0.81026310  0.31335724  1
  Zn  Zn118  1  0.31081518  0.81335797  0.81363167  1
  Zn  Zn119  1  0.81217012  0.31675387  0.31386906  1
  Zn  Zn120  1  0.81454647  0.31359204  0.80983334  1
  Zn  Zn121  1  0.81474156  0.81097237  0.31142190  1
  Zn  Zn122  1  0.80626550  0.81621767  0.81090644  1
  Zn  Zn123  1  0.18322303  0.43641301  0.44056473  1
  Zn  Zn124  1  0.18779417  0.44183501  0.94043865  1
  Zn  Zn125  1  0.18538718  0.93976534  0.43425047  1
  Zn  Zn126  1  0.18996921  0.93676747  0.93650756  1
  Zn  Zn127  1  0.68644218  0.44163667  0.43740419  1
  Zn  Zn128  1  0.68998494  0.43732813  0.93758340  1
  Zn  Zn129  1  0.68446954  0.93865026  0.43789474  1
  Zn  Zn130  1  0.67740984  0.93390971  0.92162866  1
  Zn  Zn131  1  0.31401499  0.06305483  0.06396679  1
  Zn  Zn132  1  0.31183606  0.06208570  0.56661280  1
  Zn  Zn133  1  0.31071203  0.56245974  0.06743423  1
  Zn  Zn134  1  0.31129342  0.56377425  0.56025609  1
  Zn  Zn135  1  0.81205422  0.06221794  0.06208005  1
  Zn  Zn136  1  0.81303206  0.06271014  0.55835342  1
  Zn  Zn137  1  0.81129263  0.56370821  0.05883796  1
  Zn  Zn138  1  0.81372034  0.56427846  0.55942538  1
  Zn  Zn139  1  0.44065625  0.43721353  0.18823385  1
  Zn  Zn140  1  0.43250622  0.43934464  0.68642475  1
  Zn  Zn141  1  0.44375575  0.93721803  0.18608364  1
  Zn  Zn142  1  0.43898201  0.93753373  0.68649207  1
  Zn  Zn143  1  0.93652546  0.44128358  0.18771462  1
  Zn  Zn144  1  0.94357332  0.43131415  0.68950155  1
  Zn  Zn145  1  0.93520658  0.93961146  0.18474962  1
  Zn  Zn146  1  0.93869029  0.93598230  0.68524729  1
  Zn  Zn147  1  0.07982493  0.09226800  0.29631838  1
  Zn  Zn148  1  0.06055714  0.06588676  0.81174619  1
  Zn  Zn149  1  0.06201352  0.56283064  0.31848615  1
  Zn  Zn150  1  0.06410458  0.56114394  0.81234555  1
  Zn  Zn151  1  0.56780438  0.05750394  0.31465734  1
  Zn  Zn152  1  0.56359702  0.06391369  0.81189649  1
  Zn  Zn153  1  0.56212700  0.56031947  0.31137022  1
  Zn  Zn154  1  0.55785857  0.56338947  0.80769266  1
  Zn  Zn155  1  0.44163439  0.19171736  0.43310221  1
  Zn  Zn156  1  0.43430999  0.18700145  0.93562088  1
  Zn  Zn157  1  0.43288098  0.68792928  0.43581866  1
  Zn  Zn158  1  0.43785422  0.69050770  0.93807575  1
  Zn  Zn159  1  0.93552097  0.19051865  0.43871620  1
  Zn  Zn160  1  0.93498614  0.18631989  0.94490329  1
  Zn  Zn161  1  0.93480062  0.68671173  0.43814978  1
  Zn  Zn162  1  0.93586270  0.68831224  0.93587386  1
  Zn  Zn163  1  0.06082477  0.31178695  0.07294971  1
  Zn  Zn164  1  0.06337306  0.30811890  0.55688626  1
  Zn  Zn165  1  0.06066751  0.81228897  0.06626390  1
  Zn  Zn166  1  0.06319416  0.81094300  0.56147085  1
  Zn  Zn167  1  0.56257140  0.30892732  0.06475934  1
  Zn  Zn168  1  0.56349945  0.31427112  0.56070295  1
  Zn  Zn169  1  0.56132960  0.81312119  0.06078939  1
  Zn  Zn170  1  0.56099770  0.81191579  0.56373082  1
  O  O171  1  0.11684538  0.11342778  0.11469901  1
  O  O172  1  0.12536217  0.11928531  0.61506643  1
  O  O173  1  0.12075719  0.61725382  0.11941361  1
  O  O174  1  0.11269381  0.62668756  0.61941456  1
  O  O175  1  0.62052063  0.12884029  0.11106728  1
  O  O176  1  0.62445432  0.11975778  0.61312202  1
  O  O177  1  0.62112317  0.61743858  0.11923836  1
  O  O178  1  0.61763704  0.61980832  0.61614973  1
  O  O179  1  0.38596238  0.37325193  0.38312166  1
  O  O180  1  0.37655420  0.38374892  0.88440052  1
  O  O181  1  0.39126312  0.87617334  0.37449022  1
  O  O182  1  0.37157249  0.88676659  0.88297457  1
  O  O183  1  0.88136774  0.38912976  0.37032667  1
  O  O184  1  0.86563850  0.38265209  0.88712222  1
  O  O185  1  0.88486613  0.88189639  0.37505373  1
  O  O186  1  0.87182217  0.87976673  0.88652218  1
  O  O187  1  0.25203371  0.00926041  0.36710984  1
  O  O188  1  0.25986526  0.00848941  0.87557719  1
  O  O189  1  0.24755067  0.51128031  0.37715080  1
  O  O190  1  0.26558864  0.51022606  0.88326788  1
  O  O191  1  0.75659202  0.00717438  0.37047230  1
  O  O192  1  0.74748180  0.00808101  0.86276676  1
  O  O193  1  0.75835544  0.51381607  0.38080637  1
  O  O194  1  0.75630877  0.50158990  0.86529319  1
  O  O195  1  0.23803415  0.49222540  0.12614690  1
  O  O196  1  0.25255850  0.48547826  0.61953502  1
  O  O197  1  0.24119163  1.00332484  0.13245972  1
  O  O198  1  0.23655925  0.99713097  0.62587513  1
  O  O199  1  0.73901587  0.49386584  0.11964080  1
  O  O200  1  0.74592201  0.49495628  0.62865351  1
  O  O201  1  0.75416321  0.99278713  0.13375604  1
  O  O202  1  0.74485855  0.99452076  0.62686886  1
  O  O203  1  -0.00140085  0.37737721  0.26118927  1
  O  O204  1  0.00293013  0.35689106  0.75153484  1
  O  O205  1  0.00405787  0.86878462  0.25341844  1
  O  O206  1  0.01082261  0.87449566  0.75103754  1
  O  O207  1  0.50520514  0.37398734  0.26031984  1
  O  O208  1  0.49756323  0.36986621  0.75628431  1
  O  O209  1  0.50902808  0.87649636  0.26119254  1
  O  O210  1  0.50255281  0.86335477  0.74558519  1
  O  O211  1  0.49834272  0.11915591  0.24366769  1
  O  O212  1  0.49177743  0.13421706  0.75052117  1
  O  O213  1  0.49313219  0.62624443  0.24622627  1
  O  O214  1  0.48965987  0.63337439  0.74248152  1
  O  O215  1  0.98444303  0.09942055  0.23303213  1
  O  O216  1  1.00146352  0.14080073  0.74753047  1
  O  O217  1  0.99533944  0.63169711  0.24644164  1
  O  O218  1  0.99467565  0.62454175  0.74128184  1
  O  O219  1  0.36953534  0.26348831  0.00131303  1
  O  O220  1  0.36577130  0.25518482  0.49545243  1
  O  O221  1  0.37110036  0.75795636  0.00690409  1
  O  O222  1  0.36705296  0.75277864  0.50732505  1
  O  O223  1  0.86711411  0.25833508  0.00694509  1
  O  O224  1  0.86209224  0.24790661  0.51129653  1
  O  O225  1  0.86622677  0.75805517  0.00242923  1
  O  O226  1  0.86374830  0.74815355  0.51018440  1
  O  O227  1  0.13577394  0.24179201  0.49287356  1
  O  O228  1  0.12984102  0.24194497  1.00615869  1
  O  O229  1  0.13256058  0.73682229  0.50471305  1
  O  O230  1  0.13312242  0.74457002  1.00568735  1
  O  O231  1  0.63627487  0.24264933  0.50172089  1
  O  O232  1  0.63037258  0.24383624  0.99290731  1
  O  O233  1  0.63589565  0.74132507  0.50540128  1
  O  O234  1  0.63048385  0.73965297  1.00588260  1
  O  O235  1  0.49813850  0.23498774  0.12602278  1
  O  O236  1  0.50441932  0.25018746  0.63864471  1
  O  O237  1  0.49253771  0.74310609  0.12722791  1
  O  O238  1  0.49315381  0.74171899  0.63045785  1
  O  O239  1  0.99071339  0.23830731  0.12566666  1
  O  O240  1  0.98454151  0.24972525  0.61975545  1
  O  O241  1  0.99799858  0.73899912  0.13512794  1
  O  O242  1  0.99060834  0.74170948  0.62463892  1
  O  O243  1  -0.00467422  0.26951373  0.38148694  1
  O  O244  1  -0.00349203  0.24622723  0.86852731  1
  O  O245  1  -0.00617862  0.75759627  0.36409557  1
  O  O246  1  0.00209457  0.75387653  0.87168069  1
  O  O247  1  0.50714348  0.26284251  0.37179302  1
  O  O248  1  0.50448552  0.25522002  0.86974521  1
  O  O249  1  0.50017602  0.76410811  0.37610906  1
  O  O250  1  0.49684186  0.74996248  0.86216363  1
  O  O251  1  0.24974521  0.13004005  0.49560728  1
  O  O252  1  0.24143277  0.13108727  0.99843091  1
  O  O253  1  0.24392827  0.62847844  0.49020844  1
  O  O254  1  0.24251896  0.63329909  1.00255858  1
  O  O255  1  0.74391395  0.13152204  0.49268312  1
  O  O256  1  0.74154934  0.12903153  0.99425974  1
  O  O257  1  0.74039766  0.63203737  0.49407862  1
  O  O258  1  0.74020760  0.63426354  0.99927638  1
  O  O259  1  0.25802662  0.37307971  0.01598525  1
  O  O260  1  0.26090067  0.37004404  0.50220999  1
  O  O261  1  0.26295614  0.87059696  0.00147374  1
  O  O262  1  0.24840493  0.86754434  0.49863027  1
  O  O263  1  0.75538170  0.37098617  0.01163800  1
  O  O264  1  0.74477498  0.36782454  0.50736691  1
  O  O265  1  0.75235880  0.87294964  0.00425193  1
  O  O266  1  0.75048303  0.86759307  0.50634421  1
  O  O267  1  0.12287854  0.50691434  0.23717022  1
  O  O268  1  0.13282717  0.48522065  0.77098017  1
  O  O269  1  0.13708674  0.99683755  0.24257676  1
  O  O270  1  0.12460070  0.99539617  0.74219755  1
  O  O271  1  0.62191092  0.48871002  0.23977004  1
  O  O272  1  0.63204314  0.50184510  0.73849816  1
  O  O273  1  0.63890112  0.98718456  0.25402908  1
  O  O274  1  0.63299663  1.00810090  0.73533468  1
  O  O275  1  0.36495918  0.00181159  0.24251843  1
  O  O276  1  0.37455834  0.00540021  0.75706980  1
  O  O277  1  0.37549633  0.51389565  0.24230637  1
  O  O278  1  0.37176594  0.50960893  0.75819429  1
  O  O279  1  0.86169780  -0.00777959  0.26052781  1
  O  O280  1  0.86262974  -0.00094176  0.74802232  1
  O  O281  1  0.87903782  0.51401701  0.25817496  1
  O  O282  1  0.86896082  0.49982668  0.75598048  1
  O  O283  1  0.11175946  0.37412041  0.37345415  1
  O  O284  1  0.18612377  0.34882927  0.87983594  1
  O  O285  1  0.11077526  0.88231290  0.36353145  1
  O  O286  1  0.12346040  0.87510665  0.86647668  1
  O  O287  1  0.61969042  0.37668094  0.36829085  1
  O  O288  1  0.61768617  0.36990647  0.87359875  1
  O  O289  1  0.61651721  0.87564246  0.36838566  1
  O  O290  1  0.62908662  0.85003351  0.87249669  1
  O  O291  1  0.38373327  0.12409274  0.13474599  1
  O  O292  1  0.37454839  0.12293888  0.64208865  1
  O  O293  1  0.37954417  0.63343576  0.13121903  1
  O  O294  1  0.38105894  0.63247495  0.62874415  1
  O  O295  1  0.88298117  0.13591278  0.11485405  1
  O  O296  1  0.87209637  0.13942308  0.62398988  1
  O  O297  1  0.88243154  0.62314130  0.13113409  1
  O  O298  1  0.88196516  0.63152355  0.62910958  1
  O  O299  1  0.24941607  0.25718311  0.11267175  1
  O  O300  1  0.24761017  0.26148018  0.61353733  1
  O  O301  1  0.25953842  0.74693314  0.11537298  1
  O  O302  1  0.25935694  0.74938299  0.61295364  1
  O  O303  1  0.75490410  0.25793437  0.11905263  1
  O  O304  1  0.75818598  0.25736730  0.62234287  1
  O  O305  1  0.75162572  0.76038358  0.11231678  1
  O  O306  1  0.75452626  0.75650332  0.61909038  1
  O  O307  1  0.24925458  0.23512408  0.38111756  1
  O  O308  1  0.26913923  0.22671442  0.88945084  1
  O  O309  1  0.25402088  0.74326939  0.38660791  1
  O  O310  1  0.24938545  0.74851285  0.89081632  1
  O  O311  1  0.74988411  0.24496069  0.38220721  1
  O  O312  1  0.74388962  0.24513216  0.87715286  1
  O  O313  1  0.75681331  0.73873957  0.38417764  1
  O  O314  1  0.75482741  0.74589617  0.88618911  1
  O  O315  1  0.00686962  0.11687585  0.00529926  1
  O  O316  1  0.00842258  0.12097137  0.50055134  1
  O  O317  1  0.00633159  0.62546392  0.01080229  1
  O  O318  1  0.00643057  0.62079086  0.50379949  1
  O  O319  1  0.50554416  0.11738451  0.00453442  1
  O  O320  1  0.50741289  0.12021334  0.49924487  1
  O  O321  1  0.50535262  0.62084322  0.00590352  1
  O  O322  1  0.50926169  0.63251519  0.50577186  1
  O  O323  1  0.48900145  0.37110078  0.49130706  1
  O  O324  1  0.49330115  0.37849902  0.99714961  1
  O  O325  1  0.50077144  0.88133622  0.49017855  1
  O  O326  1  0.49073822  0.88635653  1.00526226  1
  O  O327  1  1.00305452  0.38716904  0.49538750  1
  O  O328  1  0.98675547  0.37547265  1.00788221  1
  O  O329  1  0.99965657  0.87992005  0.48992001  1
  O  O330  1  0.99056416  0.88078303  1.00124077  1
  O  O331  1  0.50428321  0.48373819  0.37581692  1
  O  O332  1  0.49020992  0.49535694  0.87968059  1
  O  O333  1  0.50736604  0.98904669  0.38573734  1
  O  O334  1  0.49413174  1.00436576  0.88419181  1
  O  O335  1  0.99357440  0.49163168  0.38099427  1
  O  O336  1  0.98602581  0.50236106  0.87928371  1
  O  O337  1  0.99212106  0.99497231  0.37636897  1
  O  O338  1  0.99787987  0.99956253  0.88689584  1
  O  O339  1  0.00571537  0.00223127  0.11312106  1
  O  O340  1  0.00750715  0.00367614  0.61813661  1
  O  O341  1  0.00964631  0.50890584  0.12408712  1
  O  O342  1  -0.00946484  0.50811258  0.61592177  1
  O  O343  1  0.49984501  0.01124063  0.11447137  1
  O  O344  1  0.50757614  0.00358457  0.61743375  1
  O  O345  1  0.51094213  0.50427048  0.11877897  1
  O  O346  1  0.50687325  0.51439863  0.63140615  1
  O  O347  1  0.25369516  0.36082833  0.24166780  1
  O  O348  1  0.25717732  0.37498790  0.72745006  1
  O  O349  1  0.24040048  0.88076757  0.25869511  1
  O  O350  1  0.23834770  0.87744390  0.74685961  1
  O  O351  1  0.74333190  0.37536407  0.23814088  1
  O  O352  1  0.74697305  0.38538419  0.74199847  1
  O  O353  1  0.74512136  0.87773592  0.24325572  1
  O  O354  1  0.75101472  0.88408376  0.73539905  1
  O  O355  1  0.26197569  0.11547940  0.25678832  1
  O  O356  1  0.25440076  0.12531801  0.75944885  1
  O  O357  1  0.25493736  0.62983165  0.26351193  1
  O  O358  1  0.26099530  0.62544337  0.74941212  1
  O  O359  1  0.74165195  0.11657229  0.25859866  1
  O  O360  1  0.74511834  0.11892343  0.75748997  1
  O  O361  1  0.75694287  0.63170759  0.25746159  1
  O  O362  1  0.75624431  0.61293569  0.74645170  1
  O  O363  1  0.37361620  0.12345865  0.36437875  1
  O  O364  1  0.37170487  0.11158608  0.86936745  1
  O  O365  1  0.36189300  0.62653423  0.36798849  1
  O  O366  1  0.37685083  0.62017699  0.86652043  1
  O  O367  1  0.86397885  0.11905055  0.37784610  1
  O  O368  1  0.85888909  0.12312076  0.88311158  1
  O  O369  1  0.86834132  0.61861968  0.36799237  1
  O  O370  1  0.87085099  0.61604482  0.86704136  1
  O  O371  1  0.13091764  0.38784966  0.12554634  1
  O  O372  1  0.13788292  0.37481878  0.61631232  1
  O  O373  1  0.11927148  0.88668444  0.13551957  1
  O  O374  1  0.12366787  0.88279177  0.63163796  1
  O  O375  1  0.63092115  0.38159184  0.12921949  1
  O  O376  1  0.63244637  0.38438984  0.62525766  1
  O  O377  1  0.63484139  0.87498146  0.13071420  1
  O  O378  1  0.63317304  0.88520330  0.61783933  1
  O  O379  1  0.11301534  0.20133015  0.26266014  1
  O  O380  1  0.11168519  0.25352071  0.75118818  1
  O  O381  1  0.11701433  0.76177332  0.24396126  1
  O  O382  1  0.12417026  0.75911405  0.75129708  1
  O  O383  1  0.62426959  0.26496759  0.24937327  1
  O  O384  1  0.61574748  0.25206914  0.75772278  1
  O  O385  1  0.62420162  0.76258911  0.24565026  1
  O  O386  1  0.61401867  0.74340970  0.74764673  1
  O  O387  1  0.38077002  0.23533339  0.24678594  1
  O  O388  1  0.38206697  0.24263353  0.76318161  1
  O  O389  1  0.37820199  0.74295514  0.24286086  1
  O  O390  1  0.37799282  0.74584535  0.74230848  1
  O  O391  1  0.86765592  0.25078154  0.23838395  1
  O  O392  1  0.88368977  0.25271559  0.73865000  1
  O  O393  1  0.88252985  0.73960225  0.24639553  1
  O  O394  1  0.87189481  0.74553184  0.73832954  1
  O  O395  1  0.37709327  0.48906637  0.49876326  1
  O  O396  1  0.38069582  0.49164476  0.99862966  1
  O  O397  1  0.38868555  0.99952654  0.50721001  1
  O  O398  1  0.38141679  0.99363933  0.99515014  1
  O  O399  1  0.88566866  0.50934556  0.48818325  1
  O  O400  1  0.87452921  0.49218827  0.99303001  1
  O  O401  1  0.88081233  0.99905261  0.48814708  1
  O  O402  1  0.88246911  0.99304708  0.99861375  1
  O  O403  1  0.12039086  0.00269137  0.00670375  1
  O  O404  1  0.11856768  0.00411067  0.50803452  1
  O  O405  1  0.12391822  0.50819598  0.00871299  1
  O  O406  1  0.11421817  0.51358728  0.49586771  1
  O  O407  1  0.61829989  0.00765901  -0.00765210  1
  O  O408  1  0.61907194  0.00820763  0.50852252  1
  O  O409  1  0.62032689  0.50600347  0.00617668  1
  O  O410  1  0.62807036  0.51039295  0.51209704  1
  O  O411  1  0.36934542  0.37364101  0.12134759  1
  O  O412  1  0.37320437  0.37642711  0.60912900  1
  O  O413  1  0.38079669  0.86377061  0.11948373  1
  O  O414  1  0.37304143  0.86518293  0.62151245  1
  O  O415  1  0.86798458  0.37149456  0.12177118  1
  O  O416  1  0.86345794  0.36650944  0.62770219  1
  O  O417  1  0.86467565  0.87512166  0.11377310  1
  O  O418  1  0.86820128  0.86687654  0.62016837  1
  O  O419  1  0.13829345  0.11266129  0.39325872  1
  O  O420  1  0.13391442  0.11717235  0.88924729  1
  O  O421  1  0.13726793  0.62609916  0.38028897  1
  O  O422  1  0.12484662  0.62784532  0.89029900  1
  O  O423  1  0.63542230  0.12586523  0.38516226  1
  O  O424  1  0.63202942  0.13131868  0.88386813  1
  O  O425  1  0.63167269  0.61967797  0.38235326  1
  O  O426  1  0.62473407  0.61669172  0.88667853  1
