# generated using pymatgen
data_V85Zn86O256
_symmetry_space_group_name_H-M   'P 1'
_cell_length_a   16.95119030
_cell_length_b   16.93326872
_cell_length_c   16.94724425
_cell_angle_alpha   89.95835828
_cell_angle_beta   90.01584007
_cell_angle_gamma   90.07355609
_symmetry_Int_Tables_number   1
_chemical_formula_structural   V85Zn86O256
_chemical_formula_sum   'V85 Zn86 O256'
_cell_volume   4864.51558916
_cell_formula_units_Z   1
loop_
 _symmetry_equiv_pos_site_id
 _symmetry_equiv_pos_as_xyz
  1  'x, y, z'
loop_
 _atom_site_type_symbol
 _atom_site_label
 _atom_site_symmetry_multiplicity
 _atom_site_fract_x
 _atom_site_fract_y
 _atom_site_fract_z
 _atom_site_occupancy
  V  V0  1  0.12451691  0.24897691  0.87547980  1
  V  V1  1  0.50045055  0.87346315  0.87490343  1
  V  V2  1  0.37671311  0.25391735  0.62780369  1
  V  V3  1  0.74905150  0.75021144  0.50131835  1
  V  V4  1  0.37815998  0.12623655  0.74989025  1
  V  V5  1  0.74594874  0.00002277  0.24027437  1
  V  V6  1  0.51251138  0.25968380  0.75776117  1
  V  V7  1  0.00308099  0.87592628  0.37128323  1
  V  V8  1  -0.00001797  0.12325202  0.62795455  1
  V  V9  1  0.74939237  0.50274123  0.24736877  1
  V  V10  1  0.48584295  0.24383159  0.24340757  1
  V  V11  1  0.74728641  0.86531769  0.12131473  1
  V  V12  1  0.13001504  0.12770614  0.49867649  1
  V  V13  1  0.51069336  0.12815605  0.62320377  1
  V  V14  1  0.74597346  0.24554493  0.50099372  1
  V  V15  1  0.87422429  0.25033228  0.62746252  1
  V  V16  1  0.49370225  0.50574591  -0.00023342  1
  V  V17  1  0.25082385  0.25330628  0.50181807  1
  V  V18  1  0.37775391  0.87447094  0.49759390  1
  V  V19  1  0.50634134  0.00569788  0.49668942  1
  V  V20  1  0.75207292  0.00019212  0.74883162  1
  V  V21  1  0.89098446  0.62302514  0.74717094  1
  V  V22  1  0.25108009  0.38415713  0.62935783  1
  V  V23  1  0.11961217  0.63300400  0.50400030  1
  V  V24  1  0.74216959  0.38039692  0.62627914  1
  V  V25  1  0.49316655  0.73827544  0.24685032  1
  V  V26  1  0.87685330  0.87266009  0.50080340  1
  V  V27  1  0.49686138  0.50165893  0.50037867  1
  V  V28  1  0.62449030  0.87045376  0.74983761  1
  V  V29  1  0.62291254  0.24399602  0.37659830  1
  V  V30  1  0.25908472  0.63186859  0.36681909  1
  V  V31  1  0.37183509  0.37519531  -0.00339399  1
  V  V32  1  0.49663148  0.37466423  0.37422610  1
  V  V33  1  0.73998096  0.13371880  0.88495112  1
  V  V34  1  0.87868463  0.38591936  0.00360412  1
  V  V35  1  0.63033142  0.74674942  0.88020266  1
  V  V36  1  0.87277467  0.49912198  0.37565392  1
  V  V37  1  0.62432172  0.75242641  0.37159389  1
  V  V38  1  0.87522619  -0.00022414  0.37328024  1
  V  V39  1  0.49377770  0.63363483  0.62765214  1
  V  V40  1  0.00002411  0.50334696  0.50674481  1
  V  V41  1  0.86746484  0.24552269  0.11520557  1
  V  V42  1  0.62417143  0.37241501  0.24884531  1
  V  V43  1  0.63013733  0.62553600  0.00284852  1
  V  V44  1  0.36128029  0.62393122  0.74679977  1
  V  V45  1  0.12640884  0.37922342  0.75330827  1
  V  V46  1  0.25006944  0.75195147  0.49990328  1
  V  V47  1  0.11312609  0.49432661  0.12169662  1
  V  V48  1  0.50192283  0.12747358  0.11927234  1
  V  V49  1  0.25300422  -0.00095247  0.75028700  1
  V  V50  1  0.12179431  0.87699051  0.25355688  1
  V  V51  1  0.87501079  0.12585239  0.24964554  1
  V  V52  1  0.12973945  0.00065094  0.62593833  1
  V  V53  1  0.74775766  0.87090228  0.62408214  1
  V  V54  1  0.24587141  0.62863530  0.89529492  1
  V  V55  1  0.24944839  0.37367455  0.13416445  1
  V  V56  1  0.62073594  0.87710769  0.24172111  1
  V  V57  1  0.88507213  0.74334377  0.13241498  1
  V  V58  1  0.37675296  -0.00194017  0.87777554  1
  V  V59  1  0.25105005  0.12345083  0.87667470  1
  V  V60  1  0.25875808  0.00580616  0.24960516  1
  V  V61  1  0.87707820  -0.00155634  0.87074127  1
  V  V62  1  0.87430968  0.37512142  0.50217802  1
  V  V63  1  0.62443102  0.62689340  0.50227316  1
  V  V64  1  0.25161638  0.86945161  0.12181021  1
  V  V65  1  0.12532743  0.00040240  0.12433433  1
  V  V66  1  0.88880391  0.50352013  0.87644508  1
  V  V67  1  0.51576013  0.00296776  0.00403374  1
  V  V68  1  0.25846190  0.87302880  0.62646422  1
  V  V69  1  0.12426981  0.50656022  0.63178061  1
  V  V70  1  0.71357696  0.48249285  0.78629983  1
  V  V71  1  0.61369927  0.50502623  0.12809067  1
  V  V72  1  0.10782437  0.63256390  0.00650098  1
  V  V73  1  0.06670200  0.69956426  0.31651108  1
  V  V74  1  0.25420521  0.24954034  0.00427065  1
  V  V75  1  0.37373305  0.86912011  -0.00026381  1
  V  V76  1  0.00290584  0.00067357  0.49742184  1
  V  V77  1  0.87142127  0.86727257  -0.00022049  1
  V  V78  1  0.00720061  0.86306482  0.87386590  1
  V  V79  1  0.12577724  0.26035104  0.37192496  1
  V  V80  1  0.00145180  0.25481269  0.24803906  1
  V  V81  1  0.37681322  0.73763107  0.12486067  1
  V  V82  1  0.00072031  -0.00085038  -0.00078067  1
  V  V83  1  0.12651176  0.86194721  0.75366845  1
  V  V84  1  0.74628589  0.12136452  0.38027533  1
  Zn  Zn85  1  0.37947240  0.00819542  0.37197512  1
  Zn  Zn86  1  0.36814947  0.49694158  0.86884522  1
  Zn  Zn87  1  0.49571481  0.87891863  0.36972867  1
  Zn  Zn88  1  0.53702891  0.37260419  0.87788960  1
  Zn  Zn89  1  0.25578444  0.13282621  0.36490120  1
  Zn  Zn90  1  0.62630607  0.00421629  0.62101159  1
  Zn  Zn91  1  0.75628759  0.62893881  0.87571513  1
  Zn  Zn92  1  0.37436792  0.37993519  0.50187720  1
  Zn  Zn93  1  0.49429850  0.74997887  0.74780529  1
  Zn  Zn94  1  0.88731938  0.73952441  0.62923216  1
  Zn  Zn95  1  0.12615603  0.12374924  -0.00035249  1
  Zn  Zn96  1  0.00044405  0.25061681  0.75154211  1
  Zn  Zn97  1  0.62475328  0.49899369  0.62307701  1
  Zn  Zn98  1  0.37796097  0.50795156  0.36690545  1
  Zn  Zn99  1  0.74707396  0.36878140  0.12261052  1
  Zn  Zn100  1  0.75131371  0.62624325  0.37356942  1
  Zn  Zn101  1  0.88681959  0.62457371  0.24823077  1
  Zn  Zn102  1  -0.00085281  0.12444953  0.12477547  1
  Zn  Zn103  1  0.87542659  0.12447104  0.75187784  1
  Zn  Zn104  1  0.00500305  0.37667653  0.88195349  1
  Zn  Zn105  1  0.25109761  0.50415672  0.24805847  1
  Zn  Zn106  1  0.00030976  0.37265583  0.37708025  1
  Zn  Zn107  1  0.18517659  0.18815930  0.18552797  1
  Zn  Zn108  1  0.18969541  0.19036945  0.68943686  1
  Zn  Zn109  1  0.18907074  0.68413991  0.17412121  1
  Zn  Zn110  1  0.19037707  0.68943269  0.68368323  1
  Zn  Zn111  1  0.68282351  0.18349323  0.18567067  1
  Zn  Zn112  1  0.69024172  0.18859224  0.69603473  1
  Zn  Zn113  1  0.68728601  0.68661765  0.18570238  1
  Zn  Zn114  1  0.69464358  0.67659196  0.69515253  1
  Zn  Zn115  1  0.31350467  0.31500360  0.31406350  1
  Zn  Zn116  1  0.31066277  0.31330812  0.81251216  1
  Zn  Zn117  1  0.31115727  0.81507237  0.31292475  1
  Zn  Zn118  1  0.31173126  0.80308589  0.81332732  1
  Zn  Zn119  1  0.81182474  0.31187720  0.31004369  1
  Zn  Zn120  1  0.81407437  0.31664258  0.81459324  1
  Zn  Zn121  1  0.81201105  0.81196758  0.30999728  1
  Zn  Zn122  1  0.81434520  0.80893360  0.81255042  1
  Zn  Zn123  1  0.18947766  0.44314474  0.44112221  1
  Zn  Zn124  1  0.18876984  0.44471048  0.94037688  1
  Zn  Zn125  1  0.18926486  0.93808144  0.43434531  1
  Zn  Zn126  1  0.18936984  0.93237599  0.93785238  1
  Zn  Zn127  1  0.68607920  0.43609918  0.43807078  1
  Zn  Zn128  1  0.68030202  0.41338341  0.95572810  1
  Zn  Zn129  1  0.68447828  0.93655435  0.43372617  1
  Zn  Zn130  1  0.69171195  0.93625300  0.93373757  1
  Zn  Zn131  1  0.31973667  0.06285670  0.06490196  1
  Zn  Zn132  1  0.31938941  0.06413710  0.55980716  1
  Zn  Zn133  1  0.30806030  0.55709007  0.06379283  1
  Zn  Zn134  1  0.31203122  0.56599508  0.56032533  1
  Zn  Zn135  1  0.81151750  0.05953192  0.05979843  1
  Zn  Zn136  1  0.81329239  0.05927893  0.56308982  1
  Zn  Zn137  1  0.80908766  0.56160357  0.06389064  1
  Zn  Zn138  1  0.81301185  0.56506520  0.56567646  1
  Zn  Zn139  1  0.42960837  0.43757291  0.18726999  1
  Zn  Zn140  1  0.44155485  0.44219236  0.69119672  1
  Zn  Zn141  1  0.43979602  0.93716231  0.18076024  1
  Zn  Zn142  1  0.44013148  0.93958446  0.68532429  1
  Zn  Zn143  1  0.93529355  0.43241006  0.18903922  1
  Zn  Zn144  1  0.93908890  0.43776952  0.69119027  1
  Zn  Zn145  1  0.93577988  0.93521373  0.18590433  1
  Zn  Zn146  1  0.94707153  0.91309778  0.67902554  1
  Zn  Zn147  1  0.06593851  0.06791628  0.31166918  1
  Zn  Zn148  1  0.06456187  0.05753077  0.81155890  1
  Zn  Zn149  1  0.06569099  0.53276752  0.30888804  1
  Zn  Zn150  1  0.06747296  0.56715259  0.81901307  1
  Zn  Zn151  1  0.56209170  0.06361032  0.30762615  1
  Zn  Zn152  1  0.56402128  0.06211733  0.81149815  1
  Zn  Zn153  1  0.56310167  0.56309183  0.31514475  1
  Zn  Zn154  1  0.55285699  0.56225209  0.81720622  1
  Zn  Zn155  1  0.43529744  0.18643498  0.43824878  1
  Zn  Zn156  1  0.43874259  0.18752699  0.93924273  1
  Zn  Zn157  1  0.43814710  0.69406589  0.43852865  1
  Zn  Zn158  1  0.43755233  0.68558908  0.93274282  1
  Zn  Zn159  1  0.93783457  0.18731381  0.43853953  1
  Zn  Zn160  1  0.93706615  0.18389622  0.93685946  1
  Zn  Zn161  1  0.93075736  0.68259184  0.44251775  1
  Zn  Zn162  1  0.93625743  0.68842970  0.94019506  1
  Zn  Zn163  1  0.06274483  0.31179080  0.06326496  1
  Zn  Zn164  1  0.06218319  0.31470514  0.56423145  1
  Zn  Zn165  1  0.06084519  0.81321600  0.06368352  1
  Zn  Zn166  1  0.06445651  0.81315143  0.56587822  1
  Zn  Zn167  1  0.55959487  0.31365510  0.06012340  1
  Zn  Zn168  1  0.56259847  0.31135372  0.56125946  1
  Zn  Zn169  1  0.55926799  0.80963549  0.06238696  1
  Zn  Zn170  1  0.56110833  0.81410244  0.56138988  1
  O  O171  1  0.12289005  0.11048662  0.12209812  1
  O  O172  1  0.11928761  0.12270606  0.61998463  1
  O  O173  1  0.12830169  0.61082356  0.11480785  1
  O  O174  1  0.12883602  0.61714422  0.61664033  1
  O  O175  1  0.60582725  0.12037018  0.13408011  1
  O  O176  1  0.61415690  0.12765510  0.62996769  1
  O  O177  1  0.62615080  0.61635932  0.11843660  1
  O  O178  1  0.61999856  0.62983681  0.61087662  1
  O  O179  1  0.38822317  0.37273388  0.38054362  1
  O  O180  1  0.36483927  0.37845670  0.88767222  1
  O  O181  1  0.37460453  0.88314903  0.38384638  1
  O  O182  1  0.37968833  0.87556976  0.88055603  1
  O  O183  1  0.87272088  0.38442129  0.38269482  1
  O  O184  1  0.87975397  0.38259759  0.88577186  1
  O  O185  1  0.88099887  0.87924009  0.37947233  1
  O  O186  1  0.87980562  0.88081976  0.88104856  1
  O  O187  1  0.24762995  0.00137360  0.35704849  1
  O  O188  1  0.25694012  0.00362099  0.87054494  1
  O  O189  1  0.24620391  0.52079303  0.37740073  1
  O  O190  1  0.24995800  0.51975279  0.87740044  1
  O  O191  1  0.75397361  0.00491340  0.36772894  1
  O  O192  1  0.75951686  0.00212801  0.86596153  1
  O  O193  1  0.75647877  0.50040658  0.36975583  1
  O  O194  1  0.77003009  0.50287830  0.87609758  1
  O  O195  1  0.24266137  0.48521334  0.12496459  1
  O  O196  1  0.24043498  0.49080028  0.61656256  1
  O  O197  1  0.24504262  0.99147085  0.13190390  1
  O  O198  1  0.24958812  0.99541045  0.62967053  1
  O  O199  1  0.73904573  0.49490135  0.13337576  1
  O  O200  1  0.74442087  0.48771037  0.61215310  1
  O  O201  1  0.75642496  0.98969350  0.13634504  1
  O  O202  1  0.74369986  0.99658525  0.63226516  1
  O  O203  1  -0.00551425  0.35933757  0.25696286  1
  O  O204  1  0.01433446  0.37118707  0.75191904  1
  O  O205  1  0.01281821  0.88099004  0.25381571  1
  O  O206  1  0.01760925  0.89025011  0.76543725  1
  O  O207  1  0.50504537  0.36475448  0.25531397  1
  O  O208  1  0.50055235  0.36375762  0.75421794  1
  O  O209  1  0.50863673  0.87075871  0.24863554  1
  O  O210  1  0.50845652  0.87320287  0.75315860  1
  O  O211  1  0.50074323  0.13984969  0.24635493  1
  O  O212  1  0.49490358  0.13265485  0.74362619  1
  O  O213  1  0.50215389  0.63976459  0.25418269  1
  O  O214  1  0.49357188  0.62820812  0.74079911  1
  O  O215  1  0.99142192  0.13238500  0.24963684  1
  O  O216  1  0.99982764  0.12349413  0.73741392  1
  O  O217  1  1.01033765  0.63165959  0.26550495  1
  O  O218  1  0.99033514  0.62705551  0.75407601  1
  O  O219  1  0.36194928  0.25668586  -0.00524872  1
  O  O220  1  0.37240956  0.25446993  0.51497607  1
  O  O221  1  0.38796349  0.76223928  0.00783351  1
  O  O222  1  0.36765729  0.76525955  0.49745816  1
  O  O223  1  0.87933012  0.24869741  0.01290632  1
  O  O224  1  0.86861031  0.25217014  0.51019881  1
  O  O225  1  0.87626591  0.76136098  0.01002468  1
  O  O226  1  0.86690997  0.75485158  0.50461082  1
  O  O227  1  0.12866311  0.24444903  0.49569718  1
  O  O228  1  0.13360076  0.24673209  0.99158881  1
  O  O229  1  0.13022327  0.74135053  0.50530633  1
  O  O230  1  0.12296481  0.73297770  1.01476598  1
  O  O231  1  0.62985287  0.25430937  0.48477199  1
  O  O232  1  0.60555101  0.32588154  0.96046445  1
  O  O233  1  0.62792031  0.74708671  0.49046785  1
  O  O234  1  0.61666136  0.73867119  0.99302950  1
  O  O235  1  0.50397583  0.24553564  0.13512224  1
  O  O236  1  0.49442460  0.24742390  0.63303514  1
  O  O237  1  0.49219112  0.75251624  0.13861260  1
  O  O238  1  0.50180162  0.73748501  0.62315948  1
  O  O239  1  0.99463864  0.24523346  0.13361688  1
  O  O240  1  0.99267655  0.24073690  0.62444607  1
  O  O241  1  0.98333653  0.75674948  0.12828797  1
  O  O242  1  0.97715869  0.80633455  0.63165420  1
  O  O243  1  0.00797368  0.24938693  0.37045254  1
  O  O244  1  0.01334767  0.24676018  0.87345549  1
  O  O245  1  0.00069403  0.75315169  0.37513138  1
  O  O246  1  -0.00498826  0.76462562  0.87720607  1
  O  O247  1  0.50580113  0.25414487  0.36746222  1
  O  O248  1  0.49283913  0.25033651  0.85899341  1
  O  O249  1  0.50559246  0.75514119  0.36405123  1
  O  O250  1  0.51055726  0.75766939  0.87149394  1
  O  O251  1  0.23919491  0.13292516  0.50777762  1
  O  O252  1  0.25130576  0.13087998  0.99645091  1
  O  O253  1  0.24128194  0.63447377  0.49242424  1
  O  O254  1  0.24845515  0.63092373  0.99737715  1
  O  O255  1  0.75374116  0.12740270  0.48798299  1
  O  O256  1  0.75250008  0.11940604  0.98458316  1
  O  O257  1  0.74176013  0.63214137  0.49826473  1
  O  O258  1  0.73432377  0.61932779  0.99621526  1
  O  O259  1  0.25358934  0.36768085  0.00647539  1
  O  O260  1  0.25184781  0.37068295  0.50958679  1
  O  O261  1  0.26062523  0.87773738  0.00948661  1
  O  O262  1  0.25526453  0.87188837  0.50511216  1
  O  O263  1  0.77293077  0.37161883  0.00597919  1
  O  O264  1  0.75485264  0.36569019  0.50592776  1
  O  O265  1  0.75934611  0.88174989  0.00948294  1
  O  O266  1  0.75101886  0.86879938  0.50480811  1
  O  O267  1  0.13608910  0.50037528  0.23151903  1
  O  O268  1  0.11967014  0.49610196  0.73934961  1
  O  O269  1  0.13146696  0.99446161  0.24212412  1
  O  O270  1  0.13722952  0.99608338  0.74356029  1
  O  O271  1  0.62859836  0.49380584  0.24756138  1
  O  O272  1  0.62695056  0.51899795  0.73684442  1
  O  O273  1  0.63416299  0.98837216  0.25518522  1
  O  O274  1  0.63305453  0.98616519  0.74973045  1
  O  O275  1  0.36046747  -0.00917290  0.24760648  1
  O  O276  1  0.37274167  0.00507385  0.75690696  1
  O  O277  1  0.36385038  0.49365755  0.25612910  1
  O  O278  1  0.38291008  0.51736667  0.75336583  1
  O  O279  1  0.86770456  0.00401618  0.25497464  1
  O  O280  1  0.86889016  -0.00601709  0.75667817  1
  O  O281  1  0.86795198  0.50112146  0.25645812  1
  O  O282  1  0.88313612  0.51028609  0.76044976  1
  O  O283  1  0.12420387  0.36423799  0.38283233  1
  O  O284  1  0.12713250  0.36922481  0.86949251  1
  O  O285  1  0.11901172  0.87710079  0.36554932  1
  O  O286  1  0.12098121  0.87536738  0.86686555  1
  O  O287  1  0.61510657  0.36998937  0.36696704  1
  O  O288  1  0.64831378  0.42755443  0.84572678  1
  O  O289  1  0.62423682  0.86357029  0.36426883  1
  O  O290  1  0.62104037  0.86883102  0.86784963  1
  O  O291  1  0.39813817  0.11573922  0.12677460  1
  O  O292  1  0.38375057  0.13486712  0.63097285  1
  O  O293  1  0.36631736  0.63879626  0.12151537  1
  O  O294  1  0.38073666  0.62135131  0.63409504  1
  O  O295  1  0.87505925  0.12883216  0.13140359  1
  O  O296  1  0.88329993  0.13079620  0.62510056  1
  O  O297  1  0.87039428  0.63852540  0.12689592  1
  O  O298  1  0.87744148  0.62214498  0.64001500  1
  O  O299  1  0.24019060  0.25973807  0.11506151  1
  O  O300  1  0.25722262  0.26062280  0.62217776  1
  O  O301  1  0.26005201  0.76375322  0.13291025  1
  O  O302  1  0.24926506  0.75953396  0.61026912  1
  O  O303  1  0.76103710  0.25060510  0.13600685  1
  O  O304  1  0.75677664  0.25385843  0.62323482  1
  O  O305  1  0.75789433  0.76160456  0.12954361  1
  O  O306  1  0.75158484  0.75709415  0.62102919  1
  O  O307  1  0.24326090  0.25196640  0.38253566  1
  O  O308  1  0.24105513  0.24356655  0.88059432  1
  O  O309  1  0.25034439  0.74330339  0.38563717  1
  O  O310  1  0.24656650  0.72667331  0.86653659  1
  O  O311  1  0.74338751  0.24098937  0.37773296  1
  O  O312  1  0.75886963  0.23163985  0.86622434  1
  O  O313  1  0.74134895  0.74866160  0.37932206  1
  O  O314  1  0.73531534  0.75000886  0.87380028  1
  O  O315  1  0.00179664  0.10981156  0.00142757  1
  O  O316  1  0.01043151  0.12195909  0.50851028  1
  O  O317  1  0.00879420  0.62566794  0.00173848  1
  O  O318  1  0.00854956  0.61772828  0.49786833  1
  O  O319  1  0.50132724  0.11354222  0.00296552  1
  O  O320  1  0.49739233  0.11846693  0.51093135  1
  O  O321  1  0.50585274  0.61153409  -0.00490889  1
  O  O322  1  0.50456427  0.62138279  0.50339932  1
  O  O323  1  0.50106636  0.38405241  0.49308914  1
  O  O324  1  0.47618479  0.38686435  1.01529860  1
  O  O325  1  0.49212325  0.88127559  0.49807421  1
  O  O326  1  0.49552748  0.88531325  0.99571398  1
  O  O327  1  0.99149628  0.38223161  0.50025909  1
  O  O328  1  0.98352711  0.36528137  0.99907561  1
  O  O329  1  0.99950945  0.88424838  0.48818793  1
  O  O330  1  0.99522765  0.88307170  0.99419052  1
  O  O331  1  0.49986321  0.49191676  0.38066538  1
  O  O332  1  0.49651985  0.48763680  0.88727245  1
  O  O333  1  0.49978575  0.99965141  0.38127898  1
  O  O334  1  0.49589764  0.99490550  0.88252474  1
  O  O335  1  0.99293917  0.49405956  0.38589782  1
  O  O336  1  0.99346500  0.49725934  0.87640300  1
  O  O337  1  0.99602482  0.99916867  0.37879648  1
  O  O338  1  0.99448528  0.99446473  0.88261754  1
  O  O339  1  0.00784363  -0.00249527  0.11732918  1
  O  O340  1  0.00734098  0.00546589  0.61721385  1
  O  O341  1  0.01391579  0.49209613  0.13235534  1
  O  O342  1  0.00889362  0.49418418  0.61373423  1
  O  O343  1  0.50264971  0.00256217  0.10899033  1
  O  O344  1  0.50330304  0.01156532  0.61914521  1
  O  O345  1  0.50876998  0.49655609  0.12358287  1
  O  O346  1  0.50338766  0.50967570  0.61494799  1
  O  O347  1  0.24738150  0.36640474  0.23572110  1
  O  O348  1  0.23797969  0.37286537  0.74149778  1
  O  O349  1  0.23903296  0.88252209  0.24435466  1
  O  O350  1  0.24896522  0.87768690  0.74369403  1
  O  O351  1  0.74054118  0.38517736  0.25220435  1
  O  O352  1  0.75977229  0.39520801  0.74145538  1
  O  O353  1  0.74240067  0.88074553  0.24294716  1
  O  O354  1  0.74574314  0.88089371  0.74330753  1
  O  O355  1  0.24590161  0.10925946  0.24513714  1
  O  O356  1  0.25881599  0.12028901  0.75439844  1
  O  O357  1  0.24443148  0.63381405  0.26567112  1
  O  O358  1  0.26015115  0.62149511  0.74344463  1
  O  O359  1  0.75419567  0.11599993  0.25834797  1
  O  O360  1  0.75425009  0.11072898  0.75327260  1
  O  O361  1  0.74765107  0.61149481  0.25274231  1
  O  O362  1  0.75218540  0.59917893  0.75909634  1
  O  O363  1  0.36574369  0.12040266  0.38338154  1
  O  O364  1  0.37041985  0.11914127  0.86952854  1
  O  O365  1  0.36189348  0.62925945  0.37916937  1
  O  O366  1  0.36418420  0.62295654  0.86710600  1
  O  O367  1  0.86726417  0.12045039  0.36989527  1
  O  O368  1  0.87356560  0.10958515  0.87192345  1
  O  O369  1  0.87285774  0.61182272  0.37115135  1
  O  O370  1  0.87651998  0.61941331  0.87041479  1
  O  O371  1  0.13504732  0.38390512  0.11636444  1
  O  O372  1  0.13188623  0.38270523  0.63158095  1
  O  O373  1  0.13155074  0.88268087  0.13004560  1
  O  O374  1  0.14076283  0.88382389  0.63002209  1
  O  O375  1  0.62474914  0.37996992  0.13899802  1
  O  O376  1  0.63872402  0.37235314  0.62329711  1
  O  O377  1  0.63199854  0.86868175  0.13291133  1
  O  O378  1  0.63317141  0.87542400  0.63122584  1
  O  O379  1  0.11547689  0.24159220  0.26098621  1
  O  O380  1  0.12557353  0.25786953  0.75875018  1
  O  O381  1  0.12234073  0.75520995  0.24862960  1
  O  O382  1  0.12565028  0.76314058  0.74081356  1
  O  O383  1  0.62114833  0.25785504  0.26039072  1
  O  O384  1  0.61125734  0.25081864  0.75058298  1
  O  O385  1  0.61644072  0.75459115  0.25408365  1
  O  O386  1  0.62646199  0.75939869  0.75416537  1
  O  O387  1  0.38827969  0.25292567  0.25080423  1
  O  O388  1  0.37823093  0.24701622  0.74014267  1
  O  O389  1  0.38738805  0.75728859  0.24389871  1
  O  O390  1  0.37771920  0.73197898  0.75118182  1
  O  O391  1  0.88105834  0.24311289  0.24528894  1
  O  O392  1  0.87817898  0.24929160  0.73829899  1
  O  O393  1  0.87299252  0.74606791  0.23832140  1
  O  O394  1  0.86266414  0.72692241  0.75020352  1
  O  O395  1  0.38637778  0.50157181  0.49439513  1
  O  O396  1  0.37840711  0.49532639  0.99765112  1
  O  O397  1  0.38649985  0.99045725  0.50159740  1
  O  O398  1  0.38166813  0.98839163  0.99356292  1
  O  O399  1  0.88186172  0.49869566  0.49454822  1
  O  O400  1  0.87720083  0.49183564  0.99823614  1
  O  O401  1  0.88140924  0.99454781  0.49173507  1
  O  O402  1  0.88289871  0.98867404  0.99417482  1
  O  O403  1  0.11879281  -0.00274013  0.00747178  1
  O  O404  1  0.12457737  0.00944253  0.50435438  1
  O  O405  1  0.12600679  0.50829135  0.01402919  1
  O  O406  1  0.11752653  0.51062343  0.50701071  1
  O  O407  1  0.61319984  -0.00564050  -0.00580679  1
  O  O408  1  0.61093195  -0.00658167  0.50142025  1
  O  O409  1  0.61533551  0.50348832  0.01159021  1
  O  O410  1  0.61421107  0.51028488  0.49656187  1
  O  O411  1  0.35572193  0.37554247  0.11603180  1
  O  O412  1  0.36804100  0.37248622  0.62763640  1
  O  O413  1  0.36838285  0.86983981  0.11687444  1
  O  O414  1  0.36448669  0.88044526  0.61912959  1
  O  O415  1  0.87415712  0.36639294  0.11724292  1
  O  O416  1  0.86876142  0.36783665  0.62103448  1
  O  O417  1  0.86797522  0.86714417  0.11930102  1
  O  O418  1  0.85295075  0.89168265  0.61379540  1
  O  O419  1  0.13085302  0.13466751  0.38506068  1
  O  O420  1  0.13306383  0.13018473  0.87505152  1
  O  O421  1  0.12411695  0.63464779  0.37770001  1
  O  O422  1  0.13280322  0.62094643  0.89564415  1
  O  O423  1  0.63400634  0.13268325  0.36923965  1
  O  O424  1  0.64094503  0.12119649  0.87025958  1
  O  O425  1  0.62429491  0.63655890  0.38480721  1
  O  O426  1  0.62354807  0.63182754  0.88287301  1
