# generated using pymatgen
data_V85Zn86O256
_symmetry_space_group_name_H-M   'P 1'
_cell_length_a   16.94355396
_cell_length_b   16.94031042
_cell_length_c   16.95091613
_cell_angle_alpha   89.88526802
_cell_angle_beta   90.03771058
_cell_angle_gamma   89.99579083
_symmetry_Int_Tables_number   1
_chemical_formula_structural   V85Zn86O256
_chemical_formula_sum   'V85 Zn86 O256'
_cell_volume   4865.39476223
_cell_formula_units_Z   1
loop_
 _symmetry_equiv_pos_site_id
 _symmetry_equiv_pos_as_xyz
  1  'x, y, z'
loop_
 _atom_site_type_symbol
 _atom_site_label
 _atom_site_symmetry_multiplicity
 _atom_site_fract_x
 _atom_site_fract_y
 _atom_site_fract_z
 _atom_site_occupancy
  V  V0  1  0.37618234  0.88126803  0.00001950  1
  V  V1  1  -0.00499237  0.12321942  0.12261261  1
  V  V2  1  0.00128246  0.00247609  0.49771750  1
  V  V3  1  0.37306149  0.74898272  0.62199703  1
  V  V4  1  0.87214566  0.87696572  0.49892887  1
  V  V5  1  0.00660395  0.87209412  0.37695344  1
  V  V6  1  0.25132590  0.87414647  0.62442041  1
  V  V7  1  0.62386154  0.75005227  0.35769219  1
  V  V8  1  -0.00029994  0.49282471  0.00162831  1
  V  V9  1  0.00098429  0.35921522  0.88535163  1
  V  V10  1  0.73125409  -0.00058783  0.24508989  1
  V  V11  1  0.87564840  0.12561710  0.74865441  1
  V  V12  1  -0.00055910  0.62323324  0.62712401  1
  V  V13  1  0.00788955  0.61791781  0.12822463  1
  V  V14  1  0.48266322  0.02196019  0.46835468  1
  V  V15  1  -0.00041824  0.74487992  0.25435031  1
  V  V16  1  0.86950668  0.74072923  0.63020102  1
  V  V17  1  0.12421059  0.74650992  0.87138887  1
  V  V18  1  0.62481273  0.12796899  0.50302319  1
  V  V19  1  0.50980616  0.36571585  0.88704208  1
  V  V20  1  0.25612861  0.01895359  0.25674822  1
  V  V21  1  0.74776113  0.87649560  0.62191952  1
  V  V22  1  -0.00460798  0.37711901  0.37182128  1
  V  V23  1  0.01339545  0.24444589  0.75103839  1
  V  V24  1  0.37116081  0.37026584  0.00244484  1
  V  V25  1  0.25208238  0.26845625  0.49797767  1
  V  V26  1  0.75668670  0.50000884  0.24346923  1
  V  V27  1  0.51505445  -0.00079969  0.00221995  1
  V  V28  1  0.75758497  0.37835922  0.63008252  1
  V  V29  1  0.24354405  0.50121413  0.24549070  1
  V  V30  1  0.49645762  0.49220092  0.50285050  1
  V  V31  1  0.38170097  0.74965088  0.12725027  1
  V  V32  1  0.37282976  0.12793554  0.75113838  1
  V  V33  1  0.38222331  0.87767392  0.49652258  1
  V  V34  1  0.73746524  0.13018440  0.87758776  1
  V  V35  1  0.74569907  0.12538485  0.37352738  1
  V  V36  1  0.24684293  0.13914408  0.88317678  1
  V  V37  1  0.24701954  0.75078331  0.00208296  1
  V  V38  1  0.86931564  0.12524959  0.24739362  1
  V  V39  1  -0.00330742  0.74431744  0.75272960  1
  V  V40  1  0.24835131  0.87882607  0.12776931  1
  V  V41  1  0.87363629  -0.00373258  0.87250060  1
  V  V42  1  0.37020209  0.26681902  0.62276666  1
  V  V43  1  0.75024922  0.73671765  -0.00072784  1
  V  V44  1  0.62255668  0.25438500  0.37508664  1
  V  V45  1  0.49915281  0.62427943  0.62401975  1
  V  V46  1  0.75373620  0.25226438  0.49951559  1
  V  V47  1  0.24901649  -0.00055078  0.75472813  1
  V  V48  1  0.49898004  0.12641752  0.63066101  1
  V  V49  1  0.76456085  0.61617958  0.37511845  1
  V  V50  1  0.24340628  0.37764416  0.12217119  1
  V  V51  1  0.13806265  0.12327383  0.49552767  1
  V  V52  1  0.37062888  0.49913202  0.37791703  1
  V  V53  1  0.61761614  0.00124906  0.62185271  1
  V  V54  1  0.87577343  0.38476835  0.49686693  1
  V  V55  1  0.49720983  0.75065326  0.75133694  1
  V  V56  1  0.51696572  0.12369119  0.12094060  1
  V  V57  1  0.74930296  -0.00134726  0.74824605  1
  V  V58  1  0.62207437  0.87595635  0.75211846  1
  V  V59  1  0.74635804  0.37712942  0.11522354  1
  V  V60  1  0.87578106  0.87226268  0.00258382  1
  V  V61  1  0.00111634  -0.00114827  -0.00083190  1
  V  V62  1  0.87704288  0.74370190  0.12938985  1
  V  V63  1  0.73888469  0.87757157  0.12765512  1
  V  V64  1  0.49624808  0.24966867  0.24569726  1
  V  V65  1  0.74479477  0.75133315  0.49532790  1
  V  V66  1  0.49993393  0.86835970  0.35491617  1
  V  V67  1  0.63231363  0.37449988  0.75633849  1
  V  V68  1  0.51138333  0.50726315  0.00719720  1
  V  V69  1  0.00173513  0.50357231  0.49428842  1
  V  V70  1  0.62921475  0.49817609  0.62990899  1
  V  V71  1  0.62463187  0.62519449  0.49821924  1
  V  V72  1  0.13017439  0.24507153  0.36731882  1
  V  V73  1  0.37608767  0.49887908  0.87827809  1
  V  V74  1  0.12525956  -0.00097629  0.62457623  1
  V  V75  1  0.87154453  -0.00067009  0.37275804  1
  V  V76  1  0.50395811  0.25280113  0.75262456  1
  V  V77  1  0.12619345  0.87335767  0.25399453  1
  V  V78  1  0.24968189  0.62061668  0.87633553  1
  V  V79  1  0.62588199  0.73744309  0.87661002  1
  V  V80  1  -0.00397487  0.24912215  0.24922427  1
  V  V81  1  0.49349249  0.37555259  0.37461992  1
  V  V82  1  0.38272969  0.62857394  0.24955289  1
  V  V83  1  0.37302563  0.24311198  0.12467257  1
  V  V84  1  0.24312111  0.63636759  0.37388020  1
  Zn  Zn85  1  0.37481210  0.00264115  0.87940550  1
  Zn  Zn86  1  0.11858739  0.63728218  0.49309371  1
  Zn  Zn87  1  0.87647486  0.49825073  0.86335281  1
  Zn  Zn88  1  0.87219534  0.26055371  0.10924933  1
  Zn  Zn89  1  0.12150436  -0.00368642  0.12408989  1
  Zn  Zn90  1  0.13367632  0.37577552  0.75162882  1
  Zn  Zn91  1  0.73450275  0.25115497  -0.00784927  1
  Zn  Zn92  1  0.25145395  0.49028049  0.74259681  1
  Zn  Zn93  1  0.00038924  0.12340942  0.62223158  1
  Zn  Zn94  1  0.24194388  0.75935312  0.49133473  1
  Zn  Zn95  1  0.00075880  0.87186671  0.87403944  1
  Zn  Zn96  1  0.75925075  0.61817781  0.85724266  1
  Zn  Zn97  1  0.12070716  0.37892983  0.24569072  1
  Zn  Zn98  1  0.12532444  0.87018245  0.74942380  1
  Zn  Zn99  1  0.49999241  0.87354547  0.88035401  1
  Zn  Zn100  1  0.62057788  0.39009596  0.24768987  1
  Zn  Zn101  1  0.13263651  0.49257206  0.62297432  1
  Zn  Zn102  1  0.51772315  0.61525768  0.13375399  1
  Zn  Zn103  1  0.11657174  0.13962774  -0.01271470  1
  Zn  Zn104  1  0.37660964  0.62353965  0.75200641  1
  Zn  Zn105  1  0.87947520  0.24920760  0.62416150  1
  Zn  Zn106  1  0.12988648  0.61307014  0.00807546  1
  Zn  Zn107  1  0.17796303  0.19426499  0.15875666  1
  Zn  Zn108  1  0.19188038  0.18661707  0.68142648  1
  Zn  Zn109  1  0.18804856  0.69164522  0.19218603  1
  Zn  Zn110  1  0.19923099  0.65840498  0.67547460  1
  Zn  Zn111  1  0.68463055  0.19659666  0.18847820  1
  Zn  Zn112  1  0.68995406  0.19086540  0.68999527  1
  Zn  Zn113  1  0.69688569  0.67618415  0.18921823  1
  Zn  Zn114  1  0.68105108  0.69119886  0.68326232  1
  Zn  Zn115  1  0.31163179  0.31217422  0.30868716  1
  Zn  Zn116  1  0.31287425  0.31612892  0.81352056  1
  Zn  Zn117  1  0.31829366  0.81756768  0.30832787  1
  Zn  Zn118  1  0.31167209  0.81159280  0.81409924  1
  Zn  Zn119  1  0.81169717  0.31643464  0.30871043  1
  Zn  Zn120  1  0.82134521  0.31334818  0.81476079  1
  Zn  Zn121  1  0.81211115  0.81341740  0.30948698  1
  Zn  Zn122  1  0.81072090  0.80695788  0.81343637  1
  Zn  Zn123  1  0.17949751  0.44047636  0.43061052  1
  Zn  Zn124  1  0.18121059  0.43379004  0.93720817  1
  Zn  Zn125  1  0.19351108  0.94107728  0.43288691  1
  Zn  Zn126  1  0.18486840  0.93730624  0.93675493  1
  Zn  Zn127  1  0.68545711  0.43853198  0.43863856  1
  Zn  Zn128  1  0.69341164  0.44868815  0.93445753  1
  Zn  Zn129  1  0.67552345  0.94017482  0.43170953  1
  Zn  Zn130  1  0.69094732  0.93126018  0.93633239  1
  Zn  Zn131  1  0.31302076  0.06280227  0.06682450  1
  Zn  Zn132  1  0.31282361  0.06536794  0.56571491  1
  Zn  Zn133  1  0.31803264  0.56151879  0.06207364  1
  Zn  Zn134  1  0.31231649  0.56274475  0.55719022  1
  Zn  Zn135  1  0.80898419  0.06299004  0.05905866  1
  Zn  Zn136  1  0.81165682  0.06278154  0.56266373  1
  Zn  Zn137  1  0.82129665  0.55913244  0.06251655  1
  Zn  Zn138  1  0.81732791  0.55411168  0.70507325  1
  Zn  Zn139  1  0.43313179  0.43845265  0.18774450  1
  Zn  Zn140  1  0.43820647  0.43783021  0.69462290  1
  Zn  Zn141  1  0.43385844  0.94584174  0.18315783  1
  Zn  Zn142  1  0.43548959  0.93862445  0.68791409  1
  Zn  Zn143  1  0.92921866  0.44174340  0.18887633  1
  Zn  Zn144  1  0.96260098  0.42631566  0.68181648  1
  Zn  Zn145  1  0.93200388  0.93561273  0.18888390  1
  Zn  Zn146  1  0.93948513  0.93120070  0.68648408  1
  Zn  Zn147  1  0.06565230  0.06152635  0.30909761  1
  Zn  Zn148  1  0.06459137  0.06137815  0.81453763  1
  Zn  Zn149  1  0.06073261  0.56213888  0.31088325  1
  Zn  Zn150  1  0.05970998  0.55562120  0.81445211  1
  Zn  Zn151  1  0.54623014  0.06997703  0.31329343  1
  Zn  Zn152  1  0.55853677  0.05767449  0.81450097  1
  Zn  Zn153  1  0.56556896  0.56204889  0.31441209  1
  Zn  Zn154  1  0.56086508  0.55875257  0.81343810  1
  Zn  Zn155  1  0.43279213  0.19082320  0.43751767  1
  Zn  Zn156  1  0.44126519  0.18664474  0.94112008  1
  Zn  Zn157  1  0.43718154  0.68725816  0.43580759  1
  Zn  Zn158  1  0.43710012  0.68822332  0.94146859  1
  Zn  Zn159  1  0.93776163  0.18701185  0.43619089  1
  Zn  Zn160  1  0.92402974  0.18862158  0.93714568  1
  Zn  Zn161  1  0.93612018  0.69232169  0.44102973  1
  Zn  Zn162  1  0.93701714  0.67700724  0.93964875  1
  Zn  Zn163  1  0.06588692  0.30893080  0.06261604  1
  Zn  Zn164  1  0.06526180  0.31052816  0.56265846  1
  Zn  Zn165  1  0.06276847  0.80967063  0.06430942  1
  Zn  Zn166  1  0.06381247  0.80919944  0.56319576  1
  Zn  Zn167  1  0.57280889  0.31440877  0.06291464  1
  Zn  Zn168  1  0.56300939  0.31380930  0.56559010  1
  Zn  Zn169  1  0.58949505  0.76892532  0.08702935  1
  Zn  Zn170  1  0.55892276  0.81608099  0.55921898  1
  O  O171  1  0.09796425  0.11011039  0.13964615  1
  O  O172  1  0.12565304  0.11483225  0.61438046  1
  O  O173  1  0.11261627  0.63336026  0.12700842  1
  O  O174  1  0.10422670  0.63412897  0.61648509  1
  O  O175  1  0.61533003  0.13066076  0.12109225  1
  O  O176  1  0.62110961  0.12180862  0.62252727  1
  O  O177  1  0.61756983  0.66140792  0.11604484  1
  O  O178  1  0.61882281  0.61674087  0.61761727  1
  O  O179  1  0.38499670  0.38378845  0.37139691  1
  O  O180  1  0.38464490  0.37931726  0.88481947  1
  O  O181  1  0.39204711  0.87010526  0.38027845  1
  O  O182  1  0.37504931  0.87499288  0.88909560  1
  O  O183  1  0.88794010  0.36494625  0.38198696  1
  O  O184  1  0.89624221  0.37411722  0.87477457  1
  O  O185  1  0.88033217  0.88103248  0.37984750  1
  O  O186  1  0.87354724  0.87769611  0.88668425  1
  O  O187  1  0.24571785  0.00798876  0.35758791  1
  O  O188  1  0.25126278  0.00070489  0.86285227  1
  O  O189  1  0.25619307  0.50764658  0.36944760  1
  O  O190  1  0.25820009  0.50695725  0.88001241  1
  O  O191  1  0.75000210  0.00544776  0.36706674  1
  O  O192  1  0.75497992  0.00138715  0.86497198  1
  O  O193  1  0.74945831  0.51391648  0.37958093  1
  O  O194  1  0.75850308  0.50243893  0.86552326  1
  O  O195  1  0.26151121  0.49191721  0.13544459  1
  O  O196  1  0.23796460  0.54371193  0.63689312  1
  O  O197  1  0.24481197  0.98865632  0.12755487  1
  O  O198  1  0.24598766  0.99680530  0.63561155  1
  O  O199  1  0.75384127  0.49691897  0.13615451  1
  O  O200  1  0.74254882  0.48595556  0.62638511  1
  O  O201  1  0.75329746  0.98624057  0.12980448  1
  O  O202  1  0.73991927  0.99461218  0.62773841  1
  O  O203  1  -0.00240248  0.36686013  0.25382033  1
  O  O204  1  0.00214777  0.35121111  0.76361956  1
  O  O205  1  0.00550078  0.87067439  0.25778928  1
  O  O206  1  0.00413393  0.86061925  0.75219067  1
  O  O207  1  0.50157274  0.37211984  0.25764776  1
  O  O208  1  0.50768701  0.36848722  0.76031800  1
  O  O209  1  0.49238574  0.87466018  0.25667016  1
  O  O210  1  0.50568248  0.87042352  0.75291249  1
  O  O211  1  0.50139588  0.13449236  0.23008785  1
  O  O212  1  0.49280217  0.13297364  0.75085475  1
  O  O213  1  0.48704178  0.61722800  0.24994316  1
  O  O214  1  0.49879469  0.63212794  0.74259638  1
  O  O215  1  0.98732409  0.12939052  0.24796203  1
  O  O216  1  0.99377826  0.12961749  0.75137652  1
  O  O217  1  1.00321677  0.63732194  0.24693332  1
  O  O218  1  1.00156700  0.63639278  0.74204420  1
  O  O219  1  0.38237402  0.26201345  0.00871785  1
  O  O220  1  0.36012532  0.24708845  0.50449322  1
  O  O221  1  0.36303879  0.75715391  0.00517208  1
  O  O222  1  0.37521996  0.75972562  0.50633690  1
  O  O223  1  0.85044092  0.23970841  0.00088444  1
  O  O224  1  0.86800602  0.25449913  0.50141210  1
  O  O225  1  0.87091479  0.75641165  0.00614189  1
  O  O226  1  0.86096463  0.75714691  0.50607273  1
  O  O227  1  0.13566500  0.24392228  0.49355941  1
  O  O228  1  0.13979684  0.22819545  1.04969880  1
  O  O229  1  0.12896189  0.75188702  0.49533007  1
  O  O230  1  0.13702190  0.74970479  0.99603167  1
  O  O231  1  0.63166535  0.24770101  0.49587484  1
  O  O232  1  0.62341188  0.26515714  0.98013190  1
  O  O233  1  0.63364190  0.74827754  0.49889771  1
  O  O234  1  0.63909348  0.76358092  0.98304604  1
  O  O235  1  0.49752268  0.24451442  0.12934111  1
  O  O236  1  0.49212862  0.24621153  0.63186694  1
  O  O237  1  0.48143823  0.75527787  0.11962094  1
  O  O238  1  0.49100413  0.74744415  0.62844983  1
  O  O239  1  0.98988230  0.24300794  0.13614245  1
  O  O240  1  0.99923910  0.24224605  0.63794357  1
  O  O241  1  0.99455876  0.74570711  0.13368533  1
  O  O242  1  0.98837524  0.74810264  0.63189732  1
  O  O243  1  0.00500785  0.25268359  0.36346924  1
  O  O244  1  -0.00044612  0.25008570  0.87087003  1
  O  O245  1  -0.00844938  0.76161589  0.36731279  1
  O  O246  1  0.00700650  0.74700521  0.86961302  1
  O  O247  1  0.49998851  0.25924626  0.36940704  1
  O  O248  1  0.49321196  0.26028749  0.86698211  1
  O  O249  1  0.51150210  0.75774355  0.37646778  1
  O  O250  1  0.50712107  0.75180558  0.87145003  1
  O  O251  1  0.24048912  0.12672805  0.49858739  1
  O  O252  1  0.25206070  0.11583501  0.98308699  1
  O  O253  1  0.25208473  0.62982333  0.47987795  1
  O  O254  1  0.25018855  0.63280629  0.99505535  1
  O  O255  1  0.74435093  0.13094080  0.49485453  1
  O  O256  1  0.74524930  0.11441867  0.97973010  1
  O  O257  1  0.74093621  0.63750711  0.48662091  1
  O  O258  1  0.75480637  0.63629679  1.00620114  1
  O  O259  1  0.26078405  0.38182397  0.00827402  1
  O  O260  1  0.24382558  0.36695115  0.49718448  1
  O  O261  1  0.25366491  0.87082642  0.00755555  1
  O  O262  1  0.26512196  0.87910137  0.50283096  1
  O  O263  1  0.74738094  0.38452966  0.01430740  1
  O  O264  1  0.75810078  0.37224720  0.50506620  1
  O  O265  1  0.75874629  0.87015735  0.01048601  1
  O  O266  1  0.74941089  0.87149780  0.50084692  1
  O  O267  1  0.13935056  0.49862749  0.25423540  1
  O  O268  1  0.13003009  0.50101144  0.74671896  1
  O  O269  1  0.12979509  0.98644900  0.24808399  1
  O  O270  1  0.13222644  0.99717430  0.74310439  1
  O  O271  1  0.64510479  0.50476564  0.26004306  1
  O  O272  1  0.61654613  0.49027715  0.73645992  1
  O  O273  1  0.63326769  1.00950575  0.25323982  1
  O  O274  1  0.62658761  0.99170007  0.74327003  1
  O  O275  1  0.35573049  0.00313914  0.24179314  1
  O  O276  1  0.36753779  0.00966363  0.75203123  1
  O  O277  1  0.36732101  0.50717948  0.26112811  1
  O  O278  1  0.37528292  0.50213542  0.76574564  1
  O  O279  1  0.86667441  0.00981806  0.25508776  1
  O  O280  1  0.87066348  0.00129674  0.75255376  1
  O  O281  1  0.85687185  0.49904481  0.25987879  1
  O  O282  1  0.89338612  0.48812035  0.74591711  1
  O  O283  1  0.11332166  0.36202545  0.37101010  1
  O  O284  1  0.10777203  0.37259682  0.87198817  1
  O  O285  1  0.11373670  0.88036284  0.37016817  1
  O  O286  1  0.12482803  0.85957061  0.87407966  1
  O  O287  1  0.61145578  0.37100800  0.37693013  1
  O  O288  1  0.61985052  0.38406725  0.86245059  1
  O  O289  1  0.61740646  0.85597654  0.37687681  1
  O  O290  1  0.62549568  0.86931440  0.86081425  1
  O  O291  1  0.38248104  0.14001988  0.11723161  1
  O  O292  1  0.37744310  0.13318386  0.63764947  1
  O  O293  1  0.37435004  0.63383157  0.13381491  1
  O  O294  1  0.38313521  0.63422395  0.62410214  1
  O  O295  1  0.87882360  0.12306415  0.13281572  1
  O  O296  1  0.87648541  0.12234274  0.63696590  1
  O  O297  1  0.88692812  0.63804892  0.12308239  1
  O  O298  1  0.88202915  0.63857403  0.62141013  1
  O  O299  1  0.26752945  0.26545861  0.13992954  1
  O  O300  1  0.25677610  0.24815319  0.60847595  1
  O  O301  1  0.25424981  0.76036166  0.11982640  1
  O  O302  1  0.26298210  0.75067940  0.62418049  1
  O  O303  1  0.74831909  0.26617517  0.12572898  1
  O  O304  1  0.75130044  0.26132587  0.61704040  1
  O  O305  1  0.76089691  0.75936112  0.12159505  1
  O  O306  1  0.75269985  0.75782204  0.61450720  1
  O  O307  1  0.24301555  0.25398145  0.38399627  1
  O  O308  1  0.25538672  0.23745869  0.87744724  1
  O  O309  1  0.25674466  0.73877758  0.36990296  1
  O  O310  1  0.24467465  0.74506441  0.88469918  1
  O  O311  1  0.74322288  0.24639849  0.37957996  1
  O  O312  1  0.75389584  0.23181797  0.86530043  1
  O  O313  1  0.74114559  0.74584984  0.37689096  1
  O  O314  1  0.74397154  0.74541531  0.88285109  1
  O  O315  1  -0.00315372  0.11768945  0.00601723  1
  O  O316  1  0.00910157  0.11773280  0.49926958  1
  O  O317  1  0.00619495  0.61435747  0.01175376  1
  O  O318  1  -0.00326457  0.61809549  0.50229268  1
  O  O319  1  0.49819015  0.11197850  0.00868669  1
  O  O320  1  0.50588045  0.12756205  0.51591408  1
  O  O321  1  0.49410198  0.60970784  0.00252228  1
  O  O322  1  0.50460847  0.61471460  0.50321917  1
  O  O323  1  0.50228875  0.38595571  0.49472704  1
  O  O324  1  0.49316752  0.38397522  0.99675035  1
  O  O325  1  0.48997895  0.88568437  0.49601344  1
  O  O326  1  0.49065056  0.89021998  1.00318140  1
  O  O327  1  0.99525315  0.37792050  0.49014241  1
  O  O328  1  1.00356939  0.37550276  0.99490976  1
  O  O329  1  0.99374785  0.88120971  0.49256363  1
  O  O330  1  0.99270376  0.87971442  0.99892423  1
  O  O331  1  0.49359986  0.49453911  0.38249315  1
  O  O332  1  0.49461626  0.49035132  0.88370674  1
  O  O333  1  0.52575952  0.97163525  0.37565235  1
  O  O334  1  0.49588706  0.99797206  0.88887605  1
  O  O335  1  1.00451792  0.48887153  0.37895600  1
  O  O336  1  0.99968735  0.48830249  0.88875810  1
  O  O337  1  0.99372831  0.99252515  0.37841922  1
  O  O338  1  0.99272967  0.99596368  0.88112933  1
  O  O339  1  -0.00782495  0.00322278  0.11469028  1
  O  O340  1  0.00826529  -0.00175603  0.61673007  1
  O  O341  1  -0.00307707  0.50763513  0.12262259  1
  O  O342  1  -0.00300790  0.51285339  0.61031075  1
  O  O343  1  0.50000232  0.01354936  0.11600051  1
  O  O344  1  0.50435086  0.01059789  0.62819656  1
  O  O345  1  0.49612096  0.50040886  0.11285998  1
  O  O346  1  0.50335954  0.50249986  0.61869089  1
  O  O347  1  0.24996020  0.38585515  0.24392312  1
  O  O348  1  0.24934809  0.37551577  0.74670329  1
  O  O349  1  0.24247780  0.87765392  0.24400464  1
  O  O350  1  0.25108812  0.88273919  0.74280944  1
  O  O351  1  0.74391121  0.38909317  0.25216622  1
  O  O352  1  0.74292669  0.36337735  0.74202271  1
  O  O353  1  0.75417532  0.88411606  0.23638286  1
  O  O354  1  0.74125802  0.87805734  0.74265255  1
  O  O355  1  0.23742928  0.11487713  0.23361957  1
  O  O356  1  0.25630689  0.12004464  0.75672438  1
  O  O357  1  0.25742171  0.62030223  0.25730970  1
  O  O358  1  0.25779001  0.63264647  0.77137303  1
  O  O359  1  0.75271174  0.12087226  0.25170121  1
  O  O360  1  0.75751167  0.11679344  0.75142705  1
  O  O361  1  0.75314709  0.61672355  0.26541763  1
  O  O362  1  0.75412239  0.63508713  0.74191746  1
  O  O363  1  0.44700016  0.08929039  0.38933459  1
  O  O364  1  0.36757369  0.12539564  0.86521165  1
  O  O365  1  0.36854770  0.61969682  0.36770412  1
  O  O366  1  0.36942294  0.61573919  0.87909745  1
  O  O367  1  0.86531973  0.11928157  0.36853518  1
  O  O368  1  0.86781141  0.11323001  0.86150061  1
  O  O369  1  0.86163434  0.62998207  0.38017895  1
  O  O370  1  0.87338157  0.61633931  0.87476312  1
  O  O371  1  0.14027170  0.37541703  0.12790612  1
  O  O372  1  0.09431059  0.38508452  0.63866902  1
  O  O373  1  0.13140954  0.87560837  0.13270839  1
  O  O374  1  0.13428309  0.88282653  0.62511951  1
  O  O375  1  0.63942286  0.37790545  0.13330297  1
  O  O376  1  0.63254505  0.38069209  0.63328450  1
  O  O377  1  0.64087810  0.86802809  0.12335747  1
  O  O378  1  0.62630951  0.87963433  0.63267243  1
  O  O379  1  0.11425500  0.25042375  0.25357232  1
  O  O380  1  0.11473028  0.24045219  0.74760837  1
  O  O381  1  0.11539729  0.76419696  0.24923832  1
  O  O382  1  0.11838004  0.74692898  0.75942497  1
  O  O383  1  0.61168618  0.25396532  0.25947411  1
  O  O384  1  0.61168398  0.25931835  0.74346815  1
  O  O385  1  0.63012634  0.74883150  0.26019940  1
  O  O386  1  0.61600482  0.75870578  0.75418104  1
  O  O387  1  0.38907162  0.25478809  0.24352510  1
  O  O388  1  0.38353223  0.24570783  0.74241908  1
  O  O389  1  0.36955384  0.74027033  0.24014644  1
  O  O390  1  0.38256219  0.75135502  0.74222405  1
  O  O391  1  0.87776740  0.23682476  0.25217912  1
  O  O392  1  0.88497848  0.23782078  0.74773492  1
  O  O393  1  0.88611465  0.75846606  0.24017323  1
  O  O394  1  0.88264702  0.75846445  0.73937013  1
  O  O395  1  0.38177802  0.50465474  0.48715698  1
  O  O396  1  0.38207918  0.49124077  0.99159924  1
  O  O397  1  0.38437920  0.99592206  0.50605189  1
  O  O398  1  0.37786950  0.99250764  1.00111840  1
  O  O399  1  0.88781915  0.48550458  0.49655249  1
  O  O400  1  0.89519869  0.49847693  1.00223301  1
  O  O401  1  0.87920191  0.99644916  0.49336061  1
  O  O402  1  0.88186450  0.99211220  0.99373031  1
  O  O403  1  0.10994353  0.00140000  -0.00000047  1
  O  O404  1  0.12285551  0.00610381  0.50265340  1
  O  O405  1  0.11021740  0.49855803  0.00209671  1
  O  O406  1  0.11291009  0.50566069  0.49948954  1
  O  O407  1  0.61310314  -0.00776079  -0.00305198  1
  O  O408  1  0.60976107  0.01074437  0.50211480  1
  O  O409  1  0.60929615  0.49822382  -0.00313268  1
  O  O410  1  0.61730199  0.50245945  0.51155768  1
  O  O411  1  0.37158418  0.36857443  0.11765706  1
  O  O412  1  0.38129080  0.36572045  0.62533864  1
  O  O413  1  0.36607237  0.87118269  0.11720121  1
  O  O414  1  0.37191710  0.86883226  0.61710002  1
  O  O415  1  0.85368481  0.37343614  0.13707653  1
  O  O416  1  0.87110498  0.37110157  0.61506881  1
  O  O417  1  0.87243025  0.86630415  0.11497605  1
  O  O418  1  0.86685166  0.86904928  0.61632362  1
  O  O419  1  0.11871045  0.13796462  0.38049447  1
  O  O420  1  0.14105980  0.12305892  0.87464285  1
  O  O421  1  0.14051012  0.62425707  0.37076127  1
  O  O422  1  0.13187449  0.63305411  0.88174735  1
  O  O423  1  0.62693656  0.13458102  0.38212939  1
  O  O424  1  0.64017194  0.12063356  0.86067927  1
  O  O425  1  0.62646788  0.63815420  0.38081811  1
  O  O426  1  0.62738402  0.63525638  0.86846160  1
