# generated using pymatgen
data_V85Zn86O256
_symmetry_space_group_name_H-M   'P 1'
_cell_length_a   16.96739875
_cell_length_b   16.96615916
_cell_length_c   16.94524555
_cell_angle_alpha   90.01161964
_cell_angle_beta   89.91822458
_cell_angle_gamma   89.96174560
_symmetry_Int_Tables_number   1
_chemical_formula_structural   V85Zn86O256
_chemical_formula_sum   'V85 Zn86 O256'
_cell_volume   4878.04858244
_cell_formula_units_Z   1
loop_
 _symmetry_equiv_pos_site_id
 _symmetry_equiv_pos_as_xyz
  1  'x, y, z'
loop_
 _atom_site_type_symbol
 _atom_site_label
 _atom_site_symmetry_multiplicity
 _atom_site_fract_x
 _atom_site_fract_y
 _atom_site_fract_z
 _atom_site_occupancy
  V  V0  1  0.50102384  0.49758107  -0.00474471  1
  V  V1  1  0.63432255  -0.00145887  0.61807657  1
  V  V2  1  0.25800156  0.62614001  0.87385776  1
  V  V3  1  0.62038606  0.24467050  0.88881176  1
  V  V4  1  0.76022636  0.38262155  0.11398196  1
  V  V5  1  0.37670455  0.37178226  0.49518441  1
  V  V6  1  0.01478904  0.74779385  0.25337280  1
  V  V7  1  0.37410357  0.00063577  0.37612687  1
  V  V8  1  0.12028786  0.25029409  0.87905948  1
  V  V9  1  0.37412933  0.50750008  0.37275111  1
  V  V10  1  0.53604963  0.21844287  0.22778599  1
  V  V11  1  0.37435254  0.86437709  0.49822124  1
  V  V12  1  0.25144383  0.86684625  0.12602058  1
  V  V13  1  0.37902412  0.37380076  -0.00902714  1
  V  V14  1  0.86317340  0.12274890  0.75190503  1
  V  V15  1  0.86106641  0.87771850  0.50370124  1
  V  V16  1  0.37299407  0.12732229  0.24354519  1
  V  V17  1  0.75145036  0.61983343  0.36689512  1
  V  V18  1  0.75520756  0.74964583  -0.00305182  1
  V  V19  1  0.25243457  0.74940561  -0.00544576  1
  V  V20  1  -0.00210267  0.24501271  0.75227119  1
  V  V21  1  0.62899511  0.50402938  0.12948125  1
  V  V22  1  -0.00268605  -0.00184634  0.49917190  1
  V  V23  1  0.25352425  -0.00109167  0.75205920  1
  V  V24  1  0.62741419  0.49767900  0.62801813  1
  V  V25  1  0.87503562  0.12041606  0.24946384  1
  V  V26  1  0.25346672  0.37656086  0.12558861  1
  V  V27  1  -0.00078855  0.25055396  0.24883742  1
  V  V28  1  0.12255078  0.12402966  0.49908149  1
  V  V29  1  0.49841440  0.00278753  0.49972708  1
  V  V30  1  0.24841055  0.24897171  0.49948184  1
  V  V31  1  0.49758175  0.62409147  0.62977703  1
  V  V32  1  0.75012269  0.88541951  0.13099352  1
  V  V33  1  0.87911475  0.74384325  0.13040054  1
  V  V34  1  0.63204684  0.87641513  0.74488155  1
  V  V35  1  0.50213420  0.49703739  0.49616837  1
  V  V36  1  0.86666777  0.62749160  0.75966515  1
  V  V37  1  0.49279167  0.63038235  0.12258578  1
  V  V38  1  0.63646767  0.38178832  0.25394938  1
  V  V39  1  0.00084205  0.63188817  0.62137650  1
  V  V40  1  0.74821744  0.50184343  0.76274656  1
  V  V41  1  0.11684979  0.50156054  0.62759435  1
  V  V42  1  0.50073617  0.12609534  0.62413924  1
  V  V43  1  0.38011752  0.87101057  0.00329538  1
  V  V44  1  0.11641612  0.63166799  -0.00634887  1
  V  V45  1  0.00070310  0.50299155  0.50146710  1
  V  V46  1  0.12409509  0.37357264  0.75648937  1
  V  V47  1  0.12290886  0.25116231  0.37618648  1
  V  V48  1  0.25300426  0.87290985  0.62394105  1
  V  V49  1  0.86818751  -0.00227980  0.37247602  1
  V  V50  1  0.50541813  0.87958677  0.87701481  1
  V  V51  1  0.12414402  -0.00033989  0.62671418  1
  V  V52  1  0.74691683  0.13430331  0.37246967  1
  V  V53  1  0.12522604  0.37627334  0.25044851  1
  V  V54  1  0.11941150  -0.01087090  0.12791765  1
  V  V55  1  0.00098969  0.48106709  -0.01020848  1
  V  V56  1  0.25337892  0.50902335  0.75168904  1
  V  V57  1  0.37384022  0.74695754  0.62985076  1
  V  V58  1  0.63270178  0.62537102  -0.00635578  1
  V  V59  1  0.01109019  0.75125574  0.75282192  1
  V  V60  1  0.25186813  0.24774180  0.00308142  1
  V  V61  1  0.00658340  0.87774149  0.88083015  1
  V  V62  1  0.87613904  0.37556746  0.50826706  1
  V  V63  1  0.24338145  -0.00650696  0.25046384  1
  V  V64  1  0.62252221  0.62509190  0.49922873  1
  V  V65  1  -0.00012547  0.11882579  0.12144632  1
  V  V66  1  0.87121818  0.75565546  0.62926094  1
  V  V67  1  0.49371824  0.75105317  0.24882240  1
  V  V68  1  0.50394960  0.36320953  0.36385196  1
  V  V69  1  0.25032907  0.12240773  0.87737274  1
  V  V70  1  0.50562296  0.87201833  0.37240306  1
  V  V71  1  0.12014813  0.50525853  0.12223643  1
  V  V72  1  0.87047763  0.00107588  0.88320748  1
  V  V73  1  0.37678373  0.12552380  0.75133886  1
  V  V74  1  -0.00020985  0.37845804  0.37571164  1
  V  V75  1  0.37590869  0.24905865  0.62419746  1
  V  V76  1  0.75762601  0.23743259  -0.00370877  1
  V  V77  1  0.74763442  0.75020636  0.50419038  1
  V  V78  1  0.74326701  0.25387161  0.49921647  1
  V  V79  1  0.50232380  0.25709644  0.75673007  1
  V  V80  1  0.12425083  0.11520020  0.00182903  1
  V  V81  1  0.24866861  0.37435630  0.62251709  1
  V  V82  1  0.24694777  0.50908287  0.25596195  1
  V  V83  1  0.51328862  0.00876859  0.01395959  1
  V  V84  1  0.49925191  0.74838024  0.75422280  1
  Zn  Zn85  1  0.12910345  0.86903819  0.75273251  1
  Zn  Zn86  1  0.37947935  0.00113823  0.88066844  1
  Zn  Zn87  1  0.87855677  0.61852027  0.24408356  1
  Zn  Zn88  1  0.88214060  0.25604111  0.11635590  1
  Zn  Zn89  1  0.00452572  0.87272179  0.36888098  1
  Zn  Zn90  1  0.62857111  0.87451615  0.24034233  1
  Zn  Zn91  1  0.37882819  0.24926407  0.12695012  1
  Zn  Zn92  1  0.88017297  0.87660757  0.00391516  1
  Zn  Zn93  1  -0.00320882  0.12375302  0.62667197  1
  Zn  Zn94  1  0.62114215  0.13332611  0.49412618  1
  Zn  Zn95  1  0.62472136  0.74931701  0.37159342  1
  Zn  Zn96  1  0.87297288  0.24712076  0.62726436  1
  Zn  Zn97  1  0.74878401  -0.00096426  0.75194875  1
  Zn  Zn98  1  0.87072626  0.49733947  0.36907162  1
  Zn  Zn99  1  0.63418540  0.74857609  0.87251704  1
  Zn  Zn100  1  0.62303833  0.37537318  0.75920644  1
  Zn  Zn101  1  0.87277246  0.49097105  0.88402280  1
  Zn  Zn102  1  0.24606751  0.12319030  0.37452264  1
  Zn  Zn103  1  0.13897861  0.73682054  0.40250987  1
  Zn  Zn104  1  0.74909832  0.37464791  0.62864574  1
  Zn  Zn105  1  0.37180154  0.63031520  0.24830254  1
  Zn  Zn106  1  0.38173061  0.49924744  0.86762937  1
  Zn  Zn107  1  0.18845222  0.18379480  0.18767863  1
  Zn  Zn108  1  0.18674179  0.18485673  0.68854687  1
  Zn  Zn109  1  0.18451947  0.68549255  0.18222302  1
  Zn  Zn110  1  0.18946206  0.68293707  0.58177092  1
  Zn  Zn111  1  0.70161587  0.19788417  0.18718441  1
  Zn  Zn112  1  0.68438173  0.18894477  0.68603092  1
  Zn  Zn113  1  0.68388941  0.69519562  0.18337613  1
  Zn  Zn114  1  0.68643299  0.68629011  0.68788544  1
  Zn  Zn115  1  0.30967269  0.31604172  0.31416961  1
  Zn  Zn116  1  0.30860721  0.31061112  0.81228640  1
  Zn  Zn117  1  0.31160751  0.81170775  0.31017865  1
  Zn  Zn118  1  0.31647050  0.81261339  0.81537697  1
  Zn  Zn119  1  0.81533490  0.31659016  0.31128198  1
  Zn  Zn120  1  0.80833434  0.31626324  0.81929662  1
  Zn  Zn121  1  0.81253932  0.81007412  0.31474151  1
  Zn  Zn122  1  0.81552868  0.81747693  0.81489027  1
  Zn  Zn123  1  0.18517432  0.55554548  0.44009702  1
  Zn  Zn124  1  0.18916725  0.43890425  0.93770582  1
  Zn  Zn125  1  0.18835336  0.92752511  0.43481233  1
  Zn  Zn126  1  0.18695378  0.93526599  0.93855010  1
  Zn  Zn127  1  0.68842788  0.43776991  0.43883983  1
  Zn  Zn128  1  0.68143812  0.43094675  0.93788070  1
  Zn  Zn129  1  0.65077822  0.98653345  0.38301325  1
  Zn  Zn130  1  0.69053787  0.93447089  0.94221557  1
  Zn  Zn131  1  0.31409483  0.05423752  0.06351710  1
  Zn  Zn132  1  0.31124464  0.06242729  0.56174093  1
  Zn  Zn133  1  0.31177649  0.56032688  0.06052903  1
  Zn  Zn134  1  0.32315669  0.55099381  0.57395682  1
  Zn  Zn135  1  0.81505472  0.06243375  0.06267169  1
  Zn  Zn136  1  0.81195087  0.06855215  0.56112185  1
  Zn  Zn137  1  0.81714159  0.56291508  0.05856686  1
  Zn  Zn138  1  0.81374476  0.56449876  0.56652310  1
  Zn  Zn139  1  0.43989040  0.44041660  0.18547790  1
  Zn  Zn140  1  0.43711687  0.43613531  0.68715357  1
  Zn  Zn141  1  0.43175471  0.93465742  0.18755940  1
  Zn  Zn142  1  0.44199668  0.93637257  0.68833838  1
  Zn  Zn143  1  0.93863909  0.44425536  0.18595360  1
  Zn  Zn144  1  0.92136983  0.42096051  0.72108800  1
  Zn  Zn145  1  0.93616576  0.93076835  0.18970231  1
  Zn  Zn146  1  0.93679538  0.93600338  0.69050171  1
  Zn  Zn147  1  0.05926709  0.06018544  0.31264727  1
  Zn  Zn148  1  0.06072567  0.05892444  0.81379613  1
  Zn  Zn149  1  0.05691243  0.57059410  0.31117607  1
  Zn  Zn150  1  0.06436377  0.56804186  0.81267339  1
  Zn  Zn151  1  0.57264878  0.04641491  0.20136531  1
  Zn  Zn152  1  0.56702131  0.06451319  0.81414796  1
  Zn  Zn153  1  0.56096741  0.56369416  0.31160406  1
  Zn  Zn154  1  0.56328739  0.56435380  0.81476960  1
  Zn  Zn155  1  0.43901698  0.18721840  0.42684103  1
  Zn  Zn156  1  0.43907408  0.18540025  0.93971360  1
  Zn  Zn157  1  0.31605051  0.68641325  0.44015022  1
  Zn  Zn158  1  0.43906180  0.68835030  0.93803400  1
  Zn  Zn159  1  0.93351533  0.18885381  0.43851119  1
  Zn  Zn160  1  0.93800605  0.18353311  0.93676103  1
  Zn  Zn161  1  0.93752218  0.68959904  0.43731861  1
  Zn  Zn162  1  0.93611811  0.69045687  0.93477947  1
  Zn  Zn163  1  0.06679773  0.31018880  0.06470281  1
  Zn  Zn164  1  0.05960166  0.31341821  0.56717255  1
  Zn  Zn165  1  0.06116607  0.80728660  0.06270735  1
  Zn  Zn166  1  0.07135602  0.82520303  0.53903793  1
  Zn  Zn167  1  0.56659561  0.31671833  0.06426978  1
  Zn  Zn168  1  0.56187574  0.31347851  0.56262384  1
  Zn  Zn169  1  0.56762686  0.81130671  0.06283907  1
  Zn  Zn170  1  0.56140294  0.81338590  0.56114643  1
  O  O171  1  0.12001532  0.11390545  0.12048559  1
  O  O172  1  0.12656572  0.11220869  0.61971927  1
  O  O173  1  0.13165471  0.61509380  0.10642441  1
  O  O174  1  0.11408405  0.60870271  0.63696819  1
  O  O175  1  0.60082721  0.15000892  0.16927763  1
  O  O176  1  0.61579896  0.11743903  0.62058860  1
  O  O177  1  0.61975975  0.61925025  0.11631864  1
  O  O178  1  0.61701548  0.61604880  0.62107961  1
  O  O179  1  0.38406180  0.38084412  0.37637295  1
  O  O180  1  0.36891603  0.37372002  0.88842183  1
  O  O181  1  0.38172311  0.88392357  0.38313166  1
  O  O182  1  0.38704322  0.87803019  0.88260352  1
  O  O183  1  0.88236989  0.37673140  0.38798835  1
  O  O184  1  0.88759482  0.39237152  0.83063937  1
  O  O185  1  0.87545685  0.88222425  0.38484338  1
  O  O186  1  0.88508357  0.88681708  0.87625391  1
  O  O187  1  0.25432679  -0.00501786  0.36808359  1
  O  O188  1  0.25253538  0.00306264  0.86739315  1
  O  O189  1  0.25846494  0.49471509  0.36503768  1
  O  O190  1  0.25395543  0.50580304  0.86885072  1
  O  O191  1  0.76550087  0.01285904  0.38143661  1
  O  O192  1  0.76627193  -0.00671312  0.87361959  1
  O  O193  1  0.75004208  0.51634419  0.38081504  1
  O  O194  1  0.74944791  0.49615798  0.86660306  1
  O  O195  1  0.24115344  0.49230404  0.12816735  1
  O  O196  1  0.24244385  0.49030726  0.63389718  1
  O  O197  1  0.24164804  0.98948098  0.13172174  1
  O  O198  1  0.24618219  0.99433858  0.63351163  1
  O  O199  1  0.74472295  0.49039691  0.11569996  1
  O  O200  1  0.73860422  0.50108508  0.62999950  1
  O  O201  1  0.75867736  0.98484847  0.12379313  1
  O  O202  1  0.73616126  1.00430748  0.62223867  1
  O  O203  1  0.00608144  0.36706428  0.25130053  1
  O  O204  1  0.01883822  0.35873800  0.74228403  1
  O  O205  1  -0.00535560  0.85581671  0.25329818  1
  O  O206  1  0.00290253  0.86667039  0.75627904  1
  O  O207  1  0.51464260  0.38496820  0.25488010  1
  O  O208  1  0.49866680  0.36017069  0.74716839  1
  O  O209  1  0.49522871  0.86880744  0.25779407  1
  O  O210  1  0.50895433  0.87101823  0.75887939  1
  O  O211  1  0.47911651  0.12477381  0.25792933  1
  O  O212  1  0.49358462  0.13240190  0.74483120  1
  O  O213  1  0.49894694  0.63224589  0.24086193  1
  O  O214  1  0.50664152  0.63521825  0.74226176  1
  O  O215  1  0.99518237  0.13159779  0.24248648  1
  O  O216  1  0.99774616  0.13388798  0.75022048  1
  O  O217  1  0.99643912  0.64173397  0.24501554  1
  O  O218  1  0.99268372  0.63243955  0.74351910  1
  O  O219  1  0.37122941  0.25554686  0.00562122  1
  O  O220  1  0.37026697  0.25324750  0.50115286  1
  O  O221  1  0.36901387  0.76202533  -0.00299939  1
  O  O222  1  0.38057201  0.76024270  0.51143005  1
  O  O223  1  0.86359020  0.24691596  -0.00242329  1
  O  O224  1  0.86896234  0.25948590  0.50439433  1
  O  O225  1  0.87233767  0.75038776  0.01029212  1
  O  O226  1  0.86871447  0.75700179  0.50793239  1
  O  O227  1  0.12699748  0.24434159  0.49731123  1
  O  O228  1  0.13133386  0.23870999  0.99575082  1
  O  O229  1  0.10889278  0.72455299  0.51752007  1
  O  O230  1  0.13289696  0.73770244  1.00148712  1
  O  O231  1  0.63787951  0.25262228  0.50019741  1
  O  O232  1  0.63120719  0.24979589  0.99522625  1
  O  O233  1  0.63083539  0.74154424  0.50228246  1
  O  O234  1  0.63614572  0.74137599  0.99973944  1
  O  O235  1  0.49466297  0.26458373  0.14366025  1
  O  O236  1  0.49487347  0.24442649  0.63128332  1
  O  O237  1  0.50555412  0.74067287  0.13129748  1
  O  O238  1  0.49335496  0.74371548  0.63173669  1
  O  O239  1  1.00184762  0.24151561  0.13224118  1
  O  O240  1  0.99931664  0.24401641  0.63692938  1
  O  O241  1  0.98679688  0.75569064  0.13379535  1
  O  O242  1  0.98895388  0.74395828  0.63545386  1
  O  O243  1  0.00369537  0.25496382  0.36854584  1
  O  O244  1  0.01410261  0.24330254  0.87069228  1
  O  O245  1  -0.00168625  0.74787095  0.36098644  1
  O  O246  1  -0.00927729  0.76539391  0.86423753  1
  O  O247  1  0.49767818  0.25940730  0.35376055  1
  O  O248  1  0.50885335  0.24622217  0.87071824  1
  O  O249  1  0.50172113  0.76091573  0.36463087  1
  O  O250  1  0.50317849  0.75947253  0.86874887  1
  O  O251  1  0.24227569  0.13085875  0.49785165  1
  O  O252  1  0.24481413  0.12687646  0.99864545  1
  O  O253  1  0.25612907  0.61623220  0.51058105  1
  O  O254  1  0.24637357  0.63246176  0.99474877  1
  O  O255  1  0.75225955  0.13875565  0.49153855  1
  O  O256  1  0.74839599  0.13964046  1.00945984  1
  O  O257  1  0.73963108  0.62972441  0.49649142  1
  O  O258  1  0.74306772  0.63327420  1.00414392  1
  O  O259  1  0.25636830  0.36988420  0.00823652  1
  O  O260  1  0.25571679  0.36716578  0.51484909  1
  O  O261  1  0.25743853  0.86813567  0.00290837  1
  O  O262  1  0.26259641  0.88502008  0.51699730  1
  O  O263  1  0.74834301  0.36911910  0.01140793  1
  O  O264  1  0.75832864  0.37090348  0.50265858  1
  O  O265  1  0.75677400  0.86730892  0.01022278  1
  O  O266  1  0.75988759  0.86563780  0.50065980  1
  O  O267  1  0.12925235  0.49722248  0.24064213  1
  O  O268  1  0.12970873  0.48949035  0.74775798  1
  O  O269  1  0.13216597  1.00092838  0.24249398  1
  O  O270  1  0.13716709  0.99918993  0.74306632  1
  O  O271  1  0.62501689  0.49992452  0.23580119  1
  O  O272  1  0.63031103  0.50069865  0.74531940  1
  O  O273  1  0.62145822  0.98194086  0.27304525  1
  O  O274  1  0.62610889  0.99438369  0.73930514  1
  O  O275  1  0.36718381  0.00665139  0.25806011  1
  O  O276  1  0.36617074  0.00408503  0.74991798  1
  O  O277  1  0.36623405  0.49968777  0.25728596  1
  O  O278  1  0.36117173  0.49030196  0.75140099  1
  O  O279  1  0.88342528  0.00953251  0.25951015  1
  O  O280  1  0.87106287  0.00604664  0.75651518  1
  O  O281  1  0.88147441  0.50656852  0.25591229  1
  O  O282  1  0.85813742  0.51686291  0.73565649  1
  O  O283  1  0.11519289  0.36444165  0.36522472  1
  O  O284  1  0.13524022  0.36228190  0.86793502  1
  O  O285  1  0.10813978  0.85482438  0.41719470  1
  O  O286  1  0.11166583  0.88085285  0.87114077  1
  O  O287  1  0.61774782  0.38679614  0.36377494  1
  O  O288  1  0.62435092  0.35520355  0.87431064  1
  O  O289  1  0.60827587  0.87279084  0.38852219  1
  O  O290  1  0.61947551  0.87253979  0.86798411  1
  O  O291  1  0.36879375  0.12374145  0.14003954  1
  O  O292  1  0.37986834  0.13098693  0.62982735  1
  O  O293  1  0.38988594  0.61797592  0.12381131  1
  O  O294  1  0.38966262  0.63175120  0.62394779  1
  O  O295  1  0.88493348  0.12659720  0.13164711  1
  O  O296  1  0.87769566  0.12536536  0.63701514  1
  O  O297  1  0.87108899  0.64012076  0.12445447  1
  O  O298  1  0.88107994  0.63755474  0.63195671  1
  O  O299  1  0.24906933  0.25810123  0.11984853  1
  O  O300  1  0.25477965  0.25479636  0.62194716  1
  O  O301  1  0.24442901  0.76079278  0.11385009  1
  O  O302  1  0.26516764  0.75702537  0.63072189  1
  O  O303  1  0.75522588  0.26317303  0.11131024  1
  O  O304  1  0.75150975  0.25362889  0.61583536  1
  O  O305  1  0.76122887  0.75524026  0.11685399  1
  O  O306  1  0.75595624  0.74268308  0.61310694  1
  O  O307  1  0.24025448  0.25061103  0.38212682  1
  O  O308  1  0.24077885  0.24108420  0.88182711  1
  O  O309  1  0.25293170  0.76193155  0.38847074  1
  O  O310  1  0.25327594  0.74440870  0.88529878  1
  O  O311  1  0.76004184  0.24487695  0.38447015  1
  O  O312  1  0.74232292  0.25316437  0.89076995  1
  O  O313  1  0.74655786  0.74163711  0.38838383  1
  O  O314  1  0.75356218  0.75727913  0.89139147  1
  O  O315  1  0.00935315  0.12852395  0.01334738  1
  O  O316  1  0.00131419  0.11400695  0.50253085  1
  O  O317  1  0.01551363  0.62631939  -0.00725319  1
  O  O318  1  -0.01413617  0.61583562  0.51480562  1
  O  O319  1  0.49505098  0.10622055  0.00052653  1
  O  O320  1  0.49883173  0.12030891  0.50182847  1
  O  O321  1  0.50704072  0.62047864  0.00649425  1
  O  O322  1  0.51477476  0.61737655  0.51009270  1
  O  O323  1  0.49647117  0.37532073  0.48732261  1
  O  O324  1  0.49029505  0.38470279  1.00944550  1
  O  O325  1  0.48961954  0.88246825  0.49721044  1
  O  O326  1  0.49662749  0.87859971  0.99558832  1
  O  O327  1  0.99368626  0.38151029  0.49795684  1
  O  O328  1  1.00790413  0.38202552  0.99684987  1
  O  O329  1  0.98214927  0.89139579  0.50862143  1
  O  O330  1  1.00031653  0.86925294  0.98460779  1
  O  O331  1  0.49289556  0.49366115  0.37942258  1
  O  O332  1  0.49911113  0.50410918  0.88947364  1
  O  O333  1  0.48729498  0.99369199  0.38884983  1
  O  O334  1  0.50151794  0.99029039  0.88023020  1
  O  O335  1  1.00022548  0.49512722  0.38602136  1
  O  O336  1  1.00796967  0.50025594  0.88866007  1
  O  O337  1  0.99041019  0.99690265  0.38367811  1
  O  O338  1  0.99093082  0.98476270  0.86768281  1
  O  O339  1  0.00801609  0.00623879  0.13198169  1
  O  O340  1  0.00961790  0.00101913  0.62214605  1
  O  O341  1  0.01527845  0.49271560  0.11197026  1
  O  O342  1  0.00450375  0.50573253  0.62250019  1
  O  O343  1  0.50319184  -0.00363939  0.11978488  1
  O  O344  1  0.50170144  0.00655721  0.61416587  1
  O  O345  1  0.50960153  0.50796919  0.11540045  1
  O  O346  1  0.50347613  0.50674007  0.62057214  1
  O  O347  1  0.24429998  0.38438129  0.24337974  1
  O  O348  1  0.24021294  0.37492921  0.74067932  1
  O  O349  1  0.25572375  0.88485161  0.23962152  1
  O  O350  1  0.25130141  0.88094931  0.74216643  1
  O  O351  1  0.74319499  0.37305345  0.23791675  1
  O  O352  1  0.74256358  0.38640956  0.74532980  1
  O  O353  1  0.75225220  0.86780603  0.23548537  1
  O  O354  1  0.73528877  0.87383466  0.75107822  1
  O  O355  1  0.25530651  0.11068490  0.25223245  1
  O  O356  1  0.25591743  0.11730583  0.75534180  1
  O  O357  1  0.25402220  0.61206869  0.23788113  1
  O  O358  1  0.24566616  0.61029162  0.75824944  1
  O  O359  1  0.76865945  0.13552921  0.25619025  1
  O  O360  1  0.76056853  0.12490950  0.74834313  1
  O  O361  1  0.74459102  0.63411502  0.26624511  1
  O  O362  1  0.75523295  0.61971384  0.75050401  1
  O  O363  1  0.36790956  0.11294390  0.36903783  1
  O  O364  1  0.36797875  0.12235744  0.86984761  1
  O  O365  1  0.37684533  0.61042573  0.37450899  1
  O  O366  1  0.36276289  0.62238806  0.87992067  1
  O  O367  1  0.87333505  0.11884502  0.36713851  1
  O  O368  1  0.88489116  0.10808858  0.86714670  1
  O  O369  1  0.85847040  0.62577914  0.37775900  1
  O  O370  1  0.88107437  0.61734819  0.86162395  1
  O  O371  1  0.13621326  0.38030654  0.12966345  1
  O  O372  1  0.13205329  0.38259741  0.63094872  1
  O  O373  1  0.13158940  0.88467345  0.11517870  1
  O  O374  1  0.13529236  0.88586514  0.62390100  1
  O  O375  1  0.63627599  0.38515249  0.13150876  1
  O  O376  1  0.62075054  0.38979951  0.62660598  1
  O  O377  1  0.64475224  0.87178545  0.12231643  1
  O  O378  1  0.61373649  0.88742380  0.63212329  1
  O  O379  1  0.11615697  0.25109382  0.25393351  1
  O  O380  1  0.12212602  0.25157622  0.75965499  1
  O  O381  1  0.11516014  0.75025492  0.24541488  1
  O  O382  1  0.10981008  0.75012997  0.74703322  1
  O  O383  1  0.62842156  0.26785549  0.25563467  1
  O  O384  1  0.61538297  0.25183298  0.75493744  1
  O  O385  1  0.61280140  0.75675498  0.25220004  1
  O  O386  1  0.61542652  0.75754718  0.74854539  1
  O  O387  1  0.36066317  0.23169165  0.25033531  1
  O  O388  1  0.38028374  0.24491936  0.74589069  1
  O  O389  1  0.38730503  0.74749229  0.25044261  1
  O  O390  1  0.39026514  0.75696889  0.74373637  1
  O  O391  1  0.88931056  0.24537371  0.24819944  1
  O  O392  1  0.88317721  0.23974372  0.75407588  1
  O  O393  1  0.87431958  0.74451818  0.23857613  1
  O  O394  1  0.87466983  0.74478019  0.74459554  1
  O  O395  1  0.38280261  0.48937144  0.49334901  1
  O  O396  1  0.38309456  0.49069985  0.99871744  1
  O  O397  1  0.37821098  0.99412366  0.49448080  1
  O  O398  1  0.38472012  0.98677370  1.00091837  1
  O  O399  1  0.88386670  0.49228504  0.50182921  1
  O  O400  1  0.89661837  0.50285416  0.99925569  1
  O  O401  1  0.87834881  0.99583697  0.49677570  1
  O  O402  1  0.87763508  1.00024960  0.98669902  1
  O  O403  1  0.13007926  0.00969901  0.00878217  1
  O  O404  1  0.11630419  0.00472376  0.50636522  1
  O  O405  1  0.11856740  0.50635920  0.00352616  1
  O  O406  1  0.10948593  0.49852536  0.51220926  1
  O  O407  1  0.61149094  -0.00250540  -0.00148407  1
  O  O408  1  0.61260152  0.00565111  0.50089728  1
  O  O409  1  0.61996966  0.50547789  0.00689680  1
  O  O410  1  0.62054496  0.50519695  0.50804569  1
  O  O411  1  0.36315811  0.37620981  0.12121176  1
  O  O412  1  0.36882135  0.36784082  0.61813985  1
  O  O413  1  0.36289937  0.87745475  0.11599903  1
  O  O414  1  0.37243551  0.86808304  0.62094495  1
  O  O415  1  0.86260043  0.37509654  0.12810237  1
  O  O416  1  0.87621194  0.37321880  0.61769462  1
  O  O417  1  0.86806409  0.86473169  0.12272076  1
  O  O418  1  0.87422165  0.86311858  0.62227217  1
  O  O419  1  0.12366705  0.13179291  0.38092340  1
  O  O420  1  0.12951950  0.12624927  0.88445117  1
  O  O421  1  0.13333625  0.62509835  0.37064823  1
  O  O422  1  0.13924637  0.62009664  0.88805192  1
  O  O423  1  0.64640118  0.11879244  0.37539256  1
  O  O424  1  0.62693284  0.14509229  0.86813283  1
  O  O425  1  0.63176399  0.62533081  0.38400099  1
  O  O426  1  0.62167363  0.62928497  0.88955333  1
