# generated using pymatgen
data_V85Zn86O256
_symmetry_space_group_name_H-M   'P 1'
_cell_length_a   16.93148032
_cell_length_b   16.93866311
_cell_length_c   16.93041697
_cell_angle_alpha   90.02334846
_cell_angle_beta   89.98819819
_cell_angle_gamma   89.94950228
_symmetry_Int_Tables_number   1
_chemical_formula_structural   V85Zn86O256
_chemical_formula_sum   'V85 Zn86 O256'
_cell_volume   4855.58432737
_cell_formula_units_Z   1
loop_
 _symmetry_equiv_pos_site_id
 _symmetry_equiv_pos_as_xyz
  1  'x, y, z'
loop_
 _atom_site_type_symbol
 _atom_site_label
 _atom_site_symmetry_multiplicity
 _atom_site_fract_x
 _atom_site_fract_y
 _atom_site_fract_z
 _atom_site_occupancy
  V  V0  1  0.00045078  0.38019054  0.36491534  1
  V  V1  1  0.12009533  0.12719095  0.49894142  1
  V  V2  1  0.37339075  0.88296974  0.01352304  1
  V  V3  1  0.36556857  0.75073547  0.12804755  1
  V  V4  1  0.75372201  0.12353900  0.86680191  1
  V  V5  1  0.62347168  0.62750238  0.50502022  1
  V  V6  1  0.00075564  0.37198558  0.86903061  1
  V  V7  1  -0.00391878  0.50824839  0.50675827  1
  V  V8  1  -0.00334396  0.87926233  0.37473018  1
  V  V9  1  0.37426612  0.00663043  0.37126076  1
  V  V10  1  0.74302709  0.37595753  0.61506336  1
  V  V11  1  -0.00069964  0.88172877  0.87633533  1
  V  V12  1  0.62163518  0.50160509  0.12325682  1
  V  V13  1  0.86754051  0.74370650  0.62276812  1
  V  V14  1  0.87117409  0.63087059  0.24213610  1
  V  V15  1  0.25322836  0.00098367  0.24015340  1
  V  V16  1  -0.00797109  0.00358733  0.49829953  1
  V  V17  1  0.11079779  0.00237185  0.12073826  1
  V  V18  1  0.75621663  0.12459336  0.37828342  1
  V  V19  1  0.37589011  0.61797955  0.25760756  1
  V  V20  1  0.37241079  0.74934122  0.62503500  1
  V  V21  1  0.62594286  0.25106998  0.87205624  1
  V  V22  1  0.24628833  -0.00012420  0.75464193  1
  V  V23  1  0.63134675  0.24873388  0.38052716  1
  V  V24  1  0.24533890  0.87334066  0.61866158  1
  V  V25  1  0.12233175  0.74709617  0.87822928  1
  V  V26  1  0.12611862  0.62133336  0.00813902  1
  V  V27  1  0.37450893  0.24423947  0.12697799  1
  V  V28  1  0.88189594  0.87188566  0.00651185  1
  V  V29  1  0.37310780  0.62774149  0.75345448  1
  V  V30  1  0.24961263  0.24847265  -0.00104413  1
  V  V31  1  0.74851999  0.37497529  0.12288874  1
  V  V32  1  0.25183888  0.61809648  0.38097308  1
  V  V33  1  0.74968411  0.24858247  -0.00186600  1
  V  V34  1  0.50091922  0.12248943  0.13016516  1
  V  V35  1  0.37503643  0.37146560  -0.00026214  1
  V  V36  1  0.62520427  0.38281950  0.74486500  1
  V  V37  1  0.43244218  -0.06174641  0.82716219  1
  V  V38  1  0.11791834  0.00580924  0.62407878  1
  V  V39  1  0.00325548  0.49858185  0.00674741  1
  V  V40  1  0.86994682  0.87496830  0.50385792  1
  V  V41  1  0.50102934  0.00779149  0.50286961  1
  V  V42  1  0.37008643  0.87357623  0.49709521  1
  V  V43  1  0.12188757  0.87297045  0.74995838  1
  V  V44  1  0.50310933  0.75201345  0.25294578  1
  V  V45  1  0.49404369  0.38192733  0.37946720  1
  V  V46  1  0.87427190  0.50387512  0.87092560  1
  V  V47  1  -0.00329388  0.24440236  0.73389388  1
  V  V48  1  -0.00034562  0.74025918  0.74317581  1
  V  V49  1  0.00056924  0.24919452  0.24043985  1
  V  V50  1  0.62781664  0.12345830  0.00146503  1
  V  V51  1  0.62746241  -0.01941380  0.62876661  1
  V  V52  1  0.24980436  0.12589868  0.37034162  1
  V  V53  1  0.37343723  0.50039547  0.87552308  1
  V  V54  1  0.13231463  0.75377360  0.37968511  1
  V  V55  1  0.12488437  0.25665067  0.36793644  1
  V  V56  1  0.13110456  0.87533065  0.24465270  1
  V  V57  1  0.87184867  0.36917801  0.49605553  1
  V  V58  1  0.62650244  0.87446685  0.25384719  1
  V  V59  1  0.87007645  0.50608421  0.37359899  1
  V  V60  1  0.12484826  0.63350234  0.50915733  1
  V  V61  1  0.62739672  -0.00226579  0.12628662  1
  V  V62  1  0.50277904  0.50359910  0.00218162  1
  V  V63  1  0.25609158  0.12189069  0.87589478  1
  V  V64  1  0.73668416  0.62435108  0.87865552  1
  V  V65  1  0.87924746  0.12234883  0.24292793  1
  V  V66  1  0.75700640  -0.00091949  0.25445877  1
  V  V67  1  0.50239792  0.62723713  0.12201709  1
  V  V68  1  0.62320286  0.37341607  0.25154187  1
  V  V69  1  -0.00390793  0.75248395  0.24415613  1
  V  V70  1  0.37382547  0.24860849  0.62113540  1
  V  V71  1  0.75134721  -0.01817350  0.74759223  1
  V  V72  1  0.87301591  0.37389704  0.00005643  1
  V  V73  1  0.63029119  0.12761448  0.51188976  1
  V  V74  1  0.61940433  0.77069351  0.87799079  1
  V  V75  1  0.11230244  0.12192929  -0.00031619  1
  V  V76  1  0.50392329  0.87302010  0.37709316  1
  V  V77  1  0.12662123  0.49498830  0.62366110  1
  V  V78  1  0.74889616  0.50109415  0.25105398  1
  V  V79  1  0.50296538  0.61696585  0.62895863  1
  V  V80  1  0.49648334  0.24688395  0.25457225  1
  V  V81  1  0.25010846  0.49139967  0.74649198  1
  V  V82  1  0.74185408  0.63849195  0.37756462  1
  V  V83  1  0.75298969  0.86487635  0.12577398  1
  V  V84  1  0.50003289  0.37232795  0.87195033  1
  Zn  Zn85  1  0.50121782  -0.00487960  -0.00187683  1
  Zn  Zn86  1  0.74624755  0.50434037  0.74333900  1
  Zn  Zn87  1  0.73628334  0.76088125  0.50460861  1
  Zn  Zn88  1  -0.00140328  0.62535707  0.12629033  1
  Zn  Zn89  1  0.50388034  0.24120261  0.73692416  1
  Zn  Zn90  1  0.24590434  0.25631145  0.50541614  1
  Zn  Zn91  1  0.38216145  0.12434806  0.74556249  1
  Zn  Zn92  1  0.50427955  0.75907062  0.75439410  1
  Zn  Zn93  1  0.49771602  0.50105771  0.50251523  1
  Zn  Zn94  1  0.24829351  0.75225734  0.00411133  1
  Zn  Zn95  1  0.87481319  0.62212903  0.74661276  1
  Zn  Zn96  1  0.24827261  0.62316572  0.87868409  1
  Zn  Zn97  1  0.86937637  0.24009961  0.60969695  1
  Zn  Zn98  1  0.22626520  0.49675192  0.24663667  1
  Zn  Zn99  1  0.35580587  0.38947022  0.50685068  1
  Zn  Zn100  1  0.12687022  0.37001543  0.74399986  1
  Zn  Zn101  1  0.12466622  0.24761915  0.86923601  1
  Zn  Zn102  1  0.74848689  0.74388996  0.00394544  1
  Zn  Zn103  1  0.87637235  0.24384774  0.12036441  1
  Zn  Zn104  1  0.87771276  0.11885427  0.73585897  1
  Zn  Zn105  1  0.87778894  -0.00039174  0.87675010  1
  Zn  Zn106  1  0.22717974  0.37724848  0.13144743  1
  Zn  Zn107  1  0.18649863  0.18476146  0.18631076  1
  Zn  Zn108  1  0.18980870  0.18783405  0.68667913  1
  Zn  Zn109  1  0.18569302  0.68124260  0.19324932  1
  Zn  Zn110  1  0.18954589  0.68467753  0.68761193  1
  Zn  Zn111  1  0.68917062  0.18789675  0.18926803  1
  Zn  Zn112  1  0.69282072  0.19353506  0.68750750  1
  Zn  Zn113  1  0.68246069  0.68749051  0.19046205  1
  Zn  Zn114  1  0.68646211  0.69243299  0.69482301  1
  Zn  Zn115  1  0.31253550  0.31225509  0.31662916  1
  Zn  Zn116  1  0.31422231  0.30836596  0.80862431  1
  Zn  Zn117  1  0.31292389  0.81254381  0.31227823  1
  Zn  Zn118  1  0.30441061  0.80831782  0.81162235  1
  Zn  Zn119  1  0.81393948  0.31187257  0.31037737  1
  Zn  Zn120  1  0.81307744  0.31375803  0.80574067  1
  Zn  Zn121  1  0.81493022  0.81443863  0.31612597  1
  Zn  Zn122  1  0.81502252  0.80497329  0.81785558  1
  Zn  Zn123  1  0.18295621  0.44092216  0.43606899  1
  Zn  Zn124  1  0.18613896  0.43453185  0.93701993  1
  Zn  Zn125  1  0.18513656  0.94080605  0.43544359  1
  Zn  Zn126  1  0.19036074  0.93442263  0.94172599  1
  Zn  Zn127  1  0.68028558  0.44433310  0.44039416  1
  Zn  Zn128  1  0.68596327  0.44089931  0.93451105  1
  Zn  Zn129  1  0.68745378  0.94149437  0.43726717  1
  Zn  Zn130  1  0.69476469  0.93857931  0.94120534  1
  Zn  Zn131  1  0.31130962  0.06568310  0.06260776  1
  Zn  Zn132  1  0.30862518  0.06910874  0.56353770  1
  Zn  Zn133  1  0.31333253  0.56497758  0.06309623  1
  Zn  Zn134  1  0.31216091  0.56211577  0.56055311  1
  Zn  Zn135  1  0.81496073  0.05548374  0.06148394  1
  Zn  Zn136  1  0.80916739  0.05887043  0.56584805  1
  Zn  Zn137  1  0.81280712  0.56022039  0.05964442  1
  Zn  Zn138  1  0.80762100  0.56248857  0.56182025  1
  Zn  Zn139  1  0.37104133  0.43523794  0.18952035  1
  Zn  Zn140  1  0.43322074  0.43226734  0.68511817  1
  Zn  Zn141  1  0.43735629  0.93877898  0.18842469  1
  Zn  Zn142  1  0.43519457  0.94520608  0.66691229  1
  Zn  Zn143  1  1.05564989  0.43908630  0.18637520  1
  Zn  Zn144  1  0.93397988  0.43308999  0.68338463  1
  Zn  Zn145  1  0.93679539  0.93676223  0.18787110  1
  Zn  Zn146  1  0.93562546  0.93310836  0.68625711  1
  Zn  Zn147  1  0.06239827  0.06288033  0.31143732  1
  Zn  Zn148  1  0.06399418  0.06672381  0.81329347  1
  Zn  Zn149  1  0.05822761  0.57168503  0.32105369  1
  Zn  Zn150  1  0.06311367  0.56040543  0.81557099  1
  Zn  Zn151  1  0.56646615  0.06285003  0.31481873  1
  Zn  Zn152  1  0.57151189  0.06500724  0.80621391  1
  Zn  Zn153  1  0.56370206  0.56398423  0.31264081  1
  Zn  Zn154  1  0.55849048  0.56294461  0.81088038  1
  Zn  Zn155  1  0.43885610  0.18990767  0.44271976  1
  Zn  Zn156  1  0.44231388  0.18032672  0.93207780  1
  Zn  Zn157  1  0.43683884  0.68887245  0.44126636  1
  Zn  Zn158  1  0.43965121  0.69334671  0.93959091  1
  Zn  Zn159  1  0.93950321  0.18731429  0.42936588  1
  Zn  Zn160  1  0.93513168  0.18861699  0.92991125  1
  Zn  Zn161  1  0.93815059  0.69129418  0.43480023  1
  Zn  Zn162  1  0.93632529  0.68872539  0.93785679  1
  Zn  Zn163  1  0.05912102  0.30564614  0.05455460  1
  Zn  Zn164  1  0.06130717  0.31788038  0.55422400  1
  Zn  Zn165  1  0.06407229  0.81434174  0.06411602  1
  Zn  Zn166  1  0.05630204  0.81339272  0.56378589  1
  Zn  Zn167  1  0.56046051  0.31270337  0.06237875  1
  Zn  Zn168  1  0.55924918  0.30815282  0.56321328  1
  Zn  Zn169  1  0.56136430  0.81106526  0.05818312  1
  Zn  Zn170  1  0.55506844  0.80581818  0.56034762  1
  O  O171  1  0.12758666  0.11193422  0.11617002  1
  O  O172  1  0.12972393  0.11551018  0.61360722  1
  O  O173  1  0.12083727  0.63029183  0.11237644  1
  O  O174  1  0.12642291  0.62014048  0.61421762  1
  O  O175  1  0.62181991  0.11843577  0.12116797  1
  O  O176  1  0.63492917  0.12210755  0.61395228  1
  O  O177  1  0.61078345  0.61927132  0.13079855  1
  O  O178  1  0.61357000  0.63440710  0.62232715  1
  O  O179  1  0.39332299  0.36551901  0.38107460  1
  O  O180  1  0.38278865  0.37762261  0.87945144  1
  O  O181  1  0.37788931  0.88510580  0.38171150  1
  O  O182  1  0.37444179  0.87439795  0.88262976  1
  O  O183  1  0.87656830  0.38648674  0.37745577  1
  O  O184  1  0.87772446  0.38127348  0.88088025  1
  O  O185  1  0.89036420  0.86957710  0.38395783  1
  O  O186  1  0.88370546  0.87437454  0.88300419  1
  O  O187  1  0.25541509  0.00590772  0.36714920  1
  O  O188  1  0.24197790  0.00307746  0.86198902  1
  O  O189  1  0.24193668  0.51610141  0.37009525  1
  O  O190  1  0.25686765  0.50165003  0.86908724  1
  O  O191  1  0.74536395  0.00820413  0.36167773  1
  O  O192  1  0.74840836  0.00595496  0.86140603  1
  O  O193  1  0.75408942  0.50883195  0.37136864  1
  O  O194  1  0.75672329  0.50897130  0.87296564  1
  O  O195  1  0.27615822  0.48820219  0.13461136  1
  O  O196  1  0.23893971  0.50750662  0.63489679  1
  O  O197  1  0.24599256  1.00578594  0.13788413  1
  O  O198  1  0.24209861  0.99355262  0.63414374  1
  O  O199  1  0.74337402  0.49508273  0.12880230  1
  O  O200  1  0.75607731  0.48356467  0.62773998  1
  O  O201  1  0.74571870  0.98950803  0.13557820  1
  O  O202  1  0.73859148  0.99317995  0.63470126  1
  O  O203  1  -0.00729145  0.36837861  0.25981061  1
  O  O204  1  0.00049232  0.36550619  0.75343697  1
  O  O205  1  0.00793750  0.87258420  0.25683527  1
  O  O206  1  0.00525024  0.86497139  0.75649942  1
  O  O207  1  0.50895306  0.36261940  0.26403805  1
  O  O208  1  0.50609360  0.37172608  0.75752618  1
  O  O209  1  0.50393489  0.87127411  0.25797846  1
  O  O210  1  0.48350443  0.88307705  0.75818695  1
  O  O211  1  0.50846000  0.13065877  0.23898389  1
  O  O212  1  0.49198982  0.13465735  0.77710738  1
  O  O213  1  0.49718184  0.63701692  0.24824005  1
  O  O214  1  0.48733375  0.62769184  0.74649802  1
  O  O215  1  0.98939248  0.13455095  0.25878355  1
  O  O216  1  0.99798494  0.14063884  0.75375320  1
  O  O217  1  0.98756149  0.63616560  0.25181381  1
  O  O218  1  0.99799873  0.63732606  0.75700395  1
  O  O219  1  0.36803804  0.24901719  0.00460516  1
  O  O220  1  0.37002285  0.24903819  0.50891957  1
  O  O221  1  0.37342289  0.75734706  0.01237840  1
  O  O222  1  0.37783311  0.76589038  0.50869538  1
  O  O223  1  0.86824416  0.25617699  -0.00200973  1
  O  O224  1  0.87924613  0.26580935  0.49003044  1
  O  O225  1  0.86943935  0.76545491  -0.00465444  1
  O  O226  1  0.87604626  0.75587329  0.51046262  1
  O  O227  1  0.12035503  0.24248195  0.48711187  1
  O  O228  1  0.13334918  0.23880170  0.99607818  1
  O  O229  1  0.11797235  0.74522276  0.49321706  1
  O  O230  1  0.12502393  0.74412243  0.99384058  1
  O  O231  1  0.62319526  0.23955718  0.49123416  1
  O  O232  1  0.63101979  0.24460869  0.99360988  1
  O  O233  1  0.62282497  0.73846265  0.49995592  1
  O  O234  1  0.62944938  0.75313771  0.98606545  1
  O  O235  1  0.49930512  0.24024213  0.13295021  1
  O  O236  1  0.48645631  0.24541102  0.62185039  1
  O  O237  1  0.49413360  0.74495071  0.13276472  1
  O  O238  1  0.48521958  0.74837763  0.63373944  1
  O  O239  1  0.99621763  0.25098187  0.13684269  1
  O  O240  1  0.99769374  0.25643484  0.63185999  1
  O  O241  1  1.00415196  0.75032573  0.14037960  1
  O  O242  1  0.98964595  0.75198178  0.63433937  1
  O  O243  1  0.00581733  0.26037867  0.36491891  1
  O  O244  1  -0.00043543  0.26157217  0.86622190  1
  O  O245  1  0.01088549  0.75825110  0.36579955  1
  O  O246  1  0.00821899  0.75786511  0.86876491  1
  O  O247  1  0.51075169  0.25032727  0.36982980  1
  O  O248  1  0.50720266  0.26418144  0.88320469  1
  O  O249  1  0.49136948  0.76560491  0.36893320  1
  O  O250  1  0.51452414  0.75042747  0.87523994  1
  O  O251  1  0.23610747  0.12338469  0.48698774  1
  O  O252  1  0.24349532  0.13257556  0.99548198  1
  O  O253  1  0.23886340  0.62660843  0.49337202  1
  O  O254  1  0.24211230  0.62853035  0.99893340  1
  O  O255  1  0.74211798  0.11440452  0.48806073  1
  O  O256  1  0.74635199  0.12777856  0.99364666  1
  O  O257  1  0.74098558  0.62892126  0.49406503  1
  O  O258  1  0.75606881  0.62572547  0.98436083  1
  O  O259  1  0.25504936  0.36104119  -0.00014535  1
  O  O260  1  0.24613499  0.36826294  0.48821479  1
  O  O261  1  0.26734425  0.86967345  -0.00324719  1
  O  O262  1  0.25517045  0.88386656  0.50973545  1
  O  O263  1  0.75389559  0.36993174  -0.00027920  1
  O  O264  1  0.75424222  0.38176862  0.50675244  1
  O  O265  1  0.75874831  0.87113595  0.01125406  1
  O  O266  1  0.76522111  0.87590512  0.48971952  1
  O  O267  1  0.11465142  0.51172843  0.24715257  1
  O  O268  1  0.13127071  0.50201636  0.74127747  1
  O  O269  1  0.12976706  0.99538976  0.24003265  1
  O  O270  1  0.12910375  0.99643693  0.74137359  1
  O  O271  1  0.62975348  0.49393180  0.24352047  1
  O  O272  1  0.62392272  0.48641198  0.75408117  1
  O  O273  1  0.63309685  0.99462620  0.24382735  1
  O  O274  1  0.63408782  0.99881819  0.73611349  1
  O  O275  1  0.36631076  -0.00489420  0.25978641  1
  O  O276  1  0.37073755  -0.00600981  0.75759207  1
  O  O277  1  0.39401007  0.51975134  0.26087662  1
  O  O278  1  0.36845670  0.50577405  0.75458374  1
  O  O279  1  0.86798425  0.00627904  0.24925954  1
  O  O280  1  0.86319289  -0.00161640  0.74979764  1
  O  O281  1  0.86615196  0.51282711  0.26448657  1
  O  O282  1  0.87621964  0.49929887  0.76081306  1
  O  O283  1  0.11255942  0.36800198  0.37452160  1
  O  O284  1  0.11330208  0.37220087  0.87029363  1
  O  O285  1  0.11783996  0.87136479  0.36902720  1
  O  O286  1  0.11924579  0.86780285  0.87172289  1
  O  O287  1  0.62392220  0.36569559  0.37029267  1
  O  O288  1  0.61865586  0.37159587  0.86752577  1
  O  O289  1  0.61357500  0.88278241  0.36956211  1
  O  O290  1  0.62674511  0.86951220  0.87830688  1
  O  O291  1  0.38606970  0.13480712  0.12110491  1
  O  O292  1  0.37439066  0.13413557  0.62743679  1
  O  O293  1  0.38562826  0.63360085  0.13587226  1
  O  O294  1  0.37768494  0.63501445  0.63259090  1
  O  O295  1  0.86792113  0.12483943  0.13774922  1
  O  O296  1  0.87317468  0.12831564  0.62224349  1
  O  O297  1  0.87220544  0.62175406  0.13901214  1
  O  O298  1  0.87271554  0.63845322  0.62464983  1
  O  O299  1  0.25929985  0.24835867  0.11920160  1
  O  O300  1  0.26292065  0.24457717  0.62197491  1
  O  O301  1  0.26273822  0.74475581  0.13035578  1
  O  O302  1  0.26024339  0.76093527  0.63103690  1
  O  O303  1  0.74988454  0.25750990  0.11733945  1
  O  O304  1  0.75420480  0.26991122  0.62654562  1
  O  O305  1  0.74510079  0.76132371  0.12813614  1
  O  O306  1  0.76313137  0.75096530  0.62478320  1
  O  O307  1  0.24102615  0.24097670  0.37139149  1
  O  O308  1  0.24778706  0.24205640  0.88132094  1
  O  O309  1  0.23649120  0.74743936  0.37061697  1
  O  O310  1  0.23307060  0.74629455  0.87500402  1
  O  O311  1  0.73885297  0.24140056  0.36699725  1
  O  O312  1  0.74607279  0.24313140  0.87627799  1
  O  O313  1  0.75227653  0.74122726  0.37922513  1
  O  O314  1  0.73876345  0.73885324  0.87609393  1
  O  O315  1  0.01260461  0.12881186  -0.00956691  1
  O  O316  1  0.01002521  0.11681401  0.48910661  1
  O  O317  1  0.00471850  0.61658497  0.00077186  1
  O  O318  1  0.00897766  0.61740172  0.49017168  1
  O  O319  1  0.50974230  0.12140612  0.01029406  1
  O  O320  1  0.51278673  0.11168032  0.48894909  1
  O  O321  1  0.49254471  0.61686025  0.01055379  1
  O  O322  1  0.50404353  0.62937884  0.51224325  1
  O  O323  1  0.51065594  0.37662961  0.48444957  1
  O  O324  1  0.49563829  0.38211905  0.99216163  1
  O  O325  1  0.49262082  0.88520528  0.49400944  1
  O  O326  1  0.48097022  0.87635169  1.00466655  1
  O  O327  1  0.99043538  0.38608869  0.48708915  1
  O  O328  1  0.99062779  0.37873012  0.98898974  1
  O  O329  1  0.99436910  0.88299453  0.49240151  1
  O  O330  1  0.99034774  0.87026143  0.99367339  1
  O  O331  1  0.50681745  0.48349312  0.37244064  1
  O  O332  1  0.49476989  0.49084487  0.88064454  1
  O  O333  1  0.49234072  0.99371913  0.37871543  1
  O  O334  1  0.50009390  0.99554147  0.87764092  1
  O  O335  1  0.98929846  0.49628412  0.38146070  1
  O  O336  1  0.99267537  0.48957465  0.87926028  1
  O  O337  1  1.00738182  0.99049715  0.38477467  1
  O  O338  1  1.00101268  0.98546062  0.86660558  1
  O  O339  1  0.01213847  0.00126882  0.12771774  1
  O  O340  1  0.01150771  -0.00706880  0.61680311  1
  O  O341  1  -0.00967443  0.50179453  0.10847193  1
  O  O342  1  0.00188677  0.49862893  0.61232236  1
  O  O343  1  0.50841151  0.00691523  0.12698724  1
  O  O344  1  0.51534520  0.00331509  0.61586987  1
  O  O345  1  0.50106059  0.50954101  0.11665276  1
  O  O346  1  0.49685203  0.51463962  0.63144788  1
  O  O347  1  0.27305154  0.38543559  0.24239886  1
  O  O348  1  0.24693805  0.38757474  0.75514795  1
  O  O349  1  0.23749111  0.88415903  0.25710777  1
  O  O350  1  0.24213606  0.88114050  0.74166317  1
  O  O351  1  0.74434166  0.38080966  0.24406298  1
  O  O352  1  0.74181042  0.37924229  0.74043297  1
  O  O353  1  0.74877499  0.88086274  0.24735592  1
  O  O354  1  0.75321893  0.88374846  0.75670346  1
  O  O355  1  0.24567936  0.11623415  0.26206709  1
  O  O356  1  0.25291216  0.11493290  0.75730807  1
  O  O357  1  0.26020353  0.62298225  0.25889088  1
  O  O358  1  0.26064545  0.61737028  0.75311213  1
  O  O359  1  0.75576173  0.11671237  0.25520774  1
  O  O360  1  0.75045778  0.11818427  0.75581884  1
  O  O361  1  0.75234931  0.62317464  0.25847580  1
  O  O362  1  0.75315616  0.62224303  0.76266269  1
  O  O363  1  0.36746486  0.11369716  0.38226264  1
  O  O364  1  0.35929209  0.12191513  0.87966762  1
  O  O365  1  0.36240304  0.63953734  0.36972961  1
  O  O366  1  0.37481922  0.62115020  0.86897254  1
  O  O367  1  0.86183284  0.13046043  0.36476015  1
  O  O368  1  0.86344792  0.11994822  0.87172288  1
  O  O369  1  0.86489065  0.62213459  0.37128988  1
  O  O370  1  0.86919616  0.61740652  0.87221211  1
  O  O371  1  0.11718880  0.37514942  0.11817797  1
  O  O372  1  0.11984501  0.39084344  0.62305841  1
  O  O373  1  0.12398597  0.88794724  0.13244869  1
  O  O374  1  0.13049976  0.88105225  0.62812208  1
  O  O375  1  0.62768966  0.38014175  0.13165295  1
  O  O376  1  0.63398685  0.37221285  0.62854950  1
  O  O377  1  0.63197990  0.87994934  0.13119429  1
  O  O378  1  0.62022183  0.88271206  0.62115057  1
  O  O379  1  0.11658603  0.24335145  0.25950846  1
  O  O380  1  0.11294262  0.25063855  0.74781095  1
  O  O381  1  0.12035971  0.75901095  0.25588746  1
  O  O382  1  0.11827831  0.75297132  0.75426307  1
  O  O383  1  0.61720709  0.25305787  0.25656563  1
  O  O384  1  0.62363523  0.26088002  0.75624835  1
  O  O385  1  0.61111645  0.75835881  0.24922551  1
  O  O386  1  0.62144106  0.74963003  0.76978902  1
  O  O387  1  0.38957493  0.24910527  0.24374514  1
  O  O388  1  0.37732058  0.24814126  0.73751256  1
  O  O389  1  0.38502263  0.74885577  0.24465502  1
  O  O390  1  0.37466465  0.74286684  0.74599522  1
  O  O391  1  0.88245114  0.24198414  0.24702628  1
  O  O392  1  0.88861338  0.24937826  0.74649430  1
  O  O393  1  0.88331366  0.74354134  0.25635780  1
  O  O394  1  0.88122929  0.74956809  0.73870873  1
  O  O395  1  0.38396497  0.49938227  0.50474617  1
  O  O396  1  0.38464834  0.49379472  0.99336918  1
  O  O397  1  0.38225498  0.99373860  0.49732640  1
  O  O398  1  0.37631021  0.98773129  1.00774411  1
  O  O399  1  0.87888495  0.49810995  0.49025956  1
  O  O400  1  0.88025472  0.49306332  0.98772475  1
  O  O401  1  0.88662791  0.99201850  0.50473305  1
  O  O402  1  0.86922243  0.98007444  0.99431796  1
  O  O403  1  0.13042863  0.00418630  0.01372283  1
  O  O404  1  0.11637188  0.00634383  0.50569402  1
  O  O405  1  0.11516433  0.50847079  -0.00770100  1
  O  O406  1  0.11537132  0.51039981  0.50570639  1
  O  O407  1  0.62620550  0.00450250  0.01002504  1
  O  O408  1  0.62117723  0.00388717  0.51103830  1
  O  O409  1  0.61073904  0.49414821  0.00582848  1
  O  O410  1  0.61607051  0.51932990  0.49893235  1
  O  O411  1  0.39081649  0.35373416  0.11259730  1
  O  O412  1  0.37743679  0.35893249  0.62059204  1
  O  O413  1  0.37402229  0.86797131  0.12078089  1
  O  O414  1  0.36477689  0.87155104  0.61692209  1
  O  O415  1  0.86569722  0.37330974  0.10542192  1
  O  O416  1  0.86669012  0.37173288  0.61058139  1
  O  O417  1  0.86975195  0.87638845  0.11582546  1
  O  O418  1  0.88019277  0.86264405  0.61325988  1
  O  O419  1  0.13089192  0.13150986  0.37909629  1
  O  O420  1  0.13636731  0.12412636  0.88316814  1
  O  O421  1  0.13198541  0.63690783  0.38525255  1
  O  O422  1  0.12286665  0.63214859  0.88629751  1
  O  O423  1  0.63528320  0.13050483  0.38121896  1
  O  O424  1  0.63783524  0.12915666  0.88155446  1
  O  O425  1  0.63397340  0.62457830  0.38152189  1
  O  O426  1  0.63587750  0.61856625  0.87643647  1
