# generated using pymatgen
data_V85Zn86O256
_symmetry_space_group_name_H-M   'P 1'
_cell_length_a   16.96080222
_cell_length_b   16.97866144
_cell_length_c   16.99266904
_cell_angle_alpha   90.01485188
_cell_angle_beta   89.93394463
_cell_angle_gamma   89.96621685
_symmetry_Int_Tables_number   1
_chemical_formula_structural   V85Zn86O256
_chemical_formula_sum   'V85 Zn86 O256'
_cell_volume   4893.40384001
_cell_formula_units_Z   1
loop_
 _symmetry_equiv_pos_site_id
 _symmetry_equiv_pos_as_xyz
  1  'x, y, z'
loop_
 _atom_site_type_symbol
 _atom_site_label
 _atom_site_symmetry_multiplicity
 _atom_site_fract_x
 _atom_site_fract_y
 _atom_site_fract_z
 _atom_site_occupancy
  V  V0  1  0.50453119  0.01239354  -0.00305928  1
  V  V1  1  0.37435127  0.37340746  0.49983187  1
  V  V2  1  0.87767426  0.62844995  0.25005469  1
  V  V3  1  0.23887906  0.24088389  0.50089315  1
  V  V4  1  0.12896493  0.62821784  -0.00323968  1
  V  V5  1  -0.01534469  0.49037626  0.50453213  1
  V  V6  1  0.11895828  0.02313476  0.11525859  1
  V  V7  1  0.13266954  0.49689027  0.13904550  1
  V  V8  1  0.24991132  0.62880225  0.87337785  1
  V  V9  1  0.24890267  0.62076129  0.37078283  1
  V  V10  1  0.93020193  0.43940529  0.33180436  1
  V  V11  1  0.50091529  0.12322170  0.62426868  1
  V  V12  1  0.87612475  0.12042041  0.74650083  1
  V  V13  1  0.11690690  0.25359840  0.36432708  1
  V  V14  1  0.10892551  0.75682292  0.36419593  1
  V  V15  1  0.87234411  0.75877461  0.63086225  1
  V  V16  1  0.73817337  0.12149443  0.87932182  1
  V  V17  1  0.00437601  0.49853350  -0.00317646  1
  V  V18  1  0.93592056  0.05061383  0.92679464  1
  V  V19  1  0.50646795  0.62477441  0.62347197  1
  V  V20  1  0.75070048  0.38360441  0.62628369  1
  V  V21  1  0.31651319  0.05736117  0.92589575  1
  V  V22  1  0.75279890  0.51178762  0.75954809  1
  V  V23  1  -0.00130554  0.37734508  0.87120196  1
  V  V24  1  0.49847057  0.37608973  0.87429855  1
  V  V25  1  0.75588433  0.62373275  0.37737664  1
  V  V26  1  0.37387084  0.87635975  0.49578320  1
  V  V27  1  0.50045948  0.37501192  0.37767225  1
  V  V28  1  0.87542993  0.87561087  -0.00578318  1
  V  V29  1  0.00415372  0.62789136  0.13173954  1
  V  V30  1  0.62666503  0.37957575  0.74660848  1
  V  V31  1  0.12399185  0.49948923  0.62262920  1
  V  V32  1  0.75256699  -0.00321419  0.74697146  1
  V  V33  1  0.62210362  0.24826238  0.37680959  1
  V  V34  1  0.24877799  0.87322610  0.62556746  1
  V  V35  1  0.62647652  0.50231945  0.12553017  1
  V  V36  1  0.00180595  0.85803828  0.87476406  1
  V  V37  1  0.62344687  0.37271080  0.25138774  1
  V  V38  1  0.62688519  0.62297217  0.49933862  1
  V  V39  1  0.62687171  0.87558692  0.24565134  1
  V  V40  1  0.12237489  0.62420339  0.49980251  1
  V  V41  1  0.87551225  0.25439512  0.62281917  1
  V  V42  1  0.23290808  0.87280678  0.12814107  1
  V  V43  1  0.00404166  0.12532055  0.61780612  1
  V  V44  1  0.74861806  0.87567829  0.11666270  1
  V  V45  1  0.50175633  0.24787336  0.74901054  1
  V  V46  1  0.74868796  0.37481919  0.11956386  1
  V  V47  1  0.62856389  0.74964610  0.37122123  1
  V  V48  1  0.24809172  0.74911060  0.49569348  1
  V  V49  1  0.37433987  0.75934126  0.12560307  1
  V  V50  1  0.37172982  0.49842923  0.37138797  1
  V  V51  1  0.88281246  0.24941386  0.12288828  1
  V  V52  1  0.63063243  -0.00854808  0.62091738  1
  V  V53  1  0.25974102  0.75311099  -0.00216101  1
  V  V54  1  0.49466063  0.87464337  0.37100691  1
  V  V55  1  0.24792376  0.37151339  0.14360343  1
  V  V56  1  0.49622256  -0.00090323  0.49508378  1
  V  V57  1  -0.00587405  0.63089118  0.62869531  1
  V  V58  1  0.12666727  0.00235701  0.62039501  1
  V  V59  1  0.75382043  0.25372117  0.50222776  1
  V  V60  1  0.37125113  0.61666491  0.24703158  1
  V  V61  1  0.50466269  0.50039362  0.50270511  1
  V  V62  1  0.49846629  0.49523201  0.00418579  1
  V  V63  1  0.00397375  -0.00511447  0.49580227  1
  V  V64  1  0.13147851  0.23837890  0.87922853  1
  V  V65  1  0.25592841  0.00269119  0.74968828  1
  V  V66  1  0.24093006  -0.00476399  0.25887210  1
  V  V67  1  0.12642993  0.37410875  0.75049757  1
  V  V68  1  0.37636654  0.24876798  0.62302233  1
  V  V69  1  0.61887748  0.01485293  0.12116712  1
  V  V70  1  0.62556132  0.12428201  0.50118804  1
  V  V71  1  0.36277695  0.37277472  -0.00226099  1
  V  V72  1  0.25043173  0.37520716  0.62421168  1
  V  V73  1  0.62280432  0.87636681  0.75393077  1
  V  V74  1  0.75060630  0.00464732  0.24878820  1
  V  V75  1  0.12170413  0.86299583  0.75209375  1
  V  V76  1  0.49897610  0.62645926  0.12592460  1
  V  V77  1  0.48374036  0.87880874  0.88257829  1
  V  V78  1  0.37579218  0.74852458  0.62101662  1
  V  V79  1  0.75082998  0.76058968  0.49978300  1
  V  V80  1  0.88163441  -0.00014669  0.37465567  1
  V  V81  1  0.88910445  0.12656599  0.24700109  1
  V  V82  1  0.74819698  0.49637930  0.25817272  1
  V  V83  1  0.37723132  0.62415191  0.74861270  1
  V  V84  1  0.38019451  0.11647580  0.25537978  1
  Zn  Zn85  1  0.24732533  0.23575831  0.00069397  1
  Zn  Zn86  1  0.87139665  0.37699837  -0.00533816  1
  Zn  Zn87  1  -0.06909007  0.68286327  0.79106145  1
  Zn  Zn88  1  0.90707171  0.78409660  0.14294362  1
  Zn  Zn89  1  0.24901977  0.11931280  0.38049064  1
  Zn  Zn90  1  0.74416104  0.24137238  0.00457244  1
  Zn  Zn91  1  0.50133388  0.75430186  0.74984648  1
  Zn  Zn92  1  0.87308597  0.51802531  0.87628357  1
  Zn  Zn93  1  0.37912533  0.24410150  0.12584344  1
  Zn  Zn94  1  0.63351419  0.62496174  -0.00964116  1
  Zn  Zn95  1  0.37205433  0.12329481  0.75238648  1
  Zn  Zn96  1  0.00189954  0.24837536  0.74770295  1
  Zn  Zn97  1  0.75484704  0.73887720  -0.00465152  1
  Zn  Zn98  1  0.87690331  0.87649839  0.49982128  1
  Zn  Zn99  1  0.62432351  0.24921526  0.88303717  1
  Zn  Zn100  1  0.37402322  0.50072010  0.87340893  1
  Zn  Zn101  1  0.50083617  0.75065091  0.24793265  1
  Zn  Zn102  1  0.62920786  0.75042270  0.88021484  1
  Zn  Zn103  1  0.50229188  0.23670011  0.24252995  1
  Zn  Zn104  1  0.75251743  0.12570524  0.37589690  1
  Zn  Zn105  1  0.00178839  0.26206625  0.24909274  1
  Zn  Zn106  1  0.25192987  0.50017438  0.74915491  1
  Zn  Zn107  1  0.19147940  0.18698994  0.19428296  1
  Zn  Zn108  1  0.18789650  0.18647630  0.68948937  1
  Zn  Zn109  1  0.18833377  0.68584668  0.18874139  1
  Zn  Zn110  1  0.18851027  0.68559034  0.68472807  1
  Zn  Zn111  1  0.69147146  0.18879836  0.18848312  1
  Zn  Zn112  1  0.68748509  0.18622634  0.68877899  1
  Zn  Zn113  1  0.69124009  0.68784867  0.18152542  1
  Zn  Zn114  1  0.68825185  0.69323305  0.68646614  1
  Zn  Zn115  1  0.31576395  0.30253937  0.31715973  1
  Zn  Zn116  1  0.31198538  0.30980009  0.81175253  1
  Zn  Zn117  1  0.30968416  0.80867938  0.30877404  1
  Zn  Zn118  1  0.31252229  0.81046918  0.80997317  1
  Zn  Zn119  1  0.80800355  0.30520767  0.30957327  1
  Zn  Zn120  1  0.81287045  0.30915097  0.81039382  1
  Zn  Zn121  1  0.84800680  0.83235541  0.29163221  1
  Zn  Zn122  1  0.80681144  0.81812690  0.81891364  1
  Zn  Zn123  1  0.18502397  0.43561087  0.43749140  1
  Zn  Zn124  1  0.18625410  0.44258639  0.93331219  1
  Zn  Zn125  1  0.18156782  0.93222500  0.43733407  1
  Zn  Zn126  1  0.17881043  0.93049303  0.94177909  1
  Zn  Zn127  1  0.68989934  0.43614785  0.44075982  1
  Zn  Zn128  1  0.68306061  0.43796741  0.93469933  1
  Zn  Zn129  1  0.68765799  0.93798756  0.43033791  1
  Zn  Zn130  1  0.68533699  0.93893482  0.93400915  1
  Zn  Zn131  1  0.31485277  0.05686218  0.08686665  1
  Zn  Zn132  1  0.31582107  0.06130169  0.56517652  1
  Zn  Zn133  1  0.31306792  0.56010777  0.06267737  1
  Zn  Zn134  1  0.31324491  0.56099404  0.56012340  1
  Zn  Zn135  1  0.81224177  0.06344685  0.06695190  1
  Zn  Zn136  1  0.81415336  0.06488780  0.56136070  1
  Zn  Zn137  1  0.81742919  0.56049080  0.06333466  1
  Zn  Zn138  1  0.81191867  0.56865750  0.56946887  1
  Zn  Zn139  1  0.44038459  0.42139165  0.18356307  1
  Zn  Zn140  1  0.43868438  0.43910826  0.68517669  1
  Zn  Zn141  1  0.43581688  0.94129439  0.18558156  1
  Zn  Zn142  1  0.43849973  0.93643732  0.68431125  1
  Zn  Zn143  1  0.93667402  0.44181924  0.16883951  1
  Zn  Zn144  1  0.93414909  0.44007777  0.68975346  1
  Zn  Zn145  1  0.94891733  0.94627293  0.18496474  1
  Zn  Zn146  1  0.94025416  0.93424346  0.68882721  1
  Zn  Zn147  1  0.06996530  0.06963129  0.31625958  1
  Zn  Zn148  1  0.06906857  0.05993712  0.80052566  1
  Zn  Zn149  1  0.06499384  0.56747427  0.31488759  1
  Zn  Zn150  1  0.06845543  0.56147264  0.81283822  1
  Zn  Zn151  1  0.56496989  0.05987923  0.31444132  1
  Zn  Zn152  1  0.55975668  0.05839840  0.81143767  1
  Zn  Zn153  1  0.56181208  0.56214797  0.31275918  1
  Zn  Zn154  1  0.56635372  0.56036241  0.80929872  1
  Zn  Zn155  1  0.43322636  0.18415012  0.43324536  1
  Zn  Zn156  1  0.43959025  0.19505594  0.94084913  1
  Zn  Zn157  1  0.43767878  0.68848266  0.43369181  1
  Zn  Zn158  1  0.46695288  0.67419621  0.92233461  1
  Zn  Zn159  1  0.93956073  0.18581100  0.43687428  1
  Zn  Zn160  1  0.93457512  0.21069604  0.93359766  1
  Zn  Zn161  1  0.93448851  0.68416378  0.44232228  1
  Zn  Zn162  1  0.93367716  0.68933937  0.95928703  1
  Zn  Zn163  1  0.06795952  0.31242696  0.05986012  1
  Zn  Zn164  1  0.06116859  0.31373039  0.56161318  1
  Zn  Zn165  1  0.06722219  0.81202745  0.05419056  1
  Zn  Zn166  1  0.06144502  0.81190438  0.56092405  1
  Zn  Zn167  1  0.56211210  0.30528149  0.06317388  1
  Zn  Zn168  1  0.56618252  0.31423558  0.56465564  1
  Zn  Zn169  1  0.56261987  0.81599746  0.05670009  1
  Zn  Zn170  1  0.56349895  0.81145586  0.56033387  1
  O  O171  1  0.13357150  0.12243854  0.12019765  1
  O  O172  1  0.11579954  0.11497537  0.63188756  1
  O  O173  1  0.12605180  0.61175595  0.12018914  1
  O  O174  1  0.12066757  0.62131883  0.61409736  1
  O  O175  1  0.62446170  0.11396933  0.13271569  1
  O  O176  1  0.61910339  0.11620027  0.62017392  1
  O  O177  1  0.61291375  0.61628772  0.13162086  1
  O  O178  1  0.61222940  0.63181427  0.61846357  1
  O  O179  1  0.38084562  0.37778428  0.38072063  1
  O  O180  1  0.38048763  0.37645797  0.87983136  1
  O  O181  1  0.38823066  0.86602447  0.37709791  1
  O  O182  1  0.38561779  0.87928052  0.86776744  1
  O  O183  1  0.86904218  0.37778146  0.37908194  1
  O  O184  1  0.88947502  0.37163839  0.87352709  1
  O  O185  1  0.86875249  0.89599144  0.38334210  1
  O  O186  1  0.88736499  0.87722474  0.88341643  1
  O  O187  1  0.24138895  -0.00302353  0.36300111  1
  O  O188  1  0.25094096  -0.00308972  0.87042031  1
  O  O189  1  0.25540293  0.51197459  0.38316040  1
  O  O190  1  0.25492706  0.51384778  0.87096542  1
  O  O191  1  0.75513711  0.00504798  0.36494795  1
  O  O192  1  0.74587358  0.01254761  0.86225814  1
  O  O193  1  0.74401997  0.50578849  0.36597512  1
  O  O194  1  0.75170135  0.49932458  0.86440083  1
  O  O195  1  0.23895991  0.48995494  0.12255776  1
  O  O196  1  0.24247852  0.49326565  0.62335039  1
  O  O197  1  0.23859007  0.98884749  0.13549166  1
  O  O198  1  0.24398832  0.99357519  0.62899730  1
  O  O199  1  0.74865184  0.49135725  0.13989241  1
  O  O200  1  0.75649697  0.48693220  0.63166563  1
  O  O201  1  0.73955274  0.99688252  0.12916865  1
  O  O202  1  0.73983081  1.00766488  0.63121127  1
  O  O203  1  -0.01625578  0.38586287  0.26309244  1
  O  O204  1  0.00852089  0.37538300  0.75403828  1
  O  O205  1  -0.05502195  0.84868335  0.23273041  1
  O  O206  1  0.00738926  0.87812271  0.76312937  1
  O  O207  1  0.50924221  0.38314182  0.26734037  1
  O  O208  1  0.50560580  0.37139804  0.75400648  1
  O  O209  1  0.50476999  0.87592527  0.25647870  1
  O  O210  1  0.50691043  0.88087131  0.75813378  1
  O  O211  1  0.48659924  0.11955155  0.25866774  1
  O  O212  1  0.49848623  0.13213420  0.74462140  1
  O  O213  1  0.49261494  0.62475010  0.24009409  1
  O  O214  1  0.49406292  0.62513425  0.73747548  1
  O  O215  1  0.99054282  0.13038196  0.25277746  1
  O  O216  1  0.99194804  0.12357767  0.73739363  1
  O  O217  1  0.99075081  0.61787137  0.24531240  1
  O  O218  1  1.01194623  0.62417643  0.73352274  1
  O  O219  1  0.36777729  0.25831850  0.00439606  1
  O  O220  1  0.36995598  0.25594532  0.50480151  1
  O  O221  1  0.36311114  0.73915875  0.01267022  1
  O  O222  1  0.36910468  0.75502951  0.50179886  1
  O  O223  1  0.86456571  0.25719282  0.00835665  1
  O  O224  1  0.86464102  0.24401494  0.50860932  1
  O  O225  1  0.87449443  0.76560453  0.02006517  1
  O  O226  1  0.86594592  0.75334532  0.50536055  1
  O  O227  1  0.13776099  0.24841011  0.50554187  1
  O  O228  1  0.12838409  0.24997879  0.98432969  1
  O  O229  1  0.12915901  0.74000951  0.49488142  1
  O  O230  1  0.14020057  0.73383679  1.00591890  1
  O  O231  1  0.62994348  0.24481938  0.49531216  1
  O  O232  1  0.63194674  0.25532299  0.99616109  1
  O  O233  1  0.63151534  0.74296758  0.49371691  1
  O  O234  1  0.62805887  0.74547947  1.00127575  1
  O  O235  1  0.48655040  0.28685108  0.14091643  1
  O  O236  1  0.49767193  0.24486776  0.63063971  1
  O  O237  1  0.49133015  0.74204714  0.12484518  1
  O  O238  1  0.49256808  0.74262335  0.62328329  1
  O  O239  1  0.98701970  0.26462249  0.12746412  1
  O  O240  1  0.99318121  0.24324878  0.62449480  1
  O  O241  1  1.00957393  0.73063855  0.11802006  1
  O  O242  1  0.98560567  0.74341997  0.61669023  1
  O  O243  1  0.01202891  0.24945299  0.37449438  1
  O  O244  1  0.01282617  0.26091980  0.86823555  1
  O  O245  1  0.01045983  0.74117819  0.38004927  1
  O  O246  1  -0.00496109  0.75744591  0.87211256  1
  O  O247  1  0.51083069  0.25518741  0.37755156  1
  O  O248  1  0.49977839  0.26094619  0.86669310  1
  O  O249  1  0.50969157  0.75661813  0.37246449  1
  O  O250  1  0.49843940  0.77124171  0.86957971  1
  O  O251  1  0.25681383  0.13810346  0.50283523  1
  O  O252  1  0.26387587  0.11506253  0.99159350  1
  O  O253  1  0.24191846  0.62907456  0.49461949  1
  O  O254  1  0.24726593  0.62724189  0.99235483  1
  O  O255  1  0.74272867  0.13701822  0.50093027  1
  O  O256  1  0.75492926  0.12028744  0.98157429  1
  O  O257  1  0.74547309  0.62839442  0.49309728  1
  O  O258  1  0.74309154  0.62600718  1.01907249  1
  O  O259  1  0.25876474  0.37767168  -0.00359428  1
  O  O260  1  0.25521821  0.36558607  0.50759247  1
  O  O261  1  0.24478634  0.86240989  0.01050588  1
  O  O262  1  0.25500392  0.86911580  0.50452020  1
  O  O263  1  0.74944236  0.38361975  0.01238324  1
  O  O264  1  0.74254273  0.36294257  0.51201486  1
  O  O265  1  0.75822600  0.88166636  0.00218360  1
  O  O266  1  0.74632527  0.86279385  0.49616561  1
  O  O267  1  0.12347087  0.50233229  0.23719268  1
  O  O268  1  0.12856881  0.48897912  0.74209089  1
  O  O269  1  0.13735406  1.00724495  0.24223229  1
  O  O270  1  0.13578086  0.98908440  0.73829939  1
  O  O271  1  0.63221246  0.49436737  0.24673785  1
  O  O272  1  0.63652659  0.48986022  0.75252802  1
  O  O273  1  0.63269425  0.99547510  0.24476911  1
  O  O274  1  0.62965017  0.99402206  0.73982094  1
  O  O275  1  0.36200048  0.00817636  0.24531997  1
  O  O276  1  0.36078690  -0.00079682  0.74147311  1
  O  O277  1  0.38228444  0.50956304  0.25579186  1
  O  O278  1  0.37371584  0.51289365  0.74659194  1
  O  O279  1  0.87046917  0.01016276  0.25543722  1
  O  O280  1  0.86665853  0.01108188  0.73755766  1
  O  O281  1  0.87172252  0.49809074  0.26189967  1
  O  O282  1  0.85828118  0.49766192  0.75421667  1
  O  O283  1  0.13035628  0.35264196  0.38511532  1
  O  O284  1  0.11835921  0.37296095  0.86583699  1
  O  O285  1  0.12412720  0.85560905  0.37726391  1
  O  O286  1  0.11141980  0.87414542  0.86774580  1
  O  O287  1  0.62133721  0.36633667  0.37354519  1
  O  O288  1  0.61612610  0.37251935  0.86374032  1
  O  O289  1  0.61678592  0.86940192  0.36648095  1
  O  O290  1  0.61379899  0.87978373  0.86448357  1
  O  O291  1  0.37447768  0.12931294  0.14553924  1
  O  O292  1  0.38476362  0.13193725  0.62687869  1
  O  O293  1  0.37760986  0.62855329  0.13309745  1
  O  O294  1  0.38343635  0.62937045  0.62661268  1
  O  O295  1  0.86963732  0.13722398  0.13380246  1
  O  O296  1  0.88018867  0.13463991  0.63027576  1
  O  O297  1  0.89270319  0.60716324  0.13810978  1
  O  O298  1  0.88342998  0.63914546  0.62535034  1
  O  O299  1  0.24818617  0.26442690  0.12194300  1
  O  O300  1  0.25500836  0.25376891  0.61729501  1
  O  O301  1  0.25533741  0.75488821  0.12228647  1
  O  O302  1  0.25630460  0.75269307  0.61513117  1
  O  O303  1  0.75822649  0.26056114  0.12688262  1
  O  O304  1  0.75599093  0.25617220  0.62086019  1
  O  O305  1  0.74661899  0.77279260  0.12640904  1
  O  O306  1  0.76324157  0.74420568  0.61410220  1
  O  O307  1  0.24570929  0.24905023  0.39164310  1
  O  O308  1  0.23569829  0.25227632  0.87533846  1
  O  O309  1  0.24641938  0.73747979  0.38030971  1
  O  O310  1  0.25884310  0.73830444  0.88309426  1
  O  O311  1  0.73870087  0.24933702  0.38418617  1
  O  O312  1  0.75112649  0.23230534  0.87146555  1
  O  O313  1  0.74356314  0.73997721  0.38343886  1
  O  O314  1  0.74351566  0.75499325  0.88142461  1
  O  O315  1  -0.01396136  0.11648825  -0.01968071  1
  O  O316  1  -0.00414475  0.11589777  0.51300134  1
  O  O317  1  0.01203781  0.61679477  0.00923518  1
  O  O318  1  0.00606675  0.61611409  0.50920603  1
  O  O319  1  0.49809918  0.11184183  -0.00639099  1
  O  O320  1  0.50411173  0.11598360  0.50213481  1
  O  O321  1  0.49067885  0.61185274  0.01762936  1
  O  O322  1  0.50426924  0.61912077  0.50340616  1
  O  O323  1  0.49773500  0.38250382  0.49693568  1
  O  O324  1  0.48959731  0.37961313  0.99113382  1
  O  O325  1  0.49597510  0.87996976  0.49158538  1
  O  O326  1  0.49673424  0.88562813  0.98720571  1
  O  O327  1  0.99869413  0.39147318  0.50667994  1
  O  O328  1  1.00376390  0.38293924  0.98969149  1
  O  O329  1  0.99982779  0.89137778  0.50385394  1
  O  O330  1  0.99597902  0.87117886  0.98485322  1
  O  O331  1  0.49390150  0.49721088  0.38622373  1
  O  O332  1  0.49744024  0.48735130  0.88091011  1
  O  O333  1  0.50699589  0.98948970  0.38774912  1
  O  O334  1  0.50199324  0.99322903  0.88623343  1
  O  O335  1  0.99668907  0.50016017  0.38698896  1
  O  O336  1  1.00247332  0.49363996  0.88067115  1
  O  O337  1  0.99541664  1.00969497  0.38385650  1
  O  O338  1  1.00129896  0.99528101  0.87111329  1
  O  O339  1  0.01919829  0.00938431  0.12987757  1
  O  O340  1  0.00810562  0.00586776  0.62019344  1
  O  O341  1  0.01647490  0.50327079  0.11638815  1
  O  O342  1  0.00236773  0.50655678  0.61807294  1
  O  O343  1  0.50411941  -0.00603140  0.10707625  1
  O  O344  1  0.50741907  0.00349952  0.61309743  1
  O  O345  1  0.50361260  0.50100253  0.11932901  1
  O  O346  1  0.49507086  0.50874199  0.61069441  1
  O  O347  1  0.25640573  0.37191782  0.24116715  1
  O  O348  1  0.24449547  0.37638391  0.74213721  1
  O  O349  1  0.25405110  0.88717590  0.24435169  1
  O  O350  1  0.24446807  0.87942059  0.74380701  1
  O  O351  1  0.74323076  0.37944213  0.24511780  1
  O  O352  1  0.74283851  0.37847057  0.74517413  1
  O  O353  1  0.75104512  0.89033890  0.24070615  1
  O  O354  1  0.74193191  0.89101734  0.75292881  1
  O  O355  1  0.25710547  0.11097286  0.25415754  1
  O  O356  1  0.25233100  0.11148098  0.74606038  1
  O  O357  1  0.25807183  0.62388584  0.25960077  1
  O  O358  1  0.25802688  0.62592668  0.75569598  1
  O  O359  1  0.75701154  0.11483945  0.25053510  1
  O  O360  1  0.75701652  0.11798177  0.75618111  1
  O  O361  1  0.75399017  0.61202519  0.25517167  1
  O  O362  1  0.74117181  0.60905578  0.74337837  1
  O  O363  1  0.36702943  0.12364130  0.36364536  1
  O  O364  1  0.37430784  0.12319045  0.87209946  1
  O  O365  1  0.36817945  0.62059162  0.36776502  1
  O  O366  1  0.37581163  0.62372668  0.86292917  1
  O  O367  1  0.87241788  0.11888003  0.36687242  1
  O  O368  1  0.87630097  0.11922660  0.86654629  1
  O  O369  1  0.86241457  0.62527293  0.36980238  1
  O  O370  1  0.88949985  0.62941431  0.87761163  1
  O  O371  1  0.13734778  0.38543401  0.12234545  1
  O  O372  1  0.12971203  0.37847490  0.63170755  1
  O  O373  1  0.13168033  0.86999245  0.12939919  1
  O  O374  1  0.13002581  0.88044966  0.62962560  1
  O  O375  1  0.63262005  0.38325463  0.13305655  1
  O  O376  1  0.63444584  0.37086264  0.63806422  1
  O  O377  1  0.62926589  0.88640803  0.12970916  1
  O  O378  1  0.61802443  0.88696706  0.63011193  1
  O  O379  1  0.12136395  0.25437011  0.25884997  1
  O  O380  1  0.12502187  0.26174636  0.75443420  1
  O  O381  1  0.12511749  0.73924686  0.26619751  1
  O  O382  1  0.13019555  0.76396175  0.74282806  1
  O  O383  1  0.62296602  0.25286346  0.26014848  1
  O  O384  1  0.61307741  0.25579828  0.75042592  1
  O  O385  1  0.62534309  0.75690555  0.25383170  1
  O  O386  1  0.62288171  0.76687168  0.74554895  1
  O  O387  1  0.37706923  0.23340383  0.25201731  1
  O  O388  1  0.38678791  0.25026102  0.74299241  1
  O  O389  1  0.37690148  0.73638603  0.24230811  1
  O  O390  1  0.37720351  0.73898132  0.74026362  1
  O  O391  1  0.87740118  0.24308988  0.24354581  1
  O  O392  1  0.87706604  0.23660324  0.74222170  1
  O  O393  1  0.85420904  0.72691047  0.24134010  1
  O  O394  1  0.86857139  0.76029258  0.73515833  1
  O  O395  1  0.38178852  0.49291595  0.49255182  1
  O  O396  1  0.38433764  0.49211761  0.99878853  1
  O  O397  1  0.38543770  0.99051979  0.50436757  1
  O  O398  1  0.37660320  1.00675665  0.99318733  1
  O  O399  1  0.88585863  0.50449370  0.50552782  1
  O  O400  1  0.89195772  0.49608535  0.99851625  1
  O  O401  1  0.88341636  1.00280899  0.49293104  1
  O  O402  1  0.87671102  0.99795483  0.99294777  1
  O  O403  1  0.13051157  -0.00110451  0.01773734  1
  O  O404  1  0.12126750  -0.00229510  0.51219302  1
  O  O405  1  0.11953502  0.50838326  0.00434225  1
  O  O406  1  0.11671249  0.50719495  0.50429222  1
  O  O407  1  0.61267094  0.00062340  0.00598128  1
  O  O408  1  0.62132358  0.00313864  0.50491317  1
  O  O409  1  0.61129648  0.50006132  0.00538276  1
  O  O410  1  0.61552514  0.50803908  0.49498218  1
  O  O411  1  0.35560846  0.38102116  0.11593902  1
  O  O412  1  0.37065430  0.36927834  0.61964830  1
  O  O413  1  0.36766870  0.86144490  0.13177069  1
  O  O414  1  0.36960682  0.86698218  0.61778794  1
  O  O415  1  0.86399432  0.36991149  0.12187250  1
  O  O416  1  0.86760258  0.36083526  0.63333601  1
  O  O417  1  0.86423482  0.89406664  0.10525056  1
  O  O418  1  0.87895683  0.86288185  0.61929348  1
  O  O419  1  0.13329450  0.14488393  0.37618133  1
  O  O420  1  0.12094980  0.14129272  0.86328299  1
  O  O421  1  0.13163598  0.62761231  0.38530951  1
  O  O422  1  0.13704278  0.62206521  0.88372505  1
  O  O423  1  0.62706945  0.13273866  0.38220582  1
  O  O424  1  0.63609873  0.12695887  0.86745408  1
  O  O425  1  0.63415270  0.62977940  0.37751700  1
  O  O426  1  0.58198090  0.63859457  0.88609337  1
