# generated using pymatgen
data_V85Zn86O256
_symmetry_space_group_name_H-M   'P 1'
_cell_length_a   16.96413891
_cell_length_b   16.98335214
_cell_length_c   16.95449578
_cell_angle_alpha   90.09888442
_cell_angle_beta   89.97019066
_cell_angle_gamma   89.95732819
_symmetry_Int_Tables_number   1
_chemical_formula_structural   V85Zn86O256
_chemical_formula_sum   'V85 Zn86 O256'
_cell_volume   4884.71564235
_cell_formula_units_Z   1
loop_
 _symmetry_equiv_pos_site_id
 _symmetry_equiv_pos_as_xyz
  1  'x, y, z'
loop_
 _atom_site_type_symbol
 _atom_site_label
 _atom_site_symmetry_multiplicity
 _atom_site_fract_x
 _atom_site_fract_y
 _atom_site_fract_z
 _atom_site_occupancy
  V  V0  1  0.50005229  0.49960338  0.00032453  1
  V  V1  1  0.11823858  0.63340482  0.49512368  1
  V  V2  1  0.24889824  0.37492637  0.62588649  1
  V  V3  1  0.12191179  0.25399174  0.37615130  1
  V  V4  1  0.88446667  0.13331620  0.73562380  1
  V  V5  1  0.49116684  0.75036005  0.24898517  1
  V  V6  1  0.62395516  0.12518418  0.50757947  1
  V  V7  1  0.88454809  0.49538625  0.37318942  1
  V  V8  1  0.36413956  0.76657074  0.10945745  1
  V  V9  1  0.24473485  0.62675881  0.87712559  1
  V  V10  1  0.75234388  0.49544322  0.24540007  1
  V  V11  1  0.25501232  0.24465397  0.50378161  1
  V  V12  1  0.74909676  0.62226874  0.86826648  1
  V  V13  1  0.49313035  0.61098812  0.61719101  1
  V  V14  1  0.87634292  0.62294237  0.74103529  1
  V  V15  1  0.01175940  0.37343764  0.86771207  1
  V  V16  1  0.87316026  0.87535821  -0.00073163  1
  V  V17  1  0.24192640  0.25150514  -0.00175193  1
  V  V18  1  0.62804008  0.49685538  0.12408636  1
  V  V19  1  0.87499021  0.37709901  0.00492489  1
  V  V20  1  0.62756147  0.25297416  0.87372969  1
  V  V21  1  0.01187754  0.86992851  0.37435521  1
  V  V22  1  0.50048185  0.12693053  0.12487818  1
  V  V23  1  0.88106254  0.12335535  0.24270914  1
  V  V24  1  0.50125813  -0.00784554  -0.01414242  1
  V  V25  1  0.00764987  0.74869053  0.25266006  1
  V  V26  1  0.49485737  0.24574202  0.75199311  1
  V  V27  1  0.24476430  0.49582493  0.74771438  1
  V  V28  1  0.00417240  0.25191645  0.24837388  1
  V  V29  1  0.74582396  0.75008243  -0.00168599  1
  V  V30  1  0.51203743  0.74479669  0.75768777  1
  V  V31  1  0.26015129  0.13045162  0.86888995  1
  V  V32  1  0.63063597  0.49723541  0.63189501  1
  V  V33  1  0.06386834  0.17274049  0.54814601  1
  V  V34  1  0.87965536  0.36840736  0.49840361  1
  V  V35  1  0.62558641  -0.00036514  0.12585414  1
  V  V36  1  0.62304407  0.25030888  0.37597333  1
  V  V37  1  0.13103450  0.37945547  0.25420367  1
  V  V38  1  0.37340408  0.37264317  0.00193442  1
  V  V39  1  0.75439556  0.12774472  0.86946046  1
  V  V40  1  0.62428129  0.74678247  0.37380383  1
  V  V41  1  0.75034427  -0.00294043  0.72745281  1
  V  V42  1  0.38635094  0.37855488  0.50106385  1
  V  V43  1  0.36718259  0.74516384  0.62385386  1
  V  V44  1  0.62467146  0.87414937  0.25040116  1
  V  V45  1  -0.00520311  0.00671310  0.00951694  1
  V  V46  1  0.61776782  0.60993527  0.49283648  1
  V  V47  1  0.88003137  0.25121157  0.12536569  1
  V  V48  1  0.36819668  0.88006760  0.51449441  1
  V  V49  1  0.49593652  0.62694963  0.12606913  1
  V  V50  1  0.00185335  0.50103276  0.00301755  1
  V  V51  1  0.25149108  -0.00559392  0.24280235  1
  V  V52  1  0.12003454  0.12817796  -0.00325093  1
  V  V53  1  0.74997496  0.12579853  0.37250796  1
  V  V54  1  0.75075784  0.62276348  0.37386337  1
  V  V55  1  0.12397414  0.63470407  0.00077911  1
  V  V56  1  0.37404067  0.50058594  0.87443286  1
  V  V57  1  0.49550013  0.12344518  0.62586856  1
  V  V58  1  0.56027979  -0.05065168  0.56510596  1
  V  V59  1  0.86759641  0.87284198  0.50020352  1
  V  V60  1  0.86665913  0.75467775  0.62828341  1
  V  V61  1  0.25374882  0.00526761  0.74932919  1
  V  V62  1  0.87617557  0.74857449  0.12707571  1
  V  V63  1  0.50037291  0.87911744  0.38064194  1
  V  V64  1  0.75229077  0.25547347  0.00467821  1
  V  V65  1  0.50160713  0.37480069  0.87295857  1
  V  V66  1  0.12183812  0.51093582  0.62716622  1
  V  V67  1  0.00407195  -0.00506941  0.50238554  1
  V  V68  1  0.13597544  0.50202947  0.12890431  1
  V  V69  1  0.87184359  0.49871724  0.87102867  1
  V  V70  1  0.12686202  0.87629684  0.74848261  1
  V  V71  1  0.75968115  0.37187527  0.63291601  1
  V  V72  1  0.37872440  0.00095692  0.38351484  1
  V  V73  1  0.24325661  0.75451843  0.49290899  1
  V  V74  1  0.87891800  -0.00176677  0.37201756  1
  V  V75  1  0.62809184  0.37228534  0.24485951  1
  V  V76  1  0.24418169  0.12368403  0.37850818  1
  V  V77  1  -0.00323301  0.74867631  0.74461592  1
  V  V78  1  0.12453660  -0.00316593  0.62274248  1
  V  V79  1  0.62723415  0.12714965  -0.00066969  1
  V  V80  1  0.37301599  0.62486583  0.74561583  1
  V  V81  1  0.87526079  0.00317571  0.87183117  1
  V  V82  1  0.62448850  0.62819419  -0.00455904  1
  V  V83  1  0.37550850  0.12774438  0.25400607  1
  V  V84  1  -0.00041603  0.50087514  0.50540880  1
  Zn  Zn85  1  0.75246040  -0.00057137  0.24759004  1
  Zn  Zn86  1  0.35020049  0.60755867  0.24105049  1
  Zn  Zn87  1  0.74872926  0.87374258  0.12697916  1
  Zn  Zn88  1  0.37379305  0.24602125  0.63216994  1
  Zn  Zn89  1  0.75420549  0.24945929  0.50468118  1
  Zn  Zn90  1  -0.00873620  0.87303283  0.87004339  1
  Zn  Zn91  1  0.12598260  0.00114244  0.12234155  1
  Zn  Zn92  1  0.00701017  0.24542021  0.75843693  1
  Zn  Zn93  1  0.25601967  0.37651825  0.13238241  1
  Zn  Zn94  1  0.87660447  0.62502360  0.25047846  1
  Zn  Zn95  1  0.24700086  0.62030143  0.36946141  1
  Zn  Zn96  1  0.11828436  0.75410458  0.87683181  1
  Zn  Zn97  1  0.61860356  0.88468468  0.75755946  1
  Zn  Zn98  1  0.13304980  0.87135387  0.24217630  1
  Zn  Zn99  1  0.49910439  0.25196640  0.25152832  1
  Zn  Zn100  1  0.00013720  0.62367988  0.12835969  1
  Zn  Zn101  1  0.37807678  0.50546182  0.36768480  1
  Zn  Zn102  1  0.74683446  0.74978898  0.50166889  1
  Zn  Zn103  1  0.63064465  0.37810922  0.75144145  1
  Zn  Zn104  1  0.37328355  0.24981805  0.12608399  1
  Zn  Zn105  1  0.34669104  -0.05262146  0.91921821  1
  Zn  Zn106  1  0.50662953  0.38576435  0.38053722  1
  Zn  Zn107  1  0.18847067  0.18520919  0.18236559  1
  Zn  Zn108  1  0.17995041  0.19450921  0.69330895  1
  Zn  Zn109  1  0.18997913  0.69104811  0.18427962  1
  Zn  Zn110  1  0.18638565  0.68773764  0.68711422  1
  Zn  Zn111  1  0.69248437  0.18894841  0.18686811  1
  Zn  Zn112  1  0.68846084  0.19115100  0.68828105  1
  Zn  Zn113  1  0.68617603  0.68542404  0.18592522  1
  Zn  Zn114  1  0.69006299  0.67931895  0.68121781  1
  Zn  Zn115  1  0.31249764  0.31436854  0.31805179  1
  Zn  Zn116  1  0.31083153  0.31227381  0.81516686  1
  Zn  Zn117  1  0.31677635  0.81243101  0.31836219  1
  Zn  Zn118  1  0.29281739  0.82363403  0.85007863  1
  Zn  Zn119  1  0.81187192  0.31363379  0.31330718  1
  Zn  Zn120  1  0.81985264  0.31203023  0.81200051  1
  Zn  Zn121  1  0.81399433  0.81187779  0.31365722  1
  Zn  Zn122  1  0.77595401  0.82889588  0.82609581  1
  Zn  Zn123  1  0.18986116  0.43712685  0.44024954  1
  Zn  Zn124  1  0.18785783  0.44175843  0.94067063  1
  Zn  Zn125  1  0.19046519  0.93757621  0.43819218  1
  Zn  Zn126  1  0.17500929  0.93935483  0.93518242  1
  Zn  Zn127  1  0.69380934  0.43480224  0.43770520  1
  Zn  Zn128  1  0.68924777  0.43797558  0.93848041  1
  Zn  Zn129  1  0.69204714  0.93857305  0.43133621  1
  Zn  Zn130  1  0.68455744  0.93925948  0.93405527  1
  Zn  Zn131  1  0.31477582  0.06782400  0.06106580  1
  Zn  Zn132  1  0.31144246  0.06143442  0.56873539  1
  Zn  Zn133  1  0.31275129  0.56819714  0.06138640  1
  Zn  Zn134  1  0.29946234  0.55219012  0.53626454  1
  Zn  Zn135  1  0.81063748  0.06530310  0.06282139  1
  Zn  Zn136  1  0.81892065  0.06659863  0.55573862  1
  Zn  Zn137  1  0.81267285  0.56444820  0.06270371  1
  Zn  Zn138  1  0.80918743  0.55765295  0.55987972  1
  Zn  Zn139  1  0.44108354  0.43741411  0.19206410  1
  Zn  Zn140  1  0.43648753  0.43458572  0.68647608  1
  Zn  Zn141  1  0.43805804  0.94067567  0.18694881  1
  Zn  Zn142  1  0.41100388  0.90702569  0.72952347  1
  Zn  Zn143  1  0.94403565  0.43449091  0.18847649  1
  Zn  Zn144  1  0.93506272  0.44279113  0.68796361  1
  Zn  Zn145  1  0.94024877  0.93263134  0.18704720  1
  Zn  Zn146  1  0.93534767  0.93745129  0.68521692  1
  Zn  Zn147  1  0.06431596  0.06348672  0.31375124  1
  Zn  Zn148  1  0.06432809  0.06347939  0.81755080  1
  Zn  Zn149  1  0.06533702  0.56514681  0.31270547  1
  Zn  Zn150  1  0.05794732  0.56165934  0.81195303  1
  Zn  Zn151  1  0.56182987  0.06213339  0.31448381  1
  Zn  Zn152  1  0.56966598  0.06538279  0.80653146  1
  Zn  Zn153  1  0.55484326  0.55793304  0.30999928  1
  Zn  Zn154  1  0.56222115  0.56326738  0.81091236  1
  Zn  Zn155  1  0.43982315  0.18831982  0.44204885  1
  Zn  Zn156  1  0.43743401  0.18670544  0.93891472  1
  Zn  Zn157  1  0.43206292  0.68392392  0.43356638  1
  Zn  Zn158  1  0.43440205  0.68859062  0.93526699  1
  Zn  Zn159  1  0.93497820  0.19003191  0.42687272  1
  Zn  Zn160  1  0.94028132  0.19051676  0.93399882  1
  Zn  Zn161  1  0.93709282  0.68578788  0.43846913  1
  Zn  Zn162  1  0.93595526  0.68742825  0.93365822  1
  Zn  Zn163  1  0.06316544  0.31563567  0.06490968  1
  Zn  Zn164  1  0.05396997  0.33001236  0.60685299  1
  Zn  Zn165  1  0.06143486  0.81953852  0.06695321  1
  Zn  Zn166  1  0.05634826  0.81253579  0.56820267  1
  Zn  Zn167  1  0.56220325  0.31265455  0.06373636  1
  Zn  Zn168  1  0.56838257  0.30820226  0.56760929  1
  Zn  Zn169  1  0.55922271  0.81265937  0.06135210  1
  Zn  Zn170  1  0.55998042  0.78640748  0.56623768  1
  O  O171  1  0.13405831  0.11830160  0.10527411  1
  O  O172  1  0.11388112  0.11900529  0.62005547  1
  O  O173  1  0.12162097  0.61892532  0.11629786  1
  O  O174  1  0.12801601  0.61623655  0.61578515  1
  O  O175  1  0.62113797  0.11945097  0.12151267  1
  O  O176  1  0.62213588  0.13044617  0.61257523  1
  O  O177  1  0.61915092  0.61832254  0.11438599  1
  O  O178  1  0.61923833  0.61383994  0.61347736  1
  O  O179  1  0.37824114  0.37163824  0.39265900  1
  O  O180  1  0.37962443  0.38123010  0.88493203  1
  O  O181  1  0.38347926  0.87836264  0.39265225  1
  O  O182  1  0.38717341  0.88059967  0.83716683  1
  O  O183  1  0.87025365  0.38561042  0.38296776  1
  O  O184  1  0.87992526  0.38193272  0.88632019  1
  O  O185  1  0.88211029  0.88199790  0.37948353  1
  O  O186  1  0.86819647  0.88628806  0.88194672  1
  O  O187  1  0.25758645  0.00920859  0.37128354  1
  O  O188  1  0.25090597  0.01705696  0.86518080  1
  O  O189  1  0.26904649  0.51348785  0.41975066  1
  O  O190  1  0.25327879  0.50593129  0.86635911  1
  O  O191  1  0.75731228  0.01169290  0.37062286  1
  O  O192  1  0.76051168  0.01615514  0.87405714  1
  O  O193  1  0.75675646  0.50455546  0.36366343  1
  O  O194  1  0.76375827  0.50736392  0.88413821  1
  O  O195  1  0.23835798  0.49726352  0.11729315  1
  O  O196  1  0.24739939  0.49610617  0.63073170  1
  O  O197  1  0.25805422  1.00524729  0.14111588  1
  O  O198  1  0.23003984  1.01141119  0.63120476  1
  O  O199  1  0.74706341  0.50617762  0.13842208  1
  O  O200  1  0.74241175  0.48625528  0.62152377  1
  O  O201  1  0.73720573  0.99945830  0.12570540  1
  O  O202  1  0.75145319  1.01010482  0.62959159  1
  O  O203  1  0.01174055  0.35979635  0.24785676  1
  O  O204  1  -0.00833359  0.37878996  0.76605984  1
  O  O205  1  -0.00086605  0.86752089  0.26003733  1
  O  O206  1  0.00218498  0.86759200  0.74883144  1
  O  O207  1  0.51593151  0.37050134  0.25238389  1
  O  O208  1  0.50350080  0.36857312  0.75765498  1
  O  O209  1  0.50901197  0.87013996  0.25521060  1
  O  O210  1  0.51044254  0.84936926  0.73960554  1
  O  O211  1  0.49296381  0.12518622  0.24348094  1
  O  O212  1  0.50874391  0.13348847  0.73960075  1
  O  O213  1  0.50782539  0.63552040  0.23520990  1
  O  O214  1  0.49124611  0.62357428  0.74055217  1
  O  O215  1  0.99262895  0.13712618  0.25588173  1
  O  O216  1  0.98802543  0.12581980  0.75518058  1
  O  O217  1  0.99649076  0.63403513  0.24978244  1
  O  O218  1  0.98661527  0.63265860  0.75387838  1
  O  O219  1  0.36625115  0.25837294  -0.00053945  1
  O  O220  1  0.36777825  0.25478928  0.50545136  1
  O  O221  1  0.37898868  0.74987164  0.01052862  1
  O  O222  1  0.36736847  0.75681412  0.50723487  1
  O  O223  1  0.87246152  0.25639040  0.00617830  1
  O  O224  1  0.87248176  0.26488937  0.48601008  1
  O  O225  1  0.87169839  0.75757860  0.00662099  1
  O  O226  1  0.87373259  0.75641982  0.50715398  1
  O  O227  1  0.12875862  0.24101898  0.49682928  1
  O  O228  1  0.13464473  0.24670965  1.00407906  1
  O  O229  1  0.12956538  0.74589294  0.51001427  1
  O  O230  1  0.11100018  0.73746764  0.99815879  1
  O  O231  1  0.63086414  0.24159613  0.49194857  1
  O  O232  1  0.63509397  0.24761420  0.99621378  1
  O  O233  1  0.62790312  0.73376988  0.49148052  1
  O  O234  1  0.63317198  0.74017081  1.00591688  1
  O  O235  1  0.49953303  0.23723032  0.12675044  1
  O  O236  1  0.50177949  0.24127312  0.63561509  1
  O  O237  1  0.49511158  0.74373980  0.13040413  1
  O  O238  1  0.48763183  0.72898052  0.63123750  1
  O  O239  1  0.98912040  0.25138739  0.13085629  1
  O  O240  1  0.99398334  0.23186413  0.58573515  1
  O  O241  1  0.99020873  0.74976227  0.13296858  1
  O  O242  1  0.98499580  0.74947202  0.63610561  1
  O  O243  1  0.01546327  0.24768313  0.36826382  1
  O  O244  1  0.00130877  0.26844958  0.87582515  1
  O  O245  1  -0.00809518  0.75890743  0.36583956  1
  O  O246  1  -0.00295320  0.75116915  0.86006853  1
  O  O247  1  0.51515196  0.24757112  0.37292609  1
  O  O248  1  0.50698865  0.25368014  0.87154914  1
  O  O249  1  0.50533477  0.75676974  0.36719189  1
  O  O250  1  0.50182463  0.73409254  0.85649140  1
  O  O251  1  0.25617825  0.13614345  0.49408655  1
  O  O252  1  0.24710291  0.13332652  0.98972937  1
  O  O253  1  0.23563578  0.64199577  0.50441819  1
  O  O254  1  0.23789823  0.61929782  0.98885873  1
  O  O255  1  0.74585877  0.12771371  0.49030248  1
  O  O256  1  0.74795191  0.13655634  0.99219561  1
  O  O257  1  0.74220688  0.62098181  0.48547008  1
  O  O258  1  0.74230722  0.62982324  0.99482150  1
  O  O259  1  0.25734254  0.36853478  -0.00134320  1
  O  O260  1  0.26058051  0.36175372  0.50738587  1
  O  O261  1  0.26298274  0.87606789  -0.04826276  1
  O  O262  1  0.25808586  0.86941840  0.50329833  1
  O  O263  1  0.75941161  0.36324734  -0.00440956  1
  O  O264  1  0.76184527  0.37403629  0.50907287  1
  O  O265  1  0.75864036  0.86763150  0.00403462  1
  O  O266  1  0.76364392  0.87236518  0.49115815  1
  O  O267  1  0.11569646  0.48982565  0.24191508  1
  O  O268  1  0.13359710  0.50706437  0.74151657  1
  O  O269  1  0.14300257  1.00547613  0.25024682  1
  O  O270  1  0.12377432  0.99548179  0.74233066  1
  O  O271  1  0.63294630  0.49291953  0.24394121  1
  O  O272  1  0.62514772  0.49982984  0.73659613  1
  O  O273  1  0.62518080  0.99247305  0.24298426  1
  O  O274  1  0.64604811  1.00071656  0.74988698  1
  O  O275  1  0.36896118  0.00975215  0.25795295  1
  O  O276  1  0.35103315  0.00507183  0.72727838  1
  O  O277  1  0.37010134  0.49526992  0.25166011  1
  O  O278  1  0.36937505  0.50730987  0.75402237  1
  O  O279  1  0.87669937  0.00779587  0.25238268  1
  O  O280  1  0.86887806  0.01150472  0.75433782  1
  O  O281  1  0.87051705  0.49778426  0.25515988  1
  O  O282  1  0.87644432  0.50927535  0.76052080  1
  O  O283  1  0.13076110  0.36629809  0.37032678  1
  O  O284  1  0.10977428  0.38632853  0.87655552  1
  O  O285  1  0.11398906  0.87941861  0.37046532  1
  O  O286  1  0.11010222  0.87380796  0.86204987  1
  O  O287  1  0.62728765  0.36512984  0.37027528  1
  O  O288  1  0.62096420  0.37080363  0.87415436  1
  O  O289  1  0.61990604  0.87001614  0.36971884  1
  O  O290  1  0.66742024  0.86288761  0.85691015  1
  O  O291  1  0.38467560  0.12650193  0.13458901  1
  O  O292  1  0.39188348  0.12728671  0.61896907  1
  O  O293  1  0.38329514  0.63352946  0.12681012  1
  O  O294  1  0.37828913  0.62241558  0.62661984  1
  O  O295  1  0.87185524  0.13228883  0.13664301  1
  O  O296  1  0.87661703  0.12390492  0.63719801  1
  O  O297  1  0.87708984  0.63715122  0.12565354  1
  O  O298  1  0.86522905  0.62631180  0.63684685  1
  O  O299  1  0.25447285  0.25316524  0.11384329  1
  O  O300  1  0.25147332  0.25672985  0.62050956  1
  O  O301  1  0.26571698  0.75350240  0.12583964  1
  O  O302  1  0.26314880  0.74568615  0.62184677  1
  O  O303  1  0.76504881  0.24687784  0.11596425  1
  O  O304  1  0.74690453  0.26703540  0.62230154  1
  O  O305  1  0.75638255  0.74866449  0.11525023  1
  O  O306  1  0.76110840  0.74519013  0.62012281  1
  O  O307  1  0.24141638  0.24453341  0.38495110  1
  O  O308  1  0.24852994  0.24181116  0.88108272  1
  O  O309  1  0.24988470  0.75322909  0.39059031  1
  O  O310  1  0.23524031  0.72832179  0.85842056  1
  O  O311  1  0.74162384  0.23863808  0.37306312  1
  O  O312  1  0.75071380  0.24313789  0.88040410  1
  O  O313  1  0.74313360  0.73949702  0.37409668  1
  O  O314  1  0.76199421  0.73470428  0.89276590  1
  O  O315  1  0.00622360  0.11935612  -0.00593629  1
  O  O316  1  0.00599070  0.11372895  0.48458500  1
  O  O317  1  0.00359536  0.61331282  -0.00146871  1
  O  O318  1  0.00281100  0.61311889  0.50001662  1
  O  O319  1  0.50970341  0.12220939  0.00745223  1
  O  O320  1  0.51191867  0.12663563  0.50934942  1
  O  O321  1  0.50635850  0.62188857  0.00706616  1
  O  O322  1  0.50683422  0.62925459  0.50624061  1
  O  O323  1  0.48856371  0.35997180  0.50230636  1
  O  O324  1  0.49358220  0.37854450  0.99356037  1
  O  O325  1  0.50042944  0.88125583  0.50629907  1
  O  O326  1  0.51013467  0.89328980  0.99776543  1
  O  O327  1  0.99144496  0.38875188  0.51444063  1
  O  O328  1  0.99516022  0.38455895  0.99301920  1
  O  O329  1  0.99205700  0.87907598  0.49164504  1
  O  O330  1  0.98411681  0.88326247  0.99628412  1
  O  O331  1  0.49443981  0.49822667  0.37877333  1
  O  O332  1  0.49467729  0.49562976  0.88067393  1
  O  O333  1  0.49132015  0.99215191  0.37246336  1
  O  O334  1  0.51240425  1.00706127  0.88708055  1
  O  O335  1  0.98853603  0.50267684  0.38145144  1
  O  O336  1  0.98941067  0.49355509  0.88301683  1
  O  O337  1  0.99794755  0.99231794  0.38178704  1
  O  O338  1  0.98397716  1.00102513  0.88107128  1
  O  O339  1  -0.00823586  0.00279574  0.11164518  1
  O  O340  1  0.00328265  -0.00148518  0.60932544  1
  O  O341  1  0.00680175  0.50128648  0.11640604  1
  O  O342  1  0.01054685  0.49909046  0.62070482  1
  O  O343  1  0.51070557  0.01017410  0.12022428  1
  O  O344  1  0.50734290  0.00571040  0.62984532  1
  O  O345  1  0.50592064  0.50885234  0.11878984  1
  O  O346  1  0.50868494  0.50637022  0.62843880  1
  O  O347  1  0.23598887  0.36647039  0.24940019  1
  O  O348  1  0.25627224  0.38704846  0.74335011  1
  O  O349  1  0.25311874  0.89194505  0.26102248  1
  O  O350  1  0.23165121  0.88727937  0.75619489  1
  O  O351  1  0.73927682  0.38240261  0.25300908  1
  O  O352  1  0.75385276  0.37298581  0.73765315  1
  O  O353  1  0.73709861  0.87598793  0.25015066  1
  O  O354  1  0.76437276  0.89657830  0.73335785  1
  O  O355  1  0.25891675  0.12018850  0.25837741  1
  O  O356  1  0.23878863  0.12471442  0.76208648  1
  O  O357  1  0.23760151  0.62246125  0.25570127  1
  O  O358  1  0.25565397  0.61299100  0.75183405  1
  O  O359  1  0.75905622  0.12322273  0.25638090  1
  O  O360  1  0.76077250  0.12242875  0.75379709  1
  O  O361  1  0.74985188  0.61717500  0.25926327  1
  O  O362  1  0.75554119  0.62897711  0.76383099  1
  O  O363  1  0.36896901  0.12231443  0.37151790  1
  O  O364  1  0.35977287  0.12946659  0.87584785  1
  O  O365  1  0.36928364  0.62860748  0.36164856  1
  O  O366  1  0.36526268  0.61863684  0.86732237  1
  O  O367  1  0.86812645  0.12024723  0.36365011  1
  O  O368  1  0.86952795  0.12264581  0.86754910  1
  O  O369  1  0.86564577  0.61530345  0.37361838  1
  O  O370  1  0.86823074  0.61578202  0.86922813  1
  O  O371  1  0.12747491  0.38435919  0.13378704  1
  O  O372  1  0.14439484  0.39679070  0.61232100  1
  O  O373  1  0.11992432  0.88833312  0.12979977  1
  O  O374  1  0.11694671  0.88654019  0.63456158  1
  O  O375  1  0.62302547  0.38342502  0.13174618  1
  O  O376  1  0.63640842  0.38180414  0.62550429  1
  O  O377  1  0.62438500  0.88266566  0.13308169  1
  O  O378  1  0.61465160  0.88113188  0.61601031  1
  O  O379  1  0.12082039  0.25213046  0.25600625  1
  O  O380  1  0.09795711  0.26876407  0.69887940  1
  O  O381  1  0.11072177  0.75351352  0.24433356  1
  O  O382  1  0.11426311  0.75834961  0.74400411  1
  O  O383  1  0.62763406  0.25638878  0.25560263  1
  O  O384  1  0.61828438  0.25387094  0.75857520  1
  O  O385  1  0.61705793  0.75715555  0.25225486  1
  O  O386  1  0.61238536  0.73603423  0.74198105  1
  O  O387  1  0.37643886  0.23944910  0.25191572  1
  O  O388  1  0.39036643  0.25430051  0.75256878  1
  O  O389  1  0.38738710  0.75558795  0.24444590  1
  O  O390  1  0.38110214  0.73130219  0.74161355  1
  O  O391  1  0.88217455  0.24708955  0.24436328  1
  O  O392  1  0.88232906  0.23742490  0.75007651  1
  O  O393  1  0.87991234  0.74951773  0.24113350  1
  O  O394  1  0.87693814  0.74257033  0.74245159  1
  O  O395  1  0.38643322  0.47754113  0.51645063  1
  O  O396  1  0.38028964  0.49435136  0.99511616  1
  O  O397  1  0.36950667  0.98958600  0.49936492  1
  O  O398  1  0.39578060  1.00972303  1.00022523  1
  O  O399  1  0.88076758  0.49378025  0.49254570  1
  O  O400  1  0.88139779  0.49369201  0.99745760  1
  O  O401  1  0.88322295  0.99320174  0.49269261  1
  O  O402  1  0.87490227  0.99628949  0.99345627  1
  O  O403  1  0.10944488  0.00788453  -0.00264314  1
  O  O404  1  0.11736401  -0.00617516  0.50783848  1
  O  O405  1  0.11695697  0.50656254  0.00874986  1
  O  O406  1  0.11515750  0.50862030  0.50614491  1
  O  O407  1  0.62224528  0.00736769  0.00636246  1
  O  O408  1  0.62358633  0.00370506  0.50161934  1
  O  O409  1  0.62026195  0.50521288  0.00587085  1
  O  O410  1  0.62933485  0.50677884  0.50581035  1
  O  O411  1  0.37790585  0.37279124  0.11216651  1
  O  O412  1  0.36572380  0.36859648  0.62008518  1
  O  O413  1  0.38280010  0.86495835  0.12407004  1
  O  O414  1  0.38282094  0.86073734  0.61999930  1
  O  O415  1  0.88079176  0.36908215  0.11240232  1
  O  O416  1  0.86558401  0.38039332  0.61789101  1
  O  O417  1  0.87088804  0.86541825  0.11861566  1
  O  O418  1  0.87937850  0.86611810  0.61246517  1
  O  O419  1  0.13913776  0.13289278  0.37164420  1
  O  O420  1  0.13466364  0.12380643  0.88885230  1
  O  O421  1  0.12368797  0.62331507  0.39196228  1
  O  O422  1  0.12807343  0.61996965  0.88447537  1
  O  O423  1  0.63214495  0.12806994  0.38216696  1
  O  O424  1  0.63681583  0.13316310  0.87901040  1
  O  O425  1  0.62961219  0.62597113  0.37723736  1
  O  O426  1  0.63388878  0.61508939  0.88717993  1
