# generated using pymatgen
data_V85Zn86O256
_symmetry_space_group_name_H-M   'P 1'
_cell_length_a   16.96758036
_cell_length_b   16.95821696
_cell_length_c   16.94754150
_cell_angle_alpha   89.99323353
_cell_angle_beta   89.97736267
_cell_angle_gamma   90.01919751
_symmetry_Int_Tables_number   1
_chemical_formula_structural   V85Zn86O256
_chemical_formula_sum   'V85 Zn86 O256'
_cell_volume   4876.48336022
_cell_formula_units_Z   1
loop_
 _symmetry_equiv_pos_site_id
 _symmetry_equiv_pos_as_xyz
  1  'x, y, z'
loop_
 _atom_site_type_symbol
 _atom_site_label
 _atom_site_symmetry_multiplicity
 _atom_site_fract_x
 _atom_site_fract_y
 _atom_site_fract_z
 _atom_site_occupancy
  V  V0  1  0.25677267  0.74712238  0.50235543  1
  V  V1  1  0.62438701  0.13212304  0.49925093  1
  V  V2  1  0.49183169  0.75968690  0.73389020  1
  V  V3  1  0.12708078  0.87461755  0.75207322  1
  V  V4  1  0.25395415  0.12902947  0.37197962  1
  V  V5  1  0.62953590  0.62405618  -0.01900845  1
  V  V6  1  0.50603030  0.62233845  0.12203266  1
  V  V7  1  0.12665309  0.25973301  0.37415775  1
  V  V8  1  0.74597114  0.62234679  0.39213424  1
  V  V9  1  0.12492616  0.49712235  0.61452305  1
  V  V10  1  0.50101898  0.87316746  0.37574630  1
  V  V11  1  0.50378374  0.51149556  0.50700637  1
  V  V12  1  0.49884741  0.37524343  0.87446053  1
  V  V13  1  0.37225390  0.62243780  0.25310898  1
  V  V14  1  0.12583711  0.49597250  0.13065620  1
  V  V15  1  0.24887183  0.00084229  0.74851498  1
  V  V16  1  0.07252649  0.56874027  -0.04294945  1
  V  V17  1  0.00014413  0.12472401  0.12367215  1
  V  V18  1  -0.00387659  0.62139298  0.61307231  1
  V  V19  1  0.13091298  0.75190863  0.36935180  1
  V  V20  1  0.12200047  0.12498701  0.00755779  1
  V  V21  1  0.37694418  0.87364775  -0.00057679  1
  V  V22  1  0.00481352  0.26280018  0.25595256  1
  V  V23  1  0.74953051  0.25083392  -0.00176778  1
  V  V24  1  0.74686630  0.12752335  0.37460759  1
  V  V25  1  0.00120132  0.61789882  0.12808361  1
  V  V26  1  0.62533806  0.36994843  0.25396096  1
  V  V27  1  0.23514957  -0.00067314  0.24945135  1
  V  V28  1  0.74750688  0.37675434  0.62310336  1
  V  V29  1  0.08510644  -0.04531038  0.08600489  1
  V  V30  1  0.50127289  0.23944578  0.24927809  1
  V  V31  1  0.25281085  0.49879025  0.74406075  1
  V  V32  1  0.12285963  -0.00263862  0.62334218  1
  V  V33  1  0.48917949  0.12776522  0.62238422  1
  V  V34  1  0.74823571  0.50072787  0.25440244  1
  V  V35  1  0.50160023  0.74671197  0.25122227  1
  V  V36  1  0.88926775  0.37784061  0.49791363  1
  V  V37  1  0.24713418  0.12487572  0.87683641  1
  V  V38  1  0.87612964  0.25123499  0.12706796  1
  V  V39  1  0.50398412  0.37065681  0.37674674  1
  V  V40  1  0.37893179  0.23375674  0.13029863  1
  V  V41  1  -0.00026694  0.12715815  0.62482708  1
  V  V42  1  0.87277361  0.61948092  0.75648371  1
  V  V43  1  0.25273072  0.74524861  -0.00062776  1
  V  V44  1  0.87315406  -0.00741075  0.37950536  1
  V  V45  1  0.25331374  0.36091893  0.62249157  1
  V  V46  1  0.87221043  0.75202311  0.11911738  1
  V  V47  1  0.00025740  0.74963875  0.74904439  1
  V  V48  1  0.37648993  0.00353790  0.87311042  1
  V  V49  1  0.37355011  0.50123378  0.37832344  1
  V  V50  1  0.25082640  0.87215571  0.13646862  1
  V  V51  1  0.00532375  0.87621232  0.36598177  1
  V  V52  1  0.88749627  0.49861642  0.38065807  1
  V  V53  1  0.37570614  0.50008995  0.87335523  1
  V  V54  1  0.63503679  0.00333154  0.62923950  1
  V  V55  1  0.25041616  0.24875155  0.00403089  1
  V  V56  1  0.62227737  0.37564633  0.74431972  1
  V  V57  1  0.88401563  0.38971172  -0.00148827  1
  V  V58  1  0.64213853  0.87988425  0.74694637  1
  V  V59  1  0.87721493  0.76800132  0.62047038  1
  V  V60  1  0.37521423  0.00231364  0.36435734  1
  V  V61  1  0.62853358  0.87205680  0.24852304  1
  V  V62  1  0.37684903  0.37479271  0.00671380  1
  V  V63  1  0.37468448  0.36106496  0.50403537  1
  V  V64  1  -0.00174248  -0.00554417  0.50118385  1
  V  V65  1  0.13191960  0.12841513  0.49767316  1
  V  V66  1  0.75062942  0.77122459  0.50364758  1
  V  V67  1  -0.00947183  0.25430343  0.75323054  1
  V  V68  1  0.37606632  0.74555703  0.12415602  1
  V  V69  1  0.86916268  0.11868948  0.74851510  1
  V  V70  1  0.74495134  0.12456247  0.87087106  1
  V  V71  1  0.87610176  0.12596006  0.25330815  1
  V  V72  1  0.25393930  0.62370777  0.87776388  1
  V  V73  1  0.49875963  0.00052148  0.49927380  1
  V  V74  1  0.24904963  0.49354145  0.25442384  1
  V  V75  1  0.11924718  0.25244019  0.87645153  1
  V  V76  1  0.87194906  0.62755397  0.25252851  1
  V  V77  1  0.49033735  0.25001885  0.74438468  1
  V  V78  1  0.12364360  0.75131890  0.87663021  1
  V  V79  1  0.37628933  0.63201183  0.73535796  1
  V  V80  1  0.74992313  0.25322817  0.49482015  1
  V  V81  1  0.74902390  0.37649233  0.12392613  1
  V  V82  1  0.75010592  0.87711925  0.11325870  1
  V  V83  1  0.12691589  0.62497839  0.49200011  1
  V  V84  1  0.49916986  0.00894335  0.00947407  1
  Zn  Zn85  1  0.62430669  0.50009379  0.12320926  1
  Zn  Zn86  1  0.37903923  0.87068036  0.50433083  1
  Zn  Zn87  1  0.36764615  0.13000560  0.74162907  1
  Zn  Zn88  1  0.87470975  0.25294058  0.62425436  1
  Zn  Zn89  1  0.63164722  0.51789626  0.61392363  1
  Zn  Zn90  1  0.25591107  0.86820398  0.62479825  1
  Zn  Zn91  1  0.00231639  0.39217793  0.87747188  1
  Zn  Zn92  1  0.00346411  0.75195058  0.25077336  1
  Zn  Zn93  1  0.50172685  0.87678557  0.87187323  1
  Zn  Zn94  1  -0.04709691  0.91943678  0.95230240  1
  Zn  Zn95  1  0.62211535  0.12959102  0.00578660  1
  Zn  Zn96  1  0.74886506  0.50978057  0.75651633  1
  Zn  Zn97  1  0.62302010  0.74314517  0.38516761  1
  Zn  Zn98  1  0.24660555  0.37090304  0.13203938  1
  Zn  Zn99  1  0.50150535  0.49926622  -0.00144506  1
  Zn  Zn100  1  0.75337103  0.74798679  -0.01086181  1
  Zn  Zn101  1  0.74881364  -0.00082015  0.24891273  1
  Zn  Zn102  1  0.86321651  0.00664616  0.89094101  1
  Zn  Zn103  1  0.12408817  0.37328468  0.74604795  1
  Zn  Zn104  1  0.62277569  0.00629198  0.12937832  1
  Zn  Zn105  1  0.62615859  0.75204391  0.86698366  1
  Zn  Zn106  1  0.62159881  0.24971173  0.87532498  1
  Zn  Zn107  1  0.18855973  0.18753409  0.19270186  1
  Zn  Zn108  1  0.18187660  0.18626335  0.69019939  1
  Zn  Zn109  1  0.18831983  0.67931010  0.18893835  1
  Zn  Zn110  1  0.18858748  0.68376821  0.68332940  1
  Zn  Zn111  1  0.68489982  0.18688204  0.18512706  1
  Zn  Zn112  1  0.68398231  0.19369181  0.68587254  1
  Zn  Zn113  1  0.68863729  0.68924913  0.18751266  1
  Zn  Zn114  1  0.69407763  0.69656057  0.68392618  1
  Zn  Zn115  1  0.31582837  0.31136304  0.31435948  1
  Zn  Zn116  1  0.31033243  0.31229085  0.81292746  1
  Zn  Zn117  1  0.31417188  0.80931754  0.31783456  1
  Zn  Zn118  1  0.31353333  0.81343698  0.81134662  1
  Zn  Zn119  1  0.81518801  0.31347452  0.31561979  1
  Zn  Zn120  1  0.79734820  0.34425940  0.82922217  1
  Zn  Zn121  1  0.81132391  0.81034205  0.31332343  1
  Zn  Zn122  1  0.81261947  0.80945111  0.81871675  1
  Zn  Zn123  1  0.19376934  0.43730021  0.43914221  1
  Zn  Zn124  1  0.19484921  0.43112731  0.93635593  1
  Zn  Zn125  1  0.18842089  0.93447501  0.43659114  1
  Zn  Zn126  1  0.19205434  0.93258824  0.93629632  1
  Zn  Zn127  1  0.68667036  0.43828475  0.43732580  1
  Zn  Zn128  1  0.68561105  0.44217580  0.93303494  1
  Zn  Zn129  1  0.68290356  0.94292558  0.43601815  1
  Zn  Zn130  1  0.68453781  0.93974464  0.93453592  1
  Zn  Zn131  1  0.30755188  0.05701453  0.06542157  1
  Zn  Zn132  1  0.31265746  0.05051137  0.55725609  1
  Zn  Zn133  1  0.31235832  0.55885798  0.06410664  1
  Zn  Zn134  1  0.30970139  0.55962583  0.55664949  1
  Zn  Zn135  1  0.81243251  0.05972180  0.06031564  1
  Zn  Zn136  1  0.81637145  0.06479205  0.56256532  1
  Zn  Zn137  1  0.80883258  0.56372293  0.06377966  1
  Zn  Zn138  1  0.81716912  0.55864196  0.56846106  1
  Zn  Zn139  1  0.43984886  0.43629186  0.18833392  1
  Zn  Zn140  1  0.43607983  0.43946368  0.68428315  1
  Zn  Zn141  1  0.43545285  0.93489847  0.18955186  1
  Zn  Zn142  1  0.43770758  0.94163781  0.68401536  1
  Zn  Zn143  1  0.93454457  0.44092358  0.18892412  1
  Zn  Zn144  1  0.93986633  0.43726332  0.68378680  1
  Zn  Zn145  1  0.92943208  0.93745345  0.18877053  1
  Zn  Zn146  1  0.93944238  0.93346128  0.77215645  1
  Zn  Zn147  1  0.06236625  0.06651165  0.31290673  1
  Zn  Zn148  1  0.05782227  0.06616049  0.81689228  1
  Zn  Zn149  1  0.06359612  0.56314447  0.31129004  1
  Zn  Zn150  1  0.06529878  0.56411816  0.79089187  1
  Zn  Zn151  1  0.56647145  0.05964797  0.31260364  1
  Zn  Zn152  1  0.56144438  0.06476371  0.81293810  1
  Zn  Zn153  1  0.56299137  0.55881459  0.31518107  1
  Zn  Zn154  1  0.57934841  0.58477803  0.77265943  1
  Zn  Zn155  1  0.43799326  0.18574353  0.43090640  1
  Zn  Zn156  1  0.43537787  0.18885440  0.93653713  1
  Zn  Zn157  1  0.43678275  0.68602008  0.43717954  1
  Zn  Zn158  1  0.44609328  0.68878908  0.92764421  1
  Zn  Zn159  1  0.93980396  0.18789082  0.43812604  1
  Zn  Zn160  1  0.93193994  0.18809147  0.93856922  1
  Zn  Zn161  1  0.93546331  0.69258855  0.43834160  1
  Zn  Zn162  1  0.93485495  0.69423978  0.93410414  1
  Zn  Zn163  1  0.06144777  0.31359642  0.06704884  1
  Zn  Zn164  1  0.06666478  0.30848294  0.56170822  1
  Zn  Zn165  1  0.07038995  0.78525320  0.06814301  1
  Zn  Zn166  1  0.06391739  0.81353058  0.55924832  1
  Zn  Zn167  1  0.56232427  0.31065018  0.06610710  1
  Zn  Zn168  1  0.56065020  0.31251783  0.56177198  1
  Zn  Zn169  1  0.56366591  0.81033736  0.06027614  1
  Zn  Zn170  1  0.56906576  0.81608371  0.56399390  1
  O  O171  1  0.11870927  0.12916440  0.11574437  1
  O  O172  1  0.11976113  0.12022537  0.61671357  1
  O  O173  1  0.11490510  0.61437114  0.12536043  1
  O  O174  1  0.11921119  0.61800277  0.61354989  1
  O  O175  1  0.62879044  0.11913489  0.11932129  1
  O  O176  1  0.61706694  0.11969846  0.61863599  1
  O  O177  1  0.61420709  0.62384679  0.12395891  1
  O  O178  1  0.62238624  0.61459192  0.66897712  1
  O  O179  1  0.38101155  0.38077694  0.38560373  1
  O  O180  1  0.37706181  0.37679857  0.88639823  1
  O  O181  1  0.38833333  0.87988674  0.37580625  1
  O  O182  1  0.36991024  0.88754020  0.88381536  1
  O  O183  1  0.86949910  0.38581733  0.38668536  1
  O  O184  1  0.88847601  0.36772513  0.89571131  1
  O  O185  1  0.88030963  0.88837028  0.36963045  1
  O  O186  1  0.88248210  0.88501066  0.86314752  1
  O  O187  1  0.25663328  0.00253621  0.36731416  1
  O  O188  1  0.25480853  0.00542074  0.86972512  1
  O  O189  1  0.26467851  0.49806139  0.37045071  1
  O  O190  1  0.25461575  0.50528660  0.86675475  1
  O  O191  1  0.75793703  0.00814860  0.37408627  1
  O  O192  1  0.74517727  0.01978764  0.87844077  1
  O  O193  1  0.75611882  0.50984386  0.37364427  1
  O  O194  1  0.76002928  0.45326548  0.85320069  1
  O  O195  1  0.24321334  0.49904794  0.13486722  1
  O  O196  1  0.24485087  0.49144785  0.62654394  1
  O  O197  1  0.24934887  0.98687201  0.13427460  1
  O  O198  1  0.23452000  1.00740400  0.63211845  1
  O  O199  1  0.74971916  0.48931690  0.13422303  1
  O  O200  1  0.74774783  0.49004859  0.63198516  1
  O  O201  1  0.74855037  0.98943637  0.12980569  1
  O  O202  1  0.73322924  1.01018823  0.61881142  1
  O  O203  1  -0.00811960  0.36139237  0.24759783  1
  O  O204  1  0.00331637  0.36975131  0.75533715  1
  O  O205  1  -0.00349695  0.87428311  0.26187659  1
  O  O206  1  0.01753182  0.85836414  0.73975517  1
  O  O207  1  0.50755762  0.37047557  0.25745173  1
  O  O208  1  0.50072236  0.36901509  0.75338555  1
  O  O209  1  0.50587115  0.86668476  0.25517843  1
  O  O210  1  0.49631467  0.86848554  0.75020941  1
  O  O211  1  0.50680501  0.14041290  0.26012816  1
  O  O212  1  0.49628458  0.13260484  0.74034596  1
  O  O213  1  0.49444655  0.62685822  0.24323074  1
  O  O214  1  0.48541699  0.64764456  0.75500982  1
  O  O215  1  0.99361980  0.13131223  0.24238830  1
  O  O216  1  0.99191265  0.13357724  0.74398038  1
  O  O217  1  0.98925260  0.62582507  0.24434407  1
  O  O218  1  0.99872191  0.63669197  0.73387908  1
  O  O219  1  0.37200183  0.25418288  0.01199618  1
  O  O220  1  0.37983743  0.26283599  0.49636855  1
  O  O221  1  0.37284792  0.75628497  0.00131481  1
  O  O222  1  0.36069101  0.74937662  0.49373037  1
  O  O223  1  0.86510225  0.25548125  0.00993386  1
  O  O224  1  0.86809672  0.25966187  0.49824738  1
  O  O225  1  0.87397061  0.74750542  0.01331413  1
  O  O226  1  0.86684871  0.75219841  0.51140008  1
  O  O227  1  0.12142651  0.23506825  0.49188217  1
  O  O228  1  0.12901848  0.24414176  0.99737157  1
  O  O229  1  0.13154103  0.74324384  0.49090695  1
  O  O230  1  0.13763188  0.74644609  0.98605993  1
  O  O231  1  0.63075027  0.23866446  0.50121209  1
  O  O232  1  0.63852607  0.25321015  1.00184676  1
  O  O233  1  0.64486815  0.75400452  0.50321161  1
  O  O234  1  0.62126414  0.73327578  0.99592615  1
  O  O235  1  0.48701828  0.25223271  0.13255424  1
  O  O236  1  0.50194811  0.24016298  0.63112713  1
  O  O237  1  0.49452566  0.74137826  0.12976630  1
  O  O238  1  0.49827886  0.75833304  0.63426503  1
  O  O239  1  0.99546305  0.24265606  0.13418017  1
  O  O240  1  1.00117021  0.24517337  0.63531130  1
  O  O241  1  0.99198579  0.73566174  0.13191289  1
  O  O242  1  0.99322781  0.74434100  0.62530376  1
  O  O243  1  0.01194045  0.24227869  0.36628831  1
  O  O244  1  0.00705667  0.24745906  0.87054416  1
  O  O245  1  0.00571712  0.76040109  0.37498185  1
  O  O246  1  0.01282252  0.74565071  0.86372897  1
  O  O247  1  0.49362647  0.26349229  0.36555019  1
  O  O248  1  0.49616947  0.25948506  0.86807291  1
  O  O249  1  0.50338485  0.75619267  0.37172181  1
  O  O250  1  0.50700585  0.75941183  0.86192405  1
  O  O251  1  0.24135402  0.11610587  0.48753504  1
  O  O252  1  0.24132476  0.12926606  0.99804881  1
  O  O253  1  0.24131210  0.63596097  0.50022978  1
  O  O254  1  0.25963993  0.62832894  0.98595710  1
  O  O255  1  0.74546416  0.13311186  0.49359683  1
  O  O256  1  0.75110491  0.13660367  0.99195643  1
  O  O257  1  0.75444723  0.62521282  0.49324156  1
  O  O258  1  0.73246681  0.62446818  1.00325844  1
  O  O259  1  0.25969774  0.36471676  0.00450941  1
  O  O260  1  0.26702769  0.37638824  0.50695358  1
  O  O261  1  0.26126127  0.86944004  0.01030988  1
  O  O262  1  0.24951171  0.85984428  0.49938651  1
  O  O263  1  0.75806841  0.37097291  0.00980799  1
  O  O264  1  0.75137171  0.36924373  0.50674825  1
  O  O265  1  0.73973848  0.87231749  0.01077140  1
  O  O266  1  0.75227061  0.86915998  0.49331956  1
  O  O267  1  0.13750983  0.50571845  0.24533599  1
  O  O268  1  0.13525456  0.49675391  0.73266055  1
  O  O269  1  0.13503023  0.99798729  0.25324362  1
  O  O270  1  0.12642203  0.99182683  0.74401127  1
  O  O271  1  0.63071790  0.48859903  0.24945213  1
  O  O272  1  0.62498958  0.47987075  0.75407190  1
  O  O273  1  0.62575956  0.98483403  0.24928852  1
  O  O274  1  0.61984296  0.99570328  0.73706847  1
  O  O275  1  0.36757438  -0.00533133  0.26003808  1
  O  O276  1  0.36854505  0.00575856  0.75945703  1
  O  O277  1  0.37335992  0.50421101  0.25771899  1
  O  O278  1  0.37113941  0.50765773  0.75424152  1
  O  O279  1  0.87340027  0.01323212  0.25890678  1
  O  O280  1  0.86858056  0.01842785  0.74071568  1
  O  O281  1  0.86738236  0.50930086  0.25783446  1
  O  O282  1  0.88187209  0.51695963  0.74385958  1
  O  O283  1  0.13272322  0.35884102  0.38496734  1
  O  O284  1  0.12261433  0.36241223  0.87697889  1
  O  O285  1  0.11711878  0.86534878  0.37625885  1
  O  O286  1  0.13215884  0.86326860  0.86557275  1
  O  O287  1  0.61638483  0.37751586  0.36756212  1
  O  O288  1  0.61154929  0.36836350  0.86849699  1
  O  O289  1  0.61511069  0.87360809  0.36862854  1
  O  O290  1  0.62209547  0.88516949  0.85474139  1
  O  O291  1  0.37173659  0.13573274  0.12262081  1
  O  O292  1  0.38562459  0.11783810  0.62101630  1
  O  O293  1  0.38582331  0.62753356  0.12943097  1
  O  O294  1  0.36582043  0.62035651  0.63716477  1
  O  O295  1  0.88081887  0.13006902  0.13500765  1
  O  O296  1  0.88178986  0.13302322  0.62954508  1
  O  O297  1  0.87883485  0.62818999  0.13349065  1
  O  O298  1  0.88499463  0.63137686  0.62877555  1
  O  O299  1  0.26124378  0.25098662  0.12433894  1
  O  O300  1  0.24389015  0.26172046  0.63063927  1
  O  O301  1  0.25606902  0.75133903  0.12123793  1
  O  O302  1  0.24338448  0.75025929  0.60762594  1
  O  O303  1  0.75685960  0.26161118  0.12329628  1
  O  O304  1  0.75092667  0.25337563  0.60844054  1
  O  O305  1  0.75725307  0.75567445  0.12103710  1
  O  O306  1  0.76422306  0.75384867  0.61327913  1
  O  O307  1  0.24413956  0.23745521  0.36559785  1
  O  O308  1  0.24098386  0.24382674  0.88190910  1
  O  O309  1  0.24145560  0.75171608  0.38513440  1
  O  O310  1  0.24454579  0.74091517  0.87612807  1
  O  O311  1  0.75359637  0.24282933  0.38574062  1
  O  O312  1  0.74824366  0.24864382  0.88541314  1
  O  O313  1  0.75399152  0.74116374  0.39095076  1
  O  O314  1  0.73929723  0.75247313  0.87709418  1
  O  O315  1  0.00474485  0.13139179  0.01531202  1
  O  O316  1  0.00791518  0.11558544  0.50379133  1
  O  O317  1  0.00107437  0.62794692  0.00765042  1
  O  O318  1  0.00730089  0.63089273  0.50746691  1
  O  O319  1  0.49671149  0.11141569  -0.00273093  1
  O  O320  1  0.50770085  0.12351805  0.50236084  1
  O  O321  1  0.50911889  0.62229377  0.00494870  1
  O  O322  1  0.49874064  0.61032576  0.49563970  1
  O  O323  1  0.49130409  0.37896099  0.49391921  1
  O  O324  1  0.49331139  0.37343468  0.99279663  1
  O  O325  1  0.50276385  0.88012420  0.49089104  1
  O  O326  1  0.48765923  0.88052004  0.99896791  1
  O  O327  1  0.98766666  0.37011796  0.50507164  1
  O  O328  1  0.98761046  0.37623150  1.00525523  1
  O  O329  1  1.00633479  0.88933201  0.49011837  1
  O  O330  1  1.02851872  0.88434445  1.02636446  1
  O  O331  1  0.49229346  0.48941803  0.38115187  1
  O  O332  1  0.49077568  0.48382877  0.87426616  1
  O  O333  1  0.49482117  0.99320598  0.37696869  1
  O  O334  1  0.48943311  0.99872498  0.88329234  1
  O  O335  1  0.98630322  0.50444995  0.37166277  1
  O  O336  1  1.02332098  0.50920772  0.88361184  1
  O  O337  1  0.99476782  0.99612883  0.38059996  1
  O  O338  1  0.98934243  0.99262714  0.86278794  1
  O  O339  1  0.00837531  0.00816363  0.13741026  1
  O  O340  1  0.01290777  0.00704793  0.61689233  1
  O  O341  1  0.00684737  0.50969065  0.13093900  1
  O  O342  1  0.01223882  0.50912112  0.62598968  1
  O  O343  1  0.49533673  -0.00441999  0.11199321  1
  O  O344  1  0.50886524  0.01150123  0.61690063  1
  O  O345  1  0.50118324  0.50867430  0.12171743  1
  O  O346  1  0.50052673  0.49740174  0.60916718  1
  O  O347  1  0.25910666  0.38910064  0.24930740  1
  O  O348  1  0.24920901  0.38056015  0.74148578  1
  O  O349  1  0.25724790  0.87712275  0.24107717  1
  O  O350  1  0.24074453  0.87971235  0.74697469  1
  O  O351  1  0.74441756  0.37715110  0.24570630  1
  O  O352  1  0.73784084  0.35387157  0.72914646  1
  O  O353  1  0.74103152  0.87309549  0.24538363  1
  O  O354  1  0.73949153  0.87569327  0.74536135  1
  O  O355  1  0.24585376  0.11250275  0.25952136  1
  O  O356  1  0.24802360  0.11988954  0.75870900  1
  O  O357  1  0.26668968  0.61358448  0.24452854  1
  O  O358  1  0.25504718  0.62136485  0.75918568  1
  O  O359  1  0.75802132  0.12753929  0.25935246  1
  O  O360  1  0.75725584  0.14122777  0.75855517  1
  O  O361  1  0.75671352  0.62142809  0.25706364  1
  O  O362  1  0.76933313  0.62670690  0.74746680  1
  O  O363  1  0.36449328  0.11726446  0.37542084  1
  O  O364  1  0.36621693  0.11508880  0.87769447  1
  O  O365  1  0.38289353  0.61405447  0.36410151  1
  O  O366  1  0.36866685  0.62014449  0.86746371  1
  O  O367  1  0.86790188  0.11888115  0.37071368  1
  O  O368  1  0.86465254  0.12744871  0.86556912  1
  O  O369  1  0.86623159  0.62128701  0.37097423  1
  O  O370  1  0.88630964  0.62917910  0.85504478  1
  O  O371  1  0.12644242  0.39061350  0.12215633  1
  O  O372  1  0.13428664  0.38147340  0.62032112  1
  O  O373  1  0.13669338  0.86876105  0.12763353  1
  O  O374  1  0.12946595  0.88310795  0.63010517  1
  O  O375  1  0.63343985  0.37812104  0.13154380  1
  O  O376  1  0.62993669  0.37779117  0.62810936  1
  O  O377  1  0.63149108  0.87427655  0.13262648  1
  O  O378  1  0.62199022  0.89427636  0.63326409  1
  O  O379  1  0.11633106  0.24767110  0.25956002  1
  O  O380  1  0.11371279  0.24967435  0.76141744  1
  O  O381  1  0.12474626  0.73838912  0.26490156  1
  O  O382  1  0.12293129  0.75296782  0.75510950  1
  O  O383  1  0.61738125  0.26305113  0.24444294  1
  O  O384  1  0.60908686  0.25931091  0.74966557  1
  O  O385  1  0.61967434  0.75790814  0.25447416  1
  O  O386  1  0.61638843  0.77143214  0.74203791  1
  O  O387  1  0.38343339  0.25449530  0.23662287  1
  O  O388  1  0.38493130  0.24775341  0.75333660  1
  O  O389  1  0.38073098  0.73999987  0.24680346  1
  O  O390  1  0.38193556  0.74823020  0.74728888  1
  O  O391  1  0.88099735  0.24101849  0.24914287  1
  O  O392  1  0.88653932  0.24850023  0.75079527  1
  O  O393  1  0.87427054  0.73866347  0.24418032  1
  O  O394  1  0.88492464  0.74412532  0.73845746  1
  O  O395  1  0.38431148  0.49410217  0.49316289  1
  O  O396  1  0.37574776  0.49025186  0.99348880  1
  O  O397  1  0.38395780  1.00003392  0.48155826  1
  O  O398  1  0.38053139  0.99353050  0.99610967  1
  O  O399  1  0.87226644  0.48915438  0.49367469  1
  O  O400  1  0.87245210  0.48834644  1.00473954  1
  O  O401  1  0.88589223  1.00699381  0.49142583  1
  O  O402  1  0.88245846  0.99607040  1.00315872  1
  O  O403  1  0.13248269  0.00810503  0.00532405  1
  O  O404  1  0.12105990  0.00665838  0.50508401  1
  O  O405  1  0.13604668  0.50339231  0.00817041  1
  O  O406  1  0.13313708  0.50849958  0.50629500  1
  O  O407  1  0.60490383  -0.00299346  0.00019681  1
  O  O408  1  0.61898171  0.01128380  0.50708971  1
  O  O409  1  0.62282274  0.51032903  0.00053170  1
  O  O410  1  0.60915379  0.49729304  0.49923818  1
  O  O411  1  0.37524740  0.37186635  0.11423500  1
  O  O412  1  0.36961078  0.37608778  0.61206294  1
  O  O413  1  0.36969387  0.86518485  0.11920645  1
  O  O414  1  0.36339971  0.90165387  0.61275325  1
  O  O415  1  0.86856028  0.37149738  0.11967451  1
  O  O416  1  0.86663357  0.37423553  0.61588015  1
  O  O417  1  0.86348755  0.86297691  0.13385046  1
  O  O418  1  0.88546520  0.86278685  0.63108939  1
  O  O419  1  0.13368401  0.12904335  0.38168033  1
  O  O420  1  0.12520331  0.13324222  0.88815254  1
  O  O421  1  0.11862913  0.63133575  0.38684393  1
  O  O422  1  0.13125697  0.62675439  0.87783309  1
  O  O423  1  0.63913078  0.11819644  0.38350952  1
  O  O424  1  0.62883438  0.13196728  0.88008407  1
  O  O425  1  0.64211856  0.62571276  0.37044174  1
  O  O426  1  0.61952835  0.62031329  0.87966927  1
