# generated using pymatgen
data_V85Zn86O256
_symmetry_space_group_name_H-M   'P 1'
_cell_length_a   16.95601584
_cell_length_b   16.96052971
_cell_length_c   16.96341101
_cell_angle_alpha   90.09672698
_cell_angle_beta   89.97752639
_cell_angle_gamma   89.99400500
_symmetry_Int_Tables_number   1
_chemical_formula_structural   V85Zn86O256
_chemical_formula_sum   'V85 Zn86 O256'
_cell_volume   4878.38145094
_cell_formula_units_Z   1
loop_
 _symmetry_equiv_pos_site_id
 _symmetry_equiv_pos_as_xyz
  1  'x, y, z'
loop_
 _atom_site_type_symbol
 _atom_site_label
 _atom_site_symmetry_multiplicity
 _atom_site_fract_x
 _atom_site_fract_y
 _atom_site_fract_z
 _atom_site_occupancy
  V  V0  1  0.24578490  0.12898291  0.88868495  1
  V  V1  1  0.50132194  0.75250363  0.74649407  1
  V  V2  1  0.75728044  0.87546089  0.13643065  1
  V  V3  1  0.50523316  0.75823520  0.26115178  1
  V  V4  1  0.51061293  0.62283701  0.62654383  1
  V  V5  1  0.74326596  0.37528131  0.62631954  1
  V  V6  1  -0.00291982  0.74941223  0.24705505  1
  V  V7  1  0.38646044  -0.00353910  0.38219103  1
  V  V8  1  0.62545002  0.24493323  0.37888081  1
  V  V9  1  0.25034213  0.74713979  0.00096360  1
  V  V10  1  0.63717775  0.87973368  0.74735321  1
  V  V11  1  0.50146761  0.12168076  0.12907978  1
  V  V12  1  0.12496582  0.00982019  0.11875448  1
  V  V13  1  0.12556297  0.50005042  0.12352802  1
  V  V14  1  0.37399190  0.12314140  0.25559359  1
  V  V15  1  0.12588409  0.74482579  0.87341848  1
  V  V16  1  0.25060267  -0.00669351  0.25303388  1
  V  V17  1  0.25045089  0.62334620  0.37298323  1
  V  V18  1  0.00238960  0.74589951  0.73900251  1
  V  V19  1  0.37734922  0.87272798  0.00051647  1
  V  V20  1  0.62868410  -0.00746834  0.61893285  1
  V  V21  1  0.49849951  0.24811701  0.25315236  1
  V  V22  1  0.12542226  0.62107788  -0.00008386  1
  V  V23  1  0.25054947  0.49082353  0.75279808  1
  V  V24  1  0.12294050  0.37679755  0.25172903  1
  V  V25  1  0.62055084  0.62948673  0.48592227  1
  V  V26  1  0.75817810  0.49550815  0.25593519  1
  V  V27  1  0.87978390  0.87281992  0.00435432  1
  V  V28  1  0.63519607  -0.00023294  0.13421189  1
  V  V29  1  -0.01178240  0.12296909  0.64321394  1
  V  V30  1  0.62130280  0.12601649  0.50249385  1
  V  V31  1  -0.00124382  0.50095048  -0.00380849  1
  V  V32  1  0.50606670  0.49677800  0.50456650  1
  V  V33  1  0.62546534  0.12435072  0.00244877  1
  V  V34  1  0.38526037  0.62158331  0.24487637  1
  V  V35  1  0.49791201  0.37408858  0.37739179  1
  V  V36  1  0.13450510  0.50262484  0.61894690  1
  V  V37  1  0.90174269  0.88898965  0.49947984  1
  V  V38  1  0.74723157  0.25206091  0.00167814  1
  V  V39  1  -0.00015320  0.37003072  0.86558943  1
  V  V40  1  0.12160570  0.36736494  0.74248422  1
  V  V41  1  0.62755220  0.75321295  0.87458236  1
  V  V42  1  0.61518672  0.37921682  0.75382750  1
  V  V43  1  0.38227010  0.49553558  0.87808028  1
  V  V44  1  0.36980581  0.25235584  0.62743736  1
  V  V45  1  0.38562383  0.74635031  0.12434137  1
  V  V46  1  0.50276137  0.87670032  0.87433611  1
  V  V47  1  0.62616448  0.37440338  0.24927392  1
  V  V48  1  0.75272199  0.12112096  0.86803376  1
  V  V49  1  0.24502080  0.12226068  0.38132936  1
  V  V50  1  0.49860883  0.11947658  0.62612127  1
  V  V51  1  0.75646018  0.25401945  0.50081849  1
  V  V52  1  0.75722953  0.75004671  0.00623657  1
  V  V53  1  0.87721301  0.25223140  0.64305870  1
  V  V54  1  0.61824651  0.62741670  0.00795899  1
  V  V55  1  0.37624931  -0.00200242  0.87576679  1
  V  V56  1  0.87937740  0.62424552  0.74861548  1
  V  V57  1  0.36682760  0.37562538  0.50395901  1
  V  V58  1  0.24965096  0.74936967  0.50129497  1
  V  V59  1  0.00118081  0.87361045  0.87377398  1
  V  V60  1  0.11227263  0.12711515  0.50614374  1
  V  V61  1  0.12191536  0.25475470  0.37948249  1
  V  V62  1  0.61556263  0.25355725  0.87651202  1
  V  V63  1  0.74521957  0.76425022  0.50146996  1
  V  V64  1  0.37610112  0.74833292  0.62519484  1
  V  V65  1  0.37481522  0.62208117  0.74975677  1
  V  V66  1  0.75895741  0.62687670  0.37620621  1
  V  V67  1  0.24932414  -0.00121966  0.75057331  1
  V  V68  1  0.07781579  0.91901802  0.30104816  1
  V  V69  1  0.25239093  0.36429802  0.12193766  1
  V  V70  1  0.74953394  0.62830723  0.87401524  1
  V  V71  1  0.24423412  0.87171601  0.12836351  1
  V  V72  1  -0.01951392  0.38061394  0.38545088  1
  V  V73  1  0.25227822  0.50022050  0.24809708  1
  V  V74  1  0.00473769  0.01320415  -0.00044551  1
  V  V75  1  0.74146931  0.50269175  0.74840212  1
  V  V76  1  0.38139883  0.36511251  -0.00300512  1
  V  V77  1  0.12332941  0.74737112  0.36847136  1
  V  V78  1  0.37609295  0.12402426  0.75158949  1
  V  V79  1  0.89117781  0.24420565  0.11567472  1
  V  V80  1  0.12131864  0.00051558  0.62335308  1
  V  V81  1  -0.05044953  0.56561895  0.56528401  1
  V  V82  1  -0.01101953  0.62655740  0.12377658  1
  V  V83  1  0.38784729  0.87568571  0.49931406  1
  V  V84  1  0.87180024  0.38148749  -0.00429385  1
  Zn  Zn85  1  0.85791848  0.00281331  0.36754203  1
  Zn  Zn86  1  0.00462839  0.24772689  0.24166129  1
  Zn  Zn87  1  0.25097959  0.87505432  0.62619295  1
  Zn  Zn88  1  0.37552359  0.49747065  0.37544331  1
  Zn  Zn89  1  0.87589905  0.11741364  0.25024824  1
  Zn  Zn90  1  0.76434229  0.00715466  0.73218724  1
  Zn  Zn91  1  0.12331573  0.24306060  0.88083716  1
  Zn  Zn92  1  0.37080131  0.24301385  0.12360725  1
  Zn  Zn93  1  0.11868623  0.62333271  0.50046762  1
  Zn  Zn94  1  0.24949249  0.61610005  0.87680173  1
  Zn  Zn95  1  0.87365162  0.50117072  0.87097510  1
  Zn  Zn96  1  0.87179099  0.75491088  0.62004680  1
  Zn  Zn97  1  0.87619775  0.62355900  0.25107079  1
  Zn  Zn98  1  0.24523140  0.25401915  0.50813712  1
  Zn  Zn99  1  0.49970753  0.50078379  0.00933050  1
  Zn  Zn100  1  0.62019996  0.50819785  0.13406690  1
  Zn  Zn101  1  0.49689486  0.25309722  0.75418160  1
  Zn  Zn102  1  0.74905663  0.37817557  0.12436099  1
  Zn  Zn103  1  0.12560636  0.87250596  0.74717485  1
  Zn  Zn104  1  0.62969271  0.87671418  0.25964600  1
  Zn  Zn105  1  0.50300888  -0.00283923  0.00280104  1
  Zn  Zn106  1  0.87975723  0.00490483  0.86911905  1
  Zn  Zn107  1  0.18555152  0.18583379  0.19415476  1
  Zn  Zn108  1  0.18844726  0.18437387  0.69237247  1
  Zn  Zn109  1  0.18672334  0.68638342  0.18705358  1
  Zn  Zn110  1  0.18913654  0.67928317  0.68741168  1
  Zn  Zn111  1  0.69647610  0.18517496  0.19124343  1
  Zn  Zn112  1  0.68443952  0.19032054  0.68797688  1
  Zn  Zn113  1  0.69144380  0.69113504  0.19073115  1
  Zn  Zn114  1  0.68625163  0.69148885  0.68279103  1
  Zn  Zn115  1  0.30979215  0.31017543  0.31489225  1
  Zn  Zn116  1  0.31086430  0.31240193  0.81300323  1
  Zn  Zn117  1  0.31579191  0.81164060  0.31355965  1
  Zn  Zn118  1  0.31139996  0.81158115  0.81251273  1
  Zn  Zn119  1  0.80825498  0.28567288  0.30119350  1
  Zn  Zn120  1  0.80333386  0.31395026  0.81576978  1
  Zn  Zn121  1  0.81744031  0.81343543  0.32330397  1
  Zn  Zn122  1  0.81798323  0.81346281  0.81248217  1
  Zn  Zn123  1  0.18681829  0.43871218  0.43639011  1
  Zn  Zn124  1  0.18454387  0.41222122  0.94089841  1
  Zn  Zn125  1  0.19233899  0.93857781  0.44709716  1
  Zn  Zn126  1  0.18703670  0.93554615  0.93773114  1
  Zn  Zn127  1  0.68799661  0.43691847  0.43586957  1
  Zn  Zn128  1  0.68423409  0.44161471  0.93401720  1
  Zn  Zn129  1  0.68886050  0.94878756  0.43075815  1
  Zn  Zn130  1  0.68859258  0.93881872  0.94407441  1
  Zn  Zn131  1  0.31520658  0.05776378  0.06479106  1
  Zn  Zn132  1  0.31010622  0.06248318  0.56244286  1
  Zn  Zn133  1  0.31383324  0.55865503  0.06221297  1
  Zn  Zn134  1  0.31415867  0.56153371  0.56266521  1
  Zn  Zn135  1  0.81462600  0.06091501  0.05640712  1
  Zn  Zn136  1  0.80031711  0.05150306  0.53115423  1
  Zn  Zn137  1  0.80570997  0.55979543  0.06548530  1
  Zn  Zn138  1  0.78838079  0.56325709  0.56601538  1
  Zn  Zn139  1  0.44150261  0.43709915  0.18267640  1
  Zn  Zn140  1  0.43702116  0.43824298  0.68509358  1
  Zn  Zn141  1  0.43562453  0.93700868  0.18906200  1
  Zn  Zn142  1  0.44066188  0.93565750  0.68501514  1
  Zn  Zn143  1  0.93738509  0.43280218  0.18567096  1
  Zn  Zn144  1  0.93247936  0.43282254  0.68669420  1
  Zn  Zn145  1  0.93381231  0.94841443  0.18441410  1
  Zn  Zn146  1  0.93409311  0.93582969  0.68429579  1
  Zn  Zn147  1  0.02344996  0.09103209  0.33052297  1
  Zn  Zn148  1  0.06499161  0.06215476  0.81250803  1
  Zn  Zn149  1  0.05843689  0.55924829  0.31427571  1
  Zn  Zn150  1  0.06226596  0.55640277  0.80975605  1
  Zn  Zn151  1  0.56752775  0.06028510  0.31571488  1
  Zn  Zn152  1  0.56634996  0.06237861  0.81031346  1
  Zn  Zn153  1  0.56128041  0.55898991  0.31239923  1
  Zn  Zn154  1  0.56169905  0.56444567  0.81788406  1
  Zn  Zn155  1  0.43632508  0.18652514  0.44199316  1
  Zn  Zn156  1  0.43651873  0.18297402  0.94002623  1
  Zn  Zn157  1  0.43288867  0.68369592  0.43710772  1
  Zn  Zn158  1  0.43759527  0.68705147  0.93251129  1
  Zn  Zn159  1  0.93449723  0.19320845  0.44158617  1
  Zn  Zn160  1  0.93459288  0.19178144  0.93156299  1
  Zn  Zn161  1  0.93277040  0.70043227  0.43219136  1
  Zn  Zn162  1  0.93774015  0.68830740  0.93459530  1
  Zn  Zn163  1  0.06871964  0.31569138  0.05035219  1
  Zn  Zn164  1  0.05377364  0.31612851  0.56308165  1
  Zn  Zn165  1  0.06252801  0.81165436  0.06375909  1
  Zn  Zn166  1  0.06824555  0.81115076  0.56164975  1
  Zn  Zn167  1  0.55863260  0.31102153  0.06657858  1
  Zn  Zn168  1  0.55820604  0.31057300  0.56845141  1
  Zn  Zn169  1  0.56737598  0.81345698  0.06654418  1
  Zn  Zn170  1  0.56719975  0.81600940  0.43611430  1
  O  O171  1  0.13766827  0.10850220  0.12624460  1
  O  O172  1  0.11725168  0.12180786  0.62444273  1
  O  O173  1  0.11965155  0.61706349  0.11815093  1
  O  O174  1  0.12465278  0.60818157  0.62230397  1
  O  O175  1  0.62359859  0.12114703  0.12464713  1
  O  O176  1  0.61517886  0.12091216  0.62383306  1
  O  O177  1  0.63159681  0.63039895  0.10987984  1
  O  O178  1  0.61355864  0.62849497  0.61439106  1
  O  O179  1  0.38137343  0.37296135  0.38414649  1
  O  O180  1  0.37085878  0.37818880  0.88976462  1
  O  O181  1  0.36898338  0.88485621  0.38565504  1
  O  O182  1  0.38175138  0.87779014  0.88025707  1
  O  O183  1  0.88502100  0.35899341  0.36367896  1
  O  O184  1  0.87872074  0.37620390  0.87989340  1
  O  O185  1  0.86653213  0.88480180  0.39634683  1
  O  O186  1  0.88947588  0.87119702  0.88462939  1
  O  O187  1  0.25113713  0.00715473  0.37231484  1
  O  O188  1  0.25461106  0.00493576  0.86979167  1
  O  O189  1  0.25220451  0.50746048  0.36761141  1
  O  O190  1  0.25948532  0.49539188  0.86825354  1
  O  O191  1  0.76216035  0.02796741  0.42430513  1
  O  O192  1  0.74780700  0.01634842  0.88126080  1
  O  O193  1  0.74516515  0.51299552  0.36933178  1
  O  O194  1  0.75136349  0.50944653  0.86391826  1
  O  O195  1  0.24542677  0.49323338  0.13272908  1
  O  O196  1  0.24122443  0.49996795  0.63193677  1
  O  O197  1  0.24651095  0.99063915  0.13074644  1
  O  O198  1  0.24265627  1.00045038  0.63493957  1
  O  O199  1  0.73983135  0.49700741  0.13636921  1
  O  O200  1  0.74511204  0.49071002  0.63895394  1
  O  O201  1  0.74598424  0.98914844  0.11731105  1
  O  O202  1  0.73323590  1.00862320  0.62054370  1
  O  O203  1  0.01604530  0.37285322  0.24818657  1
  O  O204  1  0.00675929  0.37816126  0.75383055  1
  O  O205  1  0.00796443  0.86870609  0.24169685  1
  O  O206  1  0.00308566  0.86315030  0.75815264  1
  O  O207  1  0.50447118  0.36694504  0.25756241  1
  O  O208  1  0.51150048  0.37528457  0.74674401  1
  O  O209  1  0.49857970  0.86038749  0.24809242  1
  O  O210  1  0.50939174  0.87031134  0.75573064  1
  O  O211  1  0.49553378  0.12853175  0.24763380  1
  O  O212  1  0.49249018  0.12665035  0.74529284  1
  O  O213  1  0.48883254  0.63340713  0.25668966  1
  O  O214  1  0.49678350  0.62903701  0.74346481  1
  O  O215  1  0.99327254  0.13646324  0.23368080  1
  O  O216  1  1.00243588  0.13017776  0.74167460  1
  O  O217  1  0.99886112  0.62950238  0.24080594  1
  O  O218  1  0.98736315  0.63048728  0.75702406  1
  O  O219  1  0.37768635  0.26108494  0.00262631  1
  O  O220  1  0.37285430  0.25818713  0.50872585  1
  O  O221  1  0.37114919  0.75077283  0.00674494  1
  O  O222  1  0.36807575  0.75307090  0.50532385  1
  O  O223  1  0.86709928  0.26014819  0.00062725  1
  O  O224  1  0.85867967  0.24691369  0.51019920  1
  O  O225  1  0.86742454  0.75733168  -0.00430350  1
  O  O226  1  0.86114802  0.76005056  0.49778650  1
  O  O227  1  0.12637089  0.24733612  0.49753348  1
  O  O228  1  0.14560087  0.30327384  0.97412450  1
  O  O229  1  0.13403927  0.74438683  0.49075052  1
  O  O230  1  0.12981855  0.74221333  0.99235299  1
  O  O231  1  0.62579623  0.24790101  0.49573235  1
  O  O232  1  0.62954873  0.24735374  0.99584164  1
  O  O233  1  0.63357301  0.74114414  0.49643046  1
  O  O234  1  0.63310405  0.74359584  0.99561026  1
  O  O235  1  0.49914669  0.23521234  0.13388473  1
  O  O236  1  0.48867315  0.23834576  0.63014053  1
  O  O237  1  0.48856284  0.75317909  0.13165536  1
  O  O238  1  0.49059940  0.73826947  0.63455713  1
  O  O239  1  0.99300313  0.25218435  0.10458119  1
  O  O240  1  0.98278542  0.24683053  0.62730723  1
  O  O241  1  1.00905339  0.73756657  0.13310233  1
  O  O242  1  1.00548088  0.74792248  0.63706347  1
  O  O243  1  0.01216771  0.26092632  0.37407686  1
  O  O244  1  0.00371341  0.26555024  0.87866183  1
  O  O245  1  0.01557015  0.74512187  0.36566921  1
  O  O246  1  0.01100356  0.75337360  0.86840474  1
  O  O247  1  0.50589724  0.25448218  0.37356092  1
  O  O248  1  0.51196387  0.24359955  0.87592916  1
  O  O249  1  0.49625020  0.74960484  0.36519092  1
  O  O250  1  0.50683250  0.75694409  0.86683652  1
  O  O251  1  0.24057954  0.12748188  0.49180282  1
  O  O252  1  0.25704260  0.11900201  0.98711512  1
  O  O253  1  0.25265942  0.63351367  0.49072939  1
  O  O254  1  0.24419313  0.63000634  0.99875258  1
  O  O255  1  0.73099661  0.14890883  0.51718250  1
  O  O256  1  0.74295901  0.13380835  0.99373474  1
  O  O257  1  0.73861102  0.62678994  0.48863409  1
  O  O258  1  0.74490467  0.63342544  0.99477168  1
  O  O259  1  0.27106863  0.38730966  0.01556089  1
  O  O260  1  0.26347959  0.37514367  0.49653527  1
  O  O261  1  0.25803426  0.86647539  0.00436335  1
  O  O262  1  0.25583491  0.85941042  0.50315156  1
  O  O263  1  0.75472263  0.37064333  -0.00456205  1
  O  O264  1  0.73911750  0.36557285  0.51337440  1
  O  O265  1  0.75999418  0.86787341  0.00479174  1
  O  O266  1  0.73869845  0.86215257  0.50288369  1
  O  O267  1  0.13192762  0.49440208  0.24466352  1
  O  O268  1  0.13302431  0.49650417  0.73802899  1
  O  O269  1  0.13107618  0.98623426  0.23961603  1
  O  O270  1  0.13299118  0.99847704  0.74178799  1
  O  O271  1  0.63323530  0.48961985  0.25442081  1
  O  O272  1  0.63062526  0.49397965  0.75826450  1
  O  O273  1  0.62782170  1.00118386  0.23888220  1
  O  O274  1  0.63168471  0.99469599  0.74065020  1
  O  O275  1  0.36922602  0.00460508  0.25974463  1
  O  O276  1  0.36888362  0.00208861  0.75558449  1
  O  O277  1  0.37058921  0.50685953  0.25041549  1
  O  O278  1  0.36876246  0.49936748  0.75697539  1
  O  O279  1  0.86839318  0.00200092  0.25278686  1
  O  O280  1  0.87069527  -0.01081986  0.75830261  1
  O  O281  1  0.86115500  0.49917898  0.24324505  1
  O  O282  1  0.86585114  0.50987431  0.74821668  1
  O  O283  1  0.12522414  0.36960614  0.36814381  1
  O  O284  1  0.11227427  0.39159180  0.85143220  1
  O  O285  1  0.13819623  0.86512878  0.36789350  1
  O  O286  1  0.11647627  0.86442821  0.87431376  1
  O  O287  1  0.61792233  0.36596149  0.36845078  1
  O  O288  1  0.62859752  0.36545513  0.86760305  1
  O  O289  1  0.62388018  0.88496911  0.37134776  1
  O  O290  1  0.62209012  0.87287043  0.86943166  1
  O  O291  1  0.38349237  0.12228326  0.13449752  1
  O  O292  1  0.38084486  0.12731440  0.63078251  1
  O  O293  1  0.36797757  0.63456730  0.13444801  1
  O  O294  1  0.38212299  0.62878773  0.63122320  1
  O  O295  1  0.87034619  0.14414377  0.11504238  1
  O  O296  1  0.88559397  0.13428211  0.62590692  1
  O  O297  1  0.88611598  0.62208945  0.12498116  1
  O  O298  1  0.88175570  0.62390341  0.62645075  1
  O  O299  1  0.25031507  0.26072077  0.13203465  1
  O  O300  1  0.26493895  0.24091886  0.62581142  1
  O  O301  1  0.25769955  0.75529553  0.12118782  1
  O  O302  1  0.25568396  0.74666894  0.61757640  1
  O  O303  1  0.75408092  0.25682214  0.10851761  1
  O  O304  1  0.75600154  0.25675878  0.62287545  1
  O  O305  1  0.74795081  0.75834428  0.11311440  1
  O  O306  1  0.75283700  0.74000369  0.60472805  1
  O  O307  1  0.23771469  0.24155687  0.37846217  1
  O  O308  1  0.25584070  0.22962960  0.87070040  1
  O  O309  1  0.24487485  0.74159227  0.37893166  1
  O  O310  1  0.23830389  0.74733561  0.87880827  1
  O  O311  1  0.73874053  0.26122967  0.39607207  1
  O  O312  1  0.74017328  0.24129102  0.88414571  1
  O  O313  1  0.75031540  0.73627071  0.38462159  1
  O  O314  1  0.74584356  0.74813342  0.88340252  1
  O  O315  1  -0.00242922  0.11120489  -0.01144815  1
  O  O316  1  0.01089644  0.13552582  0.51721699  1
  O  O317  1  0.00386099  0.62004533  0.00466510  1
  O  O318  1  -0.00124717  0.62660716  0.49800077  1
  O  O319  1  0.50648812  0.12263280  0.01246954  1
  O  O320  1  0.51081721  0.13184630  0.51139495  1
  O  O321  1  0.51623163  0.63066146  -0.00473401  1
  O  O322  1  0.50395835  0.61920905  0.50455260  1
  O  O323  1  0.49444862  0.38123737  0.49824916  1
  O  O324  1  0.48552307  0.37710051  1.00644963  1
  O  O325  1  0.48647600  0.86597969  0.50206236  1
  O  O326  1  0.49646527  0.87283105  0.99356314  1
  O  O327  1  0.99268617  0.37241141  0.48555246  1
  O  O328  1  0.98972854  0.38634778  0.98986500  1
  O  O329  1  0.99881453  0.86625358  0.49114086  1
  O  O330  1  0.99538664  0.87600986  0.99297785  1
  O  O331  1  0.49629442  0.49168648  0.38325680  1
  O  O332  1  0.48568830  0.50288541  0.87833984  1
  O  O333  1  0.48503047  1.00772768  0.37546582  1
  O  O334  1  0.49694321  0.99186278  0.87586954  1
  O  O335  1  0.99772368  0.47998225  0.36673866  1
  O  O336  1  0.99386065  0.49301517  0.87912405  1
  O  O337  1  1.02955979  0.97909711  0.36216017  1
  O  O338  1  1.00498741  0.99001277  0.88315199  1
  O  O339  1  0.01015815  -0.00565928  0.10712961  1
  O  O340  1  0.00792685  0.01543868  0.63434076  1
  O  O341  1  0.00545452  0.50642093  0.11786203  1
  O  O342  1  0.00681144  0.50286495  0.62475832  1
  O  O343  1  0.50732337  0.00966150  0.12880470  1
  O  O344  1  0.50855703  0.01279441  0.63186568  1
  O  O345  1  0.50791528  0.50342109  0.12408127  1
  O  O346  1  0.49537654  0.51078228  0.61671208  1
  O  O347  1  0.24327033  0.38039099  0.24507379  1
  O  O348  1  0.24082453  0.38412124  0.75148689  1
  O  O349  1  0.25876630  0.87968057  0.23949159  1
  O  O350  1  0.24845217  0.88650942  0.75069940  1
  O  O351  1  0.74178684  0.37902195  0.25225434  1
  O  O352  1  0.73965278  0.38480029  0.74774228  1
  O  O353  1  0.75265253  0.86090599  0.23811202  1
  O  O354  1  0.73909200  0.87368010  0.75331985  1
  O  O355  1  0.25261777  0.11720953  0.26436535  1
  O  O356  1  0.25698651  0.11217121  0.75719660  1
  O  O357  1  0.25820814  0.62060297  0.25570892  1
  O  O358  1  0.25740392  0.61034286  0.75252323  1
  O  O359  1  0.77844468  0.17766695  0.26420269  1
  O  O360  1  0.74130113  0.12415573  0.76550442  1
  O  O361  1  0.75147345  0.62066797  0.26093413  1
  O  O362  1  0.75564424  0.62141988  0.75033624  1
  O  O363  1  0.36339113  0.11917274  0.37673880  1
  O  O364  1  0.37035444  0.11572383  0.87086439  1
  O  O365  1  0.36394565  0.62281897  0.36602024  1
  O  O366  1  0.37248245  0.61615582  0.86775014  1
  O  O367  1  0.91454726  0.10867051  0.37327019  1
  O  O368  1  0.85666471  0.12650943  0.87901822  1
  O  O369  1  0.86183617  0.62472443  0.37475020  1
  O  O370  1  0.86669063  0.62701901  0.86420439  1
  O  O371  1  0.13382380  0.38143845  0.13233713  1
  O  O372  1  0.11723003  0.38710090  0.63321766  1
  O  O373  1  0.14086851  0.87995853  0.11580754  1
  O  O374  1  0.12869543  0.88504074  0.62674018  1
  O  O375  1  0.62487235  0.36960570  0.14158444  1
  O  O376  1  0.63459556  0.36622331  0.63846492  1
  O  O377  1  0.63666252  0.88337076  0.12924209  1
  O  O378  1  0.61825364  0.89209700  0.63334099  1
  O  O379  1  0.12586023  0.25936656  0.25997121  1
  O  O380  1  0.13223421  0.26518300  0.75378852  1
  O  O381  1  0.11791236  0.74711650  0.25786319  1
  O  O382  1  0.12090506  0.74614525  0.75681403  1
  O  O383  1  0.61841139  0.25386605  0.26113915  1
  O  O384  1  0.62297064  0.25898329  0.76059703  1
  O  O385  1  0.60695353  0.75012923  0.24415871  1
  O  O386  1  0.62104446  0.75860488  0.75261430  1
  O  O387  1  0.38078622  0.24050703  0.25230880  1
  O  O388  1  0.37696653  0.24472638  0.74528484  1
  O  O389  1  0.38476679  0.74364664  0.24404904  1
  O  O390  1  0.37944851  0.74359631  0.74626500  1
  O  O391  1  0.89018878  0.27597495  0.21573577  1
  O  O392  1  0.86526261  0.24916658  0.74108124  1
  O  O393  1  0.89345159  0.74898186  0.25991234  1
  O  O394  1  0.88197783  0.74222521  0.74307004  1
  O  O395  1  0.38452487  0.49219733  0.49980742  1
  O  O396  1  0.37950107  0.49390701  0.99301759  1
  O  O397  1  0.36752782  0.98828789  0.49446860  1
  O  O398  1  0.38047112  0.99015661  0.99456590  1
  O  O399  1  0.88257090  0.51097021  0.51737248  1
  O  O400  1  0.87689689  0.49652599  0.99533312  1
  O  O401  1  0.89708558  0.99014351  0.50932446  1
  O  O402  1  0.88855220  0.99244750  0.99317940  1
  O  O403  1  0.11424804  -0.00294556  0.00408503  1
  O  O404  1  0.13037830  0.01066581  0.51532889  1
  O  O405  1  0.11892038  0.50130650  0.00369707  1
  O  O406  1  0.13042623  0.50099138  0.51405318  1
  O  O407  1  0.62272049  0.00643652  0.01409406  1
  O  O408  1  0.61814680  0.01098527  0.51416103  1
  O  O409  1  0.62451842  0.51811257  -0.00334291  1
  O  O410  1  0.61196201  0.50687451  0.49634540  1
  O  O411  1  0.36935693  0.36833588  0.11969713  1
  O  O412  1  0.38083178  0.36460707  0.61672337  1
  O  O413  1  0.36820070  0.86740679  0.11867063  1
  O  O414  1  0.37298224  0.86649470  0.61937521  1
  O  O415  1  0.87360174  0.37384125  0.10463115  1
  O  O416  1  0.86065766  0.36164320  0.63155389  1
  O  O417  1  0.87170478  0.87776896  0.11142093  1
  O  O418  1  0.88353949  0.86927646  0.60614281  1
  O  O419  1  0.12426413  0.13368525  0.38697411  1
  O  O420  1  0.14023367  0.12602614  0.87363399  1
  O  O421  1  0.13544943  0.62856773  0.37497940  1
  O  O422  1  0.12541580  0.62895004  0.88045706  1
  O  O423  1  0.61947864  0.13716728  0.38539541  1
  O  O424  1  0.63132093  0.13137084  0.88295449  1
  O  O425  1  0.62882663  0.62353953  0.38247123  1
  O  O426  1  0.63162066  0.63517572  0.88163712  1
