# generated using pymatgen
data_V85Zn86O256
_symmetry_space_group_name_H-M   'P 1'
_cell_length_a   16.94365509
_cell_length_b   16.93208839
_cell_length_c   16.93240300
_cell_angle_alpha   89.98988126
_cell_angle_beta   90.01386628
_cell_angle_gamma   89.99596636
_symmetry_Int_Tables_number   1
_chemical_formula_structural   V85Zn86O256
_chemical_formula_sum   'V85 Zn86 O256'
_cell_volume   4857.76168026
_cell_formula_units_Z   1
loop_
 _symmetry_equiv_pos_site_id
 _symmetry_equiv_pos_as_xyz
  1  'x, y, z'
loop_
 _atom_site_type_symbol
 _atom_site_label
 _atom_site_symmetry_multiplicity
 _atom_site_fract_x
 _atom_site_fract_y
 _atom_site_fract_z
 _atom_site_occupancy
  V  V0  1  0.37464146  0.74646685  0.10496346  1
  V  V1  1  0.25304985  0.50497147  0.25173157  1
  V  V2  1  0.48449039  0.49994091  0.49605546  1
  V  V3  1  -0.00614611  0.37605530  0.87374327  1
  V  V4  1  0.87497312  0.75675433  0.61735358  1
  V  V5  1  0.62634471  0.50283015  0.62104916  1
  V  V6  1  0.63102706  0.62189923  0.00158608  1
  V  V7  1  -0.00005854  0.62655505  0.62526152  1
  V  V8  1  0.37790645  0.76308804  0.63047605  1
  V  V9  1  -0.01927965  0.87572767  0.37784103  1
  V  V10  1  0.00215473  0.37636520  0.37422378  1
  V  V11  1  0.49850546  0.63207096  0.62537133  1
  V  V12  1  0.37301720  0.25173057  0.12904149  1
  V  V13  1  0.49771310  0.12243203  0.12428624  1
  V  V14  1  0.00027562  0.50140224  0.49871716  1
  V  V15  1  0.75064821  0.62580440  0.37223820  1
  V  V16  1  0.50353755  0.76100279  0.25066109  1
  V  V17  1  0.25786477  0.62072932  0.38306990  1
  V  V18  1  0.12730763  0.75161524  0.87528133  1
  V  V19  1  0.12099754  0.50773697  0.12606998  1
  V  V20  1  0.49625907  -0.01227000  -0.00289916  1
  V  V21  1  0.87734455  0.87870846  0.00062426  1
  V  V22  1  0.89027789  0.74897227  0.12270078  1
  V  V23  1  0.12377586  0.87682133  0.74349737  1
  V  V24  1  0.74909364  0.24974384  0.49928459  1
  V  V25  1  0.62385078  0.13158298  0.00110576  1
  V  V26  1  -0.01985465  0.00131382  0.49911482  1
  V  V27  1  0.61808540  0.87917704  0.75369637  1
  V  V28  1  0.74574450  -0.00501411  0.25810412  1
  V  V29  1  0.87560097  0.62529350  0.75064103  1
  V  V30  1  0.00084726  0.00299381  0.00176125  1
  V  V31  1  0.74663952  0.00222693  0.75392332  1
  V  V32  1  0.25353158  0.36898678  0.61694892  1
  V  V33  1  0.62386544  0.76205331  0.36902339  1
  V  V34  1  0.88403116  0.13147192  0.74965073  1
  V  V35  1  0.11915479  0.24689983  0.87271081  1
  V  V36  1  0.37859536  0.87728719  0.48215114  1
  V  V37  1  0.75190593  0.49413972  0.24502676  1
  V  V38  1  0.62594518  0.62745114  0.49516901  1
  V  V39  1  -0.00209668  0.75349187  0.74792012  1
  V  V40  1  0.74790586  0.13431325  0.87682568  1
  V  V41  1  0.88594824  0.62569106  0.24438579  1
  V  V42  1  0.12812803  0.75894382  0.37224185  1
  V  V43  1  0.36903964  0.10493952  0.25137588  1
  V  V44  1  0.13043843  0.24600599  0.38090248  1
  V  V45  1  0.37678419  0.38422271  -0.01434071  1
  V  V46  1  0.75927168  0.62505735  0.87582246  1
  V  V47  1  0.12682366  0.37656776  0.24961113  1
  V  V48  1  0.12607962  0.63022963  0.00621052  1
  V  V49  1  0.87621027  0.50178137  0.37300828  1
  V  V50  1  0.74404956  0.87638499  0.12632083  1
  V  V51  1  0.62759859  0.49191695  0.12187356  1
  V  V52  1  0.62173760  0.12495879  0.49906099  1
  V  V53  1  0.49392193  0.12400366  0.62330359  1
  V  V54  1  0.75322889  0.75226745  0.00114928  1
  V  V55  1  0.37489875  -0.01591825  0.88002258  1
  V  V56  1  0.50578856  0.61938908  0.12826641  1
  V  V57  1  0.87151971  0.37636816  0.00375984  1
  V  V58  1  0.11954066  0.36848128  0.74884317  1
  V  V59  1  -0.00301963  0.50440596  -0.00179477  1
  V  V60  1  0.61991069  0.37021964  0.76138872  1
  V  V61  1  0.74707816  0.37464966  0.62475730  1
  V  V62  1  0.49784093  -0.00349474  0.48433864  1
  V  V63  1  0.24803662  0.25048790  0.00123741  1
  V  V64  1  0.62129412  0.75564587  0.87643441  1
  V  V65  1  0.25037376  -0.00890343  0.74875011  1
  V  V66  1  0.25099262  0.37918007  0.12427916  1
  V  V67  1  0.25365745  0.75441851  0.50674288  1
  V  V68  1  0.24890263  0.61870965  0.87009749  1
  V  V69  1  0.24959931  0.10866043  0.37601051  1
  V  V70  1  0.86287072  0.25335523  0.12801571  1
  V  V71  1  0.75644749  0.50016485  0.75251294  1
  V  V72  1  0.62529421  0.37156637  0.25004364  1
  V  V73  1  -0.00017742  0.24892227  0.24994379  1
  V  V74  1  0.38019941  0.62040641  0.25532027  1
  V  V75  1  0.13155817  0.00379076  0.61279844  1
  V  V76  1  0.12510199  0.12332465  0.00515903  1
  V  V77  1  0.87294120  0.11948044  0.25697045  1
  V  V78  1  0.75164621  0.87791746  0.62085750  1
  V  V79  1  0.37199725  0.12359827  0.75237365  1
  V  V80  1  0.12682474  -0.00524987  0.14622575  1
  V  V81  1  0.12340655  0.49778634  0.62832499  1
  V  V82  1  0.87448011  0.37555948  0.50010622  1
  V  V83  1  0.48645406  0.37607693  0.37831366  1
  V  V84  1  0.12931020  0.62653855  0.50326892  1
  Zn  Zn85  1  0.25269374  0.87579610  0.12349272  1
  Zn  Zn86  1  0.62140767  -0.00492800  0.12861223  1
  Zn  Zn87  1  0.00795931  0.76165573  0.24271619  1
  Zn  Zn88  1  0.74197876  0.25728125  0.00246263  1
  Zn  Zn89  1  -0.00170805  0.12683859  0.12816026  1
  Zn  Zn90  1  0.24823896  0.11949089  0.87733681  1
  Zn  Zn91  1  0.50188674  0.49361618  -0.02554419  1
  Zn  Zn92  1  0.48971264  0.26254903  0.76235172  1
  Zn  Zn93  1  0.62194643  -0.00049059  0.62507927  1
  Zn  Zn94  1  0.75395027  0.75702453  0.49341687  1
  Zn  Zn95  1  0.88327602  0.25314002  0.62918452  1
  Zn  Zn96  1  0.37783157  0.24988791  0.61950316  1
  Zn  Zn97  1  0.49626739  0.75383407  0.75627104  1
  Zn  Zn98  1  0.62234400  0.25103103  0.37535289  1
  Zn  Zn99  1  0.49886381  0.24778237  0.25257208  1
  Zn  Zn100  1  0.00722535  0.13145077  0.61708086  1
  Zn  Zn101  1  0.87473913  0.00247640  0.87653248  1
  Zn  Zn102  1  -0.00080848  0.87808697  0.87380876  1
  Zn  Zn103  1  0.41124379  0.57870320  0.79115470  1
  Zn  Zn104  1  0.25521718  0.49480222  0.75328638  1
  Zn  Zn105  1  0.25833716  0.24560302  0.49469743  1
  Zn  Zn106  1  0.75228534  0.12095667  0.37940864  1
  Zn  Zn107  1  0.18749112  0.18418060  0.19060676  1
  Zn  Zn108  1  0.18674760  0.18410965  0.68900054  1
  Zn  Zn109  1  0.20638686  0.71616024  0.19965115  1
  Zn  Zn110  1  0.19020061  0.69030276  0.68823582  1
  Zn  Zn111  1  0.68505234  0.18325521  0.18946032  1
  Zn  Zn112  1  0.68591066  0.18796361  0.68599908  1
  Zn  Zn113  1  0.69257722  0.68733446  0.18784011  1
  Zn  Zn114  1  0.68676876  0.69265088  0.68715233  1
  Zn  Zn115  1  0.31171318  0.31076003  0.31121393  1
  Zn  Zn116  1  0.30399758  0.30810697  0.80906172  1
  Zn  Zn117  1  0.31391536  0.81175332  0.30451125  1
  Zn  Zn118  1  0.30958838  0.80845465  0.81378303  1
  Zn  Zn119  1  0.81146718  0.31217103  0.31488691  1
  Zn  Zn120  1  0.81143216  0.31182071  0.81478144  1
  Zn  Zn121  1  0.81294301  0.81077969  0.30806244  1
  Zn  Zn122  1  0.81079526  0.81496995  0.81146956  1
  Zn  Zn123  1  0.18846002  0.43928379  0.43820224  1
  Zn  Zn124  1  0.18589148  0.43885258  0.93747510  1
  Zn  Zn125  1  0.19165364  0.93313293  0.43668848  1
  Zn  Zn126  1  0.19179527  0.93260587  0.94026623  1
  Zn  Zn127  1  0.68387371  0.43849025  0.43424074  1
  Zn  Zn128  1  0.69269322  0.43967549  0.93519803  1
  Zn  Zn129  1  0.68752982  0.93982191  0.43912846  1
  Zn  Zn130  1  0.68439566  0.94513511  0.93840919  1
  Zn  Zn131  1  0.30886510  0.05779730  0.06498816  1
  Zn  Zn132  1  0.31240003  0.05785605  0.55903027  1
  Zn  Zn133  1  0.30928257  0.57102494  0.06205641  1
  Zn  Zn134  1  0.31964378  0.55989411  0.59032908  1
  Zn  Zn135  1  0.81145115  0.06483404  0.06875706  1
  Zn  Zn136  1  0.80917901  0.06572254  0.56905216  1
  Zn  Zn137  1  0.81513987  0.56135723  0.06526813  1
  Zn  Zn138  1  0.81237952  0.56624120  0.56188972  1
  Zn  Zn139  1  0.43941039  0.43692093  0.18756952  1
  Zn  Zn140  1  0.43950263  0.43874567  0.68093930  1
  Zn  Zn141  1  0.43310978  0.93000984  0.17744375  1
  Zn  Zn142  1  0.43822615  0.94155408  0.68272740  1
  Zn  Zn143  1  0.93985722  0.43688603  0.18388364  1
  Zn  Zn144  1  0.93720566  0.43519103  0.68869356  1
  Zn  Zn145  1  0.93896777  0.93897247  0.18773105  1
  Zn  Zn146  1  0.93686737  0.94374206  0.68520410  1
  Zn  Zn147  1  0.05714848  0.06414346  0.32424827  1
  Zn  Zn148  1  0.06348361  0.05980793  0.81538252  1
  Zn  Zn149  1  0.06825631  0.56957828  0.31428098  1
  Zn  Zn150  1  0.06337616  0.56104443  0.81378507  1
  Zn  Zn151  1  0.56481182  0.06348087  0.31050920  1
  Zn  Zn152  1  0.54020948  0.10229414  0.83520624  1
  Zn  Zn153  1  0.56394986  0.55874925  0.31423057  1
  Zn  Zn154  1  0.57792343  0.56575722  0.80993838  1
  Zn  Zn155  1  0.43200137  0.18885229  0.43565238  1
  Zn  Zn156  1  0.43041682  0.18789263  0.93886389  1
  Zn  Zn157  1  0.43969901  0.69126356  0.43676867  1
  Zn  Zn158  1  0.44896735  0.66445581  0.93256567  1
  Zn  Zn159  1  0.93784153  0.18760694  0.43932752  1
  Zn  Zn160  1  0.93570661  0.18935045  0.93833801  1
  Zn  Zn161  1  0.93977101  0.68935462  0.43592670  1
  Zn  Zn162  1  0.94345319  0.68992302  0.93777046  1
  Zn  Zn163  1  0.05977268  0.31422860  0.06373386  1
  Zn  Zn164  1  0.06264843  0.30938427  0.56097226  1
  Zn  Zn165  1  0.09101099  0.83000218  0.05130199  1
  Zn  Zn166  1  0.06230252  0.81917109  0.55936551  1
  Zn  Zn167  1  0.55498965  0.31337056  0.06130235  1
  Zn  Zn168  1  0.55798112  0.31029651  0.56374556  1
  Zn  Zn169  1  0.56235276  0.80770734  0.06352871  1
  Zn  Zn170  1  0.56409222  0.81627539  0.55989968  1
  O  O171  1  0.12124436  0.11987378  0.11960268  1
  O  O172  1  0.12318581  0.10762725  0.63039021  1
  O  O173  1  0.13053409  0.62006218  0.11374415  1
  O  O174  1  0.12043488  0.61748550  0.62239311  1
  O  O175  1  0.61322832  0.12058095  0.12243822  1
  O  O176  1  0.61722616  0.12374201  0.61506816  1
  O  O177  1  0.62509383  0.61655843  0.12168974  1
  O  O178  1  0.61904820  0.62673825  0.61489318  1
  O  O179  1  0.38772144  0.37689417  0.36890650  1
  O  O180  1  0.36599617  0.37113919  0.88694966  1
  O  O181  1  0.37532150  0.86651863  0.38279005  1
  O  O182  1  0.37108339  0.88421852  0.87468492  1
  O  O183  1  0.88129237  0.38261105  0.37980718  1
  O  O184  1  0.88795138  0.36855076  0.88127745  1
  O  O185  1  0.88261033  0.86441384  0.38424102  1
  O  O186  1  0.87541742  0.87635416  0.88892150  1
  O  O187  1  0.24546449  0.00979470  0.37016369  1
  O  O188  1  0.25478572  -0.00238389  0.86959036  1
  O  O189  1  0.24479232  0.51405372  0.37072558  1
  O  O190  1  0.24490540  0.51195947  0.87063323  1
  O  O191  1  0.75045790  -0.00080455  0.36241292  1
  O  O192  1  0.75455921  0.00964283  0.86951225  1
  O  O193  1  0.75707644  0.50539682  0.36688903  1
  O  O194  1  0.74971341  0.51166536  0.86428636  1
  O  O195  1  0.24025567  0.49949406  0.13044252  1
  O  O196  1  0.23384426  0.48808455  0.62193308  1
  O  O197  1  0.23195407  0.99606525  0.12516467  1
  O  O198  1  0.23868874  0.99959031  0.63118571  1
  O  O199  1  0.73837954  0.50143295  0.13151622  1
  O  O200  1  0.74616765  0.49506259  0.62970561  1
  O  O201  1  0.74750613  0.99183725  0.13322468  1
  O  O202  1  0.74630016  0.99423751  0.63426683  1
  O  O203  1  0.00586417  0.36996513  0.25607662  1
  O  O204  1  0.00935789  0.37808328  0.75841361  1
  O  O205  1  -0.00925873  0.87634163  0.27096430  1
  O  O206  1  0.00480296  0.87295469  0.75092581  1
  O  O207  1  0.50688293  0.37576037  0.26137040  1
  O  O208  1  0.51357102  0.37756413  0.74413370  1
  O  O209  1  0.49898275  0.85946908  0.24247426  1
  O  O210  1  0.51501301  0.87829872  0.74638787  1
  O  O211  1  0.48788059  0.12318556  0.24149126  1
  O  O212  1  0.48158484  0.10838573  0.73653961  1
  O  O213  1  0.49825534  0.62443772  0.24361573  1
  O  O214  1  0.50733200  0.63092496  0.73601878  1
  O  O215  1  0.99136088  0.13344217  0.25330895  1
  O  O216  1  0.98505964  0.11774667  0.75197418  1
  O  O217  1  0.98755626  0.62507681  0.25390115  1
  O  O218  1  0.99566924  0.63036982  0.74411435  1
  O  O219  1  0.36802601  0.25704901  0.00948314  1
  O  O220  1  0.37181937  0.24933016  0.50597766  1
  O  O221  1  0.39652377  0.73794294  0.00886028  1
  O  O222  1  0.37200466  0.76052383  0.50304683  1
  O  O223  1  0.87545777  0.25744727  0.01212412  1
  O  O224  1  0.86620959  0.25855394  0.49984673  1
  O  O225  1  0.87332314  0.75741841  0.00505198  1
  O  O226  1  0.87335538  0.74360637  0.51364889  1
  O  O227  1  0.12857199  0.25301996  0.48313173  1
  O  O228  1  0.12692482  0.24099557  0.99843254  1
  O  O229  1  0.13499150  0.74747295  0.49754868  1
  O  O230  1  0.10420620  0.73541463  0.98643981  1
  O  O231  1  0.63117992  0.24323140  0.50085355  1
  O  O232  1  0.62432323  0.23732921  1.00925329  1
  O  O233  1  0.62504413  0.74088768  0.48993494  1
  O  O234  1  0.63403094  0.74373050  0.99542047  1
  O  O235  1  0.48902776  0.24074174  0.12673402  1
  O  O236  1  0.49959257  0.23595808  0.63271463  1
  O  O237  1  0.49956724  0.73919142  0.13429258  1
  O  O238  1  0.49668737  0.74783023  0.62649651  1
  O  O239  1  0.99525019  0.25130376  0.13956978  1
  O  O240  1  0.99611909  0.24384201  0.61829529  1
  O  O241  1  0.99136870  0.75974270  0.12395234  1
  O  O242  1  0.99449759  0.74837840  0.62847904  1
  O  O243  1  0.00644880  0.25463654  0.36629544  1
  O  O244  1  0.01205243  0.25903830  0.88322471  1
  O  O245  1  0.00964487  0.76355290  0.38149703  1
  O  O246  1  0.00775827  0.75180279  0.86294103  1
  O  O247  1  0.50153161  0.26338236  0.37355892  1
  O  O248  1  0.50564431  0.21220549  0.86143121  1
  O  O249  1  0.50862656  0.74475450  0.35877984  1
  O  O250  1  0.51807276  0.74112439  0.87466068  1
  O  O251  1  0.25656212  0.12225667  0.48003007  1
  O  O252  1  0.24117109  0.13095661  1.00120239  1
  O  O253  1  0.24956375  0.62964319  0.49930536  1
  O  O254  1  0.23522575  0.61752529  0.98458413  1
  O  O255  1  0.74233992  0.13267895  0.50142346  1
  O  O256  1  0.74198652  0.12597712  0.99625596  1
  O  O257  1  0.74289816  0.62873176  0.49181627  1
  O  O258  1  0.75018646  0.62876649  0.99354726  1
  O  O259  1  0.25616733  0.37140468  0.00578693  1
  O  O260  1  0.24307830  0.37364176  0.51424741  1
  O  O261  1  0.20210022  0.85912688  0.02120422  1
  O  O262  1  0.26468037  0.86575170  0.49661598  1
  O  O263  1  0.76629943  0.37494067  -0.00696115  1
  O  O264  1  0.75196269  0.37149835  0.50637815  1
  O  O265  1  0.75871689  0.87458930  0.00662041  1
  O  O266  1  0.74474680  0.87500080  0.51589560  1
  O  O267  1  0.13031270  0.49957090  0.24330908  1
  O  O268  1  0.12265148  0.49032040  0.74095807  1
  O  O269  1  0.12085726  1.01381788  0.24276862  1
  O  O270  1  0.13030806  0.99377300  0.74505751  1
  O  O271  1  0.63428356  0.49372253  0.24335239  1
  O  O272  1  0.63745906  0.49359311  0.74116014  1
  O  O273  1  0.64069947  1.00258369  0.24735784  1
  O  O274  1  0.63745523  0.99461900  0.75051652  1
  O  O275  1  0.37301914  0.00651278  0.24166836  1
  O  O276  1  0.36588328  -0.00113911  0.75587599  1
  O  O277  1  0.36988386  0.51247911  0.24372672  1
  O  O278  1  0.36280207  0.51576357  0.71317405  1
  O  O279  1  0.86335913  0.01000880  0.24296899  1
  O  O280  1  0.86405989  0.01025268  0.75192445  1
  O  O281  1  0.86979053  0.50471173  0.24983072  1
  O  O282  1  0.86373946  0.50666702  0.74392862  1
  O  O283  1  0.12213964  0.37009659  0.36750058  1
  O  O284  1  0.11807079  0.36801217  0.86870694  1
  O  O285  1  0.12481306  0.86112643  0.37636861  1
  O  O286  1  0.12104511  0.86810152  0.86184789  1
  O  O287  1  0.61930585  0.37543347  0.36217378  1
  O  O288  1  0.62601271  0.38257239  0.86021017  1
  O  O289  1  0.63080691  0.86099277  0.37758035  1
  O  O290  1  0.63501828  0.86713422  0.86765470  1
  O  O291  1  0.37658657  0.12950399  0.13352175  1
  O  O292  1  0.37856179  0.12231611  0.63057731  1
  O  O293  1  0.39123004  0.62349720  0.13095096  1
  O  O294  1  0.39310915  0.64516638  0.61180869  1
  O  O295  1  0.87695872  0.13624140  0.13675768  1
  O  O296  1  0.87464729  0.12707259  0.64083723  1
  O  O297  1  0.87239955  0.63589005  0.13237984  1
  O  O298  1  0.88105216  0.63249365  0.63095525  1
  O  O299  1  0.25399291  0.25653804  0.12074903  1
  O  O300  1  0.24158412  0.26155983  0.62183790  1
  O  O301  1  0.27691840  0.71722574  0.10773690  1
  O  O302  1  0.26097490  0.74467263  0.61452883  1
  O  O303  1  0.75991720  0.24859151  0.12634953  1
  O  O304  1  0.75191713  0.25853250  0.61510071  1
  O  O305  1  0.75956324  0.75728903  0.11958714  1
  O  O306  1  0.75868339  0.75880088  0.62443305  1
  O  O307  1  0.24316917  0.24312722  0.37219506  1
  O  O308  1  0.23597748  0.24781862  0.88398555  1
  O  O309  1  0.24348390  0.73985488  0.38651868  1
  O  O310  1  0.23227213  0.74190707  0.86920340  1
  O  O311  1  0.74607632  0.25151414  0.38905908  1
  O  O312  1  0.75128387  0.23860817  0.88077459  1
  O  O313  1  0.74355241  0.74289607  0.37209458  1
  O  O314  1  0.74599029  0.74525382  0.88216719  1
  O  O315  1  0.00567732  0.12102926  0.00342375  1
  O  O316  1  -0.00242384  0.10686805  0.49526724  1
  O  O317  1  0.00674750  0.61093396  -0.00633079  1
  O  O318  1  0.00692802  0.62081822  0.50613741  1
  O  O319  1  0.50224682  0.11899290  0.01270058  1
  O  O320  1  0.50417966  0.11953600  0.50307181  1
  O  O321  1  0.51481479  0.61898186  0.01733295  1
  O  O322  1  0.50937352  0.61932918  0.50009774  1
  O  O323  1  0.50681474  0.38458024  0.48754253  1
  O  O324  1  0.48400713  0.37871779  0.99712743  1
  O  O325  1  0.48949163  0.88145767  0.49790977  1
  O  O326  1  0.50683062  0.88929899  1.00371906  1
  O  O327  1  0.99565318  0.38239772  0.49258314  1
  O  O328  1  0.99332491  0.38236255  0.99417364  1
  O  O329  1  1.00217597  0.88829730  0.49018188  1
  O  O330  1  0.99468362  0.88571839  0.99963557  1
  O  O331  1  0.50376158  0.48825544  0.38333838  1
  O  O332  1  0.48694968  0.54982407  0.87547375  1
  O  O333  1  0.50191838  1.00422575  0.38487634  1
  O  O334  1  0.49107977  1.00608904  0.89051627  1
  O  O335  1  0.99599564  0.49748385  0.37826575  1
  O  O336  1  1.00586665  0.48835127  0.88528854  1
  O  O337  1  0.99961975  0.98797049  0.38805524  1
  O  O338  1  0.99643297  0.99986054  0.88908838  1
  O  O339  1  0.00624014  0.00667010  0.11681106  1
  O  O340  1  0.00800617  0.00196221  0.61089950  1
  O  O341  1  0.01422905  0.49618976  0.11766672  1
  O  O342  1  0.00769768  0.50321577  0.62058905  1
  O  O343  1  0.49819887  0.00429333  0.11611998  1
  O  O344  1  0.50116223  0.01004812  0.61196760  1
  O  O345  1  0.51543570  0.50424969  0.12889994  1
  O  O346  1  0.50926804  0.51002302  0.61415993  1
  O  O347  1  0.24565628  0.38420834  0.24509323  1
  O  O348  1  0.23543839  0.37594048  0.74150573  1
  O  O349  1  0.23920529  0.82546248  0.22626370  1
  O  O350  1  0.24069699  0.88380884  0.75118172  1
  O  O351  1  0.74408132  0.38688908  0.25453967  1
  O  O352  1  0.74598781  0.38216913  0.74453468  1
  O  O353  1  0.75841881  0.88739330  0.24209262  1
  O  O354  1  0.74519721  0.88381156  0.74334965  1
  O  O355  1  0.26380810  0.12621510  0.25539225  1
  O  O356  1  0.25727421  0.11146363  0.75043587  1
  O  O357  1  0.26165078  0.62481233  0.26139528  1
  O  O358  1  0.23625637  0.61940342  0.76453604  1
  O  O359  1  0.75495950  0.11336315  0.25210792  1
  O  O360  1  0.75265794  0.12070075  0.75775547  1
  O  O361  1  0.75918810  0.61367060  0.25372444  1
  O  O362  1  0.75386624  0.61988948  0.75516770  1
  O  O363  1  0.36592027  0.12522252  0.35825022  1
  O  O364  1  0.36743651  0.11249989  0.86670355  1
  O  O365  1  0.36940473  0.62886354  0.36874551  1
  O  O366  1  0.35137762  0.63939832  0.87203538  1
  O  O367  1  0.87019268  0.13358971  0.36134146  1
  O  O368  1  0.86806917  0.12520158  0.86670335  1
  O  O369  1  0.87045359  0.62128693  0.36777162  1
  O  O370  1  0.86613746  0.63331703  0.86914999  1
  O  O371  1  0.13118334  0.38340396  0.13014330  1
  O  O372  1  0.12686117  0.37995995  0.63140168  1
  O  O373  1  0.10588894  0.89510729  0.14496455  1
  O  O374  1  0.12014379  0.88720522  0.63570477  1
  O  O375  1  0.61791932  0.37977162  0.13715152  1
  O  O376  1  0.63552465  0.38099669  0.62700646  1
  O  O377  1  0.64041934  0.87239804  0.12080175  1
  O  O378  1  0.63354750  0.87555797  0.63470958  1
  O  O379  1  0.11742388  0.25557913  0.25543467  1
  O  O380  1  0.12731854  0.25527878  0.76067228  1
  O  O381  1  0.11513710  0.72851775  0.27145572  1
  O  O382  1  0.11800512  0.75871854  0.75061434  1
  O  O383  1  0.62207790  0.25739251  0.25175364  1
  O  O384  1  0.62898559  0.26928047  0.74617509  1
  O  O385  1  0.61358292  0.74295623  0.25432637  1
  O  O386  1  0.62797093  0.76138973  0.75986842  1
  O  O387  1  0.37584296  0.24703574  0.23708040  1
  O  O388  1  0.37146222  0.23823482  0.74516750  1
  O  O389  1  0.39128993  0.73582099  0.24290750  1
  O  O390  1  0.37824176  0.75597352  0.73903922  1
  O  O391  1  0.88081680  0.24864770  0.24553415  1
  O  O392  1  0.86951413  0.23560387  0.74971569  1
  O  O393  1  0.87906723  0.74194577  0.24066121  1
  O  O394  1  0.87970337  0.74569903  0.74177795  1
  O  O395  1  0.38629269  0.50484970  0.50891016  1
  O  O396  1  0.37320709  0.48631436  1.00348856  1
  O  O397  1  0.38058357  0.98418469  0.49908322  1
  O  O398  1  0.38523051  1.00178001  0.99571623  1
  O  O399  1  0.88020907  0.49618037  0.49475054  1
  O  O400  1  0.88637162  0.49175993  1.00885986  1
  O  O401  1  0.88144493  0.99986326  0.50596815  1
  O  O402  1  0.88248239  0.99527774  1.00360437  1
  O  O403  1  0.11773595  0.01298893  0.00250121  1
  O  O404  1  0.12741085  -0.00553898  0.51215583  1
  O  O405  1  0.11775319  0.50545961  0.00794155  1
  O  O406  1  0.11799886  0.50539400  0.50744003  1
  O  O407  1  0.61215058  0.00993553  0.00471686  1
  O  O408  1  0.61739832  0.00777155  0.50149418  1
  O  O409  1  0.62355531  0.50075027  0.00572639  1
  O  O410  1  0.62431457  0.51310779  0.50289228  1
  O  O411  1  0.36965236  0.36802912  0.12049993  1
  O  O412  1  0.35560028  0.37154102  0.63222405  1
  O  O413  1  0.37178467  0.85227307  0.11912052  1
  O  O414  1  0.38090861  0.86581313  0.61298522  1
  O  O415  1  0.87967957  0.36603663  0.11641345  1
  O  O416  1  0.86266843  0.37615464  0.62011217  1
  O  O417  1  0.86946330  0.86984943  0.11554618  1
  O  O418  1  0.86639747  0.86715313  0.63244276  1
  O  O419  1  0.14089944  0.13264931  0.36588894  1
  O  O420  1  0.12544715  0.13130810  0.88338053  1
  O  O421  1  0.13325053  0.63115380  0.38890384  1
  O  O422  1  0.12884341  0.63118099  0.88069128  1
  O  O423  1  0.62712174  0.12863054  0.38700829  1
  O  O424  1  0.63861349  0.11580751  0.88952657  1
  O  O425  1  0.63216507  0.62912672  0.37937974  1
  O  O426  1  0.64298400  0.63416043  0.88060249  1
