# generated using pymatgen
data_V85Zn86O256
_symmetry_space_group_name_H-M   'P 1'
_cell_length_a   16.93371502
_cell_length_b   16.93651268
_cell_length_c   16.94931579
_cell_angle_alpha   89.89697221
_cell_angle_beta   89.95433744
_cell_angle_gamma   89.93146674
_symmetry_Int_Tables_number   1
_chemical_formula_structural   V85Zn86O256
_chemical_formula_sum   'V85 Zn86 O256'
_cell_volume   4861.01833969
_cell_formula_units_Z   1
loop_
 _symmetry_equiv_pos_site_id
 _symmetry_equiv_pos_as_xyz
  1  'x, y, z'
loop_
 _atom_site_type_symbol
 _atom_site_label
 _atom_site_symmetry_multiplicity
 _atom_site_fract_x
 _atom_site_fract_y
 _atom_site_fract_z
 _atom_site_occupancy
  V  V0  1  0.49793230  0.37294741  0.87384732  1
  V  V1  1  0.24892751  0.75829729  0.48960519  1
  V  V2  1  0.49033515  0.88114620  0.37411924  1
  V  V3  1  0.74925780  0.62341041  0.87703518  1
  V  V4  1  0.62062144  0.62314591  0.50589529  1
  V  V5  1  0.88047586  0.24936024  0.63089286  1
  V  V6  1  0.75197991  0.12515616  0.37602932  1
  V  V7  1  0.00216937  0.50158107  0.49748303  1
  V  V8  1  0.49347682  0.00364189  0.49865273  1
  V  V9  1  0.62367213  0.62476666  -0.00015738  1
  V  V10  1  0.75325955  -0.00224202  0.75178365  1
  V  V11  1  0.62451494  0.75952733  0.37272135  1
  V  V12  1  0.62735361  0.12625978  0.00008875  1
  V  V13  1  0.74867996  -0.00130775  0.25110636  1
  V  V14  1  0.37317068  0.74707568  0.12556711  1
  V  V15  1  0.74788556  0.62638799  0.37472363  1
  V  V16  1  0.37533005  0.75681387  0.62352429  1
  V  V17  1  0.75029663  0.74956851  0.00255629  1
  V  V18  1  0.50021933  0.24271415  0.74882023  1
  V  V19  1  0.49956719  0.12317404  0.12738608  1
  V  V20  1  0.50203958  0.75563049  0.24955639  1
  V  V21  1  0.74566758  0.49816503  0.75107201  1
  V  V22  1  0.49693044  0.50014050  0.00004320  1
  V  V23  1  0.48454892  0.38210216  0.37901332  1
  V  V24  1  0.61820379  0.00052115  0.63004393  1
  V  V25  1  0.00461883  0.11160955  0.11516681  1
  V  V26  1  0.36965703  0.37232056  0.00059322  1
  V  V27  1  0.13511694  0.62780893  0.48638945  1
  V  V28  1  0.23401168  -0.00613004  0.25166644  1
  V  V29  1  0.87644079  0.87611017  0.49723888  1
  V  V30  1  0.37493669  0.11042177  0.25605968  1
  V  V31  1  0.74893653  0.50029383  0.24987869  1
  V  V32  1  0.12793969  0.62834505  -0.01547847  1
  V  V33  1  0.37505166  0.12182469  0.75267623  1
  V  V34  1  0.00106592  0.36580464  0.86919034  1
  V  V35  1  0.00871767  0.49844712  0.00338550  1
  V  V36  1  0.00267323  0.37304388  0.37503020  1
  V  V37  1  0.62477474  -0.00581445  0.12808949  1
  V  V38  1  0.01127085  0.62426576  0.12408081  1
  V  V39  1  0.25353528  -0.00363055  0.75325827  1
  V  V40  1  -0.01571218  0.86947432  0.86844451  1
  V  V41  1  0.23769994  0.87396887  0.12959685  1
  V  V42  1  0.24034273  0.25357212  0.50191154  1
  V  V43  1  0.13180866  -0.00709255  0.62279789  1
  V  V44  1  0.37978691  0.62053158  0.74557421  1
  V  V45  1  0.74879553  0.75133045  0.49914596  1
  V  V46  1  0.13172111  0.50031833  0.62479259  1
  V  V47  1  0.48541423  0.50156609  0.50432828  1
  V  V48  1  0.74535466  0.87643970  0.62660642  1
  V  V49  1  0.12484685  0.37612569  0.24075042  1
  V  V50  1  0.24772735  0.11944177  0.38266509  1
  V  V51  1  0.00922580  0.12726560  0.62366396  1
  V  V52  1  0.24423456  0.50703403  0.25532710  1
  V  V53  1  0.49602737  0.25088148  0.25371941  1
  V  V54  1  0.87491445  0.50109593  0.37557525  1
  V  V55  1  0.62034158  0.12621765  0.50723442  1
  V  V56  1  0.75315696  0.36651727  0.12639238  1
  V  V57  1  0.62282087  0.37700841  0.25272085  1
  V  V58  1  0.88111802  0.75055876  0.12382145  1
  V  V59  1  0.87724007  0.36816711  0.00410441  1
  V  V60  1  0.00471538  0.00435613  0.49890908  1
  V  V61  1  0.75027490  0.25033871  0.50314591  1
  V  V62  1  0.62380644  0.25339831  0.37788336  1
  V  V63  1  0.49591343  -0.00091162  -0.00812433  1
  V  V64  1  0.00300903  0.62606089  0.62164754  1
  V  V65  1  0.13045152  0.23912993  0.87728462  1
  V  V66  1  0.87717675  0.62458129  0.74874675  1
  V  V67  1  0.37427901  0.87628032  -0.00566865  1
  V  V68  1  0.88252727  0.12295026  0.75311056  1
  V  V69  1  0.62280783  0.75991825  0.86918458  1
  V  V70  1  0.12759991  0.36814399  0.74825158  1
  V  V71  1  0.36957092  0.24832451  0.12872064  1
  V  V72  1  0.62495335  0.49978227  0.12526621  1
  V  V73  1  0.01465105  0.75343361  0.25193230  1
  V  V74  1  0.13279521  0.86393475  0.75272024  1
  V  V75  1  0.87610586  0.62636506  0.24825119  1
  V  V76  1  0.01244334  0.87172636  0.37186623  1
  V  V77  1  0.75053371  0.87441486  0.13051821  1
  V  V78  1  0.38267889  0.25212352  0.61703894  1
  V  V79  1  0.75741679  0.12165208  0.87726135  1
  V  V80  1  0.37424532  0.62107624  0.26541230  1
  V  V81  1  0.87712349  0.49777094  0.87663374  1
  V  V82  1  0.74907720  0.37568747  0.62548465  1
  V  V83  1  0.24763698  0.74615010  -0.01205051  1
  V  V84  1  -0.00681957  0.24880986  0.24020466  1
  Zn  Zn85  1  0.24423552  0.23697388  0.00709336  1
  Zn  Zn86  1  0.50714781  0.75146536  0.73383303  1
  Zn  Zn87  1  0.24701825  0.37977883  0.12545427  1
  Zn  Zn88  1  0.24694503  0.50598935  0.76294227  1
  Zn  Zn89  1  0.87828026  0.00174958  0.37229433  1
  Zn  Zn90  1  0.00643426  0.00194604  -0.01209800  1
  Zn  Zn91  1  0.62726237  0.24960821  0.87428862  1
  Zn  Zn92  1  0.87605286  0.75090338  0.62386386  1
  Zn  Zn93  1  0.87187536  0.13052601  0.24147034  1
  Zn  Zn94  1  0.61889437  0.50447650  0.62766705  1
  Zn  Zn95  1  0.36642879  0.51528813  0.88296300  1
  Zn  Zn96  1  0.01143538  0.74335777  0.74809144  1
  Zn  Zn97  1  0.25928989  0.11216042  0.88608069  1
  Zn  Zn98  1  0.62167674  0.37475123  0.75075117  1
  Zn  Zn99  1  0.75598025  0.24524401  0.00360045  1
  Zn  Zn100  1  0.12056789  0.24299992  0.37730337  1
  Zn  Zn101  1  0.49756429  0.88000443  0.86223264  1
  Zn  Zn102  1  0.25581093  0.37819646  0.62238311  1
  Zn  Zn103  1  0.87280608  0.88642923  -0.00421096  1
  Zn  Zn104  1  0.49856822  0.62483438  0.12727127  1
  Zn  Zn105  1  0.36647146  0.88582156  0.50271831  1
  Zn  Zn106  1  0.87681989  0.37579246  0.50196363  1
  Zn  Zn107  1  0.18462122  0.18576545  0.19363800  1
  Zn  Zn108  1  0.19146856  0.18594120  0.69072666  1
  Zn  Zn109  1  0.19002773  0.68613791  0.18460217  1
  Zn  Zn110  1  0.19911962  0.68534198  0.68048519  1
  Zn  Zn111  1  0.68446668  0.18665339  0.18988490  1
  Zn  Zn112  1  0.68817036  0.18630252  0.69063727  1
  Zn  Zn113  1  0.68508356  0.68799115  0.18805199  1
  Zn  Zn114  1  0.69012554  0.68731556  0.68674143  1
  Zn  Zn115  1  0.30663203  0.31074329  0.31376510  1
  Zn  Zn116  1  0.31102637  0.31446486  0.81033555  1
  Zn  Zn117  1  0.31236047  0.81213518  0.31438740  1
  Zn  Zn118  1  0.31575829  0.81185352  0.80838836  1
  Zn  Zn119  1  0.81407007  0.31448140  0.31510484  1
  Zn  Zn120  1  0.81315231  0.30789772  0.81428459  1
  Zn  Zn121  1  0.81729886  0.81408224  0.31145253  1
  Zn  Zn122  1  0.80776022  0.80779707  0.80749445  1
  Zn  Zn123  1  0.19101586  0.43716882  0.43338555  1
  Zn  Zn124  1  0.18734068  0.43433904  0.93710396  1
  Zn  Zn125  1  0.18666817  0.94040031  0.43422360  1
  Zn  Zn126  1  0.18372487  0.93572710  0.93263092  1
  Zn  Zn127  1  0.68438050  0.43899887  0.43996915  1
  Zn  Zn128  1  0.68606944  0.43483087  0.93867583  1
  Zn  Zn129  1  0.68365884  0.93937695  0.43934211  1
  Zn  Zn130  1  0.69208370  0.94064296  0.94128748  1
  Zn  Zn131  1  0.30867463  0.05885958  0.06772183  1
  Zn  Zn132  1  0.31332986  0.07138686  0.56900282  1
  Zn  Zn133  1  0.30824590  0.56278259  0.06871469  1
  Zn  Zn134  1  0.31320836  0.57264282  0.56737654  1
  Zn  Zn135  1  0.82519543  0.06263617  0.06295599  1
  Zn  Zn136  1  0.81476190  0.06200713  0.56422791  1
  Zn  Zn137  1  0.81641031  0.55904656  0.06311530  1
  Zn  Zn138  1  0.81169678  0.56210693  0.56191271  1
  Zn  Zn139  1  0.43320014  0.43956734  0.18808142  1
  Zn  Zn140  1  0.43622661  0.43444166  0.68631811  1
  Zn  Zn141  1  0.43581225  0.93235315  0.18179631  1
  Zn  Zn142  1  0.43780014  0.93210528  0.68802183  1
  Zn  Zn143  1  0.93795965  0.43836545  0.18632280  1
  Zn  Zn144  1  0.93982310  0.43876171  0.68788475  1
  Zn  Zn145  1  0.93675200  0.93781240  0.18839033  1
  Zn  Zn146  1  0.93959605  0.93681610  0.68637297  1
  Zn  Zn147  1  0.06239682  0.06511871  0.31336572  1
  Zn  Zn148  1  0.06289961  0.05406193  0.80840667  1
  Zn  Zn149  1  0.06343560  0.56213245  0.30909869  1
  Zn  Zn150  1  0.06258405  0.55576854  0.81119094  1
  Zn  Zn151  1  0.56591951  0.06283843  0.31472492  1
  Zn  Zn152  1  0.56682706  0.06418034  0.81217075  1
  Zn  Zn153  1  0.55922808  0.56581196  0.31771657  1
  Zn  Zn154  1  0.55625746  0.56796475  0.81234563  1
  Zn  Zn155  1  0.43421801  0.18735623  0.43634664  1
  Zn  Zn156  1  0.43587450  0.18702927  0.93749140  1
  Zn  Zn157  1  0.43869697  0.69061114  0.44257330  1
  Zn  Zn158  1  0.43637804  0.68841518  0.93448071  1
  Zn  Zn159  1  0.93636996  0.18872650  0.44030394  1
  Zn  Zn160  1  0.94164597  0.18407577  0.94023290  1
  Zn  Zn161  1  0.93898739  0.68970918  0.43670231  1
  Zn  Zn162  1  0.94222768  0.69325935  0.93603337  1
  Zn  Zn163  1  0.06344629  0.30843265  0.06034409  1
  Zn  Zn164  1  0.06312983  0.31319901  0.56307563  1
  Zn  Zn165  1  0.08105435  0.84310841  0.03966233  1
  Zn  Zn166  1  0.06589836  0.81182120  0.56134953  1
  Zn  Zn167  1  0.56000336  0.31138944  0.06439381  1
  Zn  Zn168  1  0.56115616  0.31844573  0.56302915  1
  Zn  Zn169  1  0.56201856  0.81358075  0.06071980  1
  Zn  Zn170  1  0.56008775  0.81665099  0.56031091  1
  O  O171  1  0.10170299  0.13569967  0.13525597  1
  O  O172  1  0.11249058  0.11876631  0.63488053  1
  O  O173  1  0.11363530  0.62850675  0.11536832  1
  O  O174  1  0.11908063  0.61752562  0.61796322  1
  O  O175  1  0.62055873  0.11558908  0.12071969  1
  O  O176  1  0.63223086  0.11666005  0.61540113  1
  O  O177  1  0.62268289  0.61842554  0.11750257  1
  O  O178  1  0.63036613  0.62596748  0.61005624  1
  O  O179  1  0.38686655  0.37171552  0.37249770  1
  O  O180  1  0.38511559  0.37070701  0.88502595  1
  O  O181  1  0.38750717  0.87396938  0.38039307  1
  O  O182  1  0.37786606  0.86755435  0.89028669  1
  O  O183  1  0.88562622  0.38247889  0.37707027  1
  O  O184  1  0.88244995  0.37783812  0.87970478  1
  O  O185  1  0.87755445  0.87890244  0.38696791  1
  O  O186  1  0.88061794  0.87333741  0.86656827  1
  O  O187  1  0.25126955  0.00528325  0.36409724  1
  O  O188  1  0.24624605  -0.00353934  0.85979636  1
  O  O189  1  0.25405561  0.49286063  0.35570999  1
  O  O190  1  0.25635676  0.49470881  0.87591999  1
  O  O191  1  0.74667112  0.00785631  0.36835158  1
  O  O192  1  0.74627830  0.01132784  0.86653258  1
  O  O193  1  0.75415432  0.50468480  0.36931706  1
  O  O194  1  0.75476743  0.50279510  0.86908542  1
  O  O195  1  0.25971550  0.49415183  0.14598561  1
  O  O196  1  0.23878259  0.49911077  0.62064570  1
  O  O197  1  0.25411121  0.98908815  0.14249594  1
  O  O198  1  0.23643240  1.00847768  0.62972943  1
  O  O199  1  0.74436377  0.49140859  0.13091437  1
  O  O200  1  0.74976078  0.49248848  0.63359460  1
  O  O201  1  0.74545617  0.99449935  0.13122520  1
  O  O202  1  0.74309450  0.99444236  0.62964350  1
  O  O203  1  0.00365118  0.36947792  0.25523814  1
  O  O204  1  0.00881972  0.38084626  0.76001183  1
  O  O205  1  -0.00756965  0.86499010  0.25979996  1
  O  O206  1  0.00679542  0.86834726  0.75172591  1
  O  O207  1  0.50276426  0.37402865  0.26119094  1
  O  O208  1  0.49931781  0.36617861  0.75903913  1
  O  O209  1  0.49505549  0.86389281  0.25647051  1
  O  O210  1  0.50048883  0.86511422  0.75104410  1
  O  O211  1  0.49419553  0.13031989  0.24960473  1
  O  O212  1  0.49619635  0.13609498  0.75345091  1
  O  O213  1  0.48977896  0.63364986  0.25047380  1
  O  O214  1  0.49038266  0.63438391  0.74715717  1
  O  O215  1  0.99564274  0.13991222  0.25447522  1
  O  O216  1  0.98824801  0.11616721  0.74215890  1
  O  O217  1  0.99476059  0.62915455  0.24203002  1
  O  O218  1  0.99373429  0.62142896  0.74077750  1
  O  O219  1  0.37644321  0.25609206  0.01149022  1
  O  O220  1  0.36998401  0.24593094  0.51339895  1
  O  O221  1  0.36767928  0.75168513  0.00749239  1
  O  O222  1  0.36484073  0.75110298  0.50426368  1
  O  O223  1  0.87630142  0.26439271  -0.00365289  1
  O  O224  1  0.86734389  0.25190070  0.51262232  1
  O  O225  1  0.86633575  0.74470008  0.01215496  1
  O  O226  1  0.86716046  0.75744461  0.50107983  1
  O  O227  1  0.13661632  0.24780869  0.50019535  1
  O  O228  1  0.12779060  0.25509216  0.98240385  1
  O  O229  1  0.13699817  0.73839642  0.50470411  1
  O  O230  1  0.14037690  0.74479928  1.00174836  1
  O  O231  1  0.62972250  0.24467055  0.49891790  1
  O  O232  1  0.62550905  0.23541233  1.00391665  1
  O  O233  1  0.62885473  0.74466217  0.49193200  1
  O  O234  1  0.63207202  0.74320403  0.99609440  1
  O  O235  1  0.49185216  0.24349501  0.13342907  1
  O  O236  1  0.49066643  0.25499418  0.63068504  1
  O  O237  1  0.49518378  0.75028886  0.13358486  1
  O  O238  1  0.48332499  0.75183776  0.61398442  1
  O  O239  1  0.99747107  0.25415737  0.13905793  1
  O  O240  1  0.99169516  0.24161471  0.61921894  1
  O  O241  1  0.99140714  0.74250797  0.13212762  1
  O  O242  1  0.99791932  0.73622217  0.62436575  1
  O  O243  1  0.00033380  0.25858051  0.37173926  1
  O  O244  1  0.00926404  0.26039003  0.87866133  1
  O  O245  1  -0.00718208  0.75901537  0.36366313  1
  O  O246  1  -0.00430754  0.75918319  0.86021794  1
  O  O247  1  0.50381789  0.26205362  0.37386696  1
  O  O248  1  0.50226971  0.25631099  0.86802650  1
  O  O249  1  0.50596337  0.75855615  0.37010999  1
  O  O250  1  0.51836074  0.75314778  0.88189844  1
  O  O251  1  0.25584095  0.13584999  0.49182119  1
  O  O252  1  0.25493584  0.12421490  0.99771027  1
  O  O253  1  0.23898959  0.62959897  0.49762896  1
  O  O254  1  0.24259798  0.63653562  1.00577820  1
  O  O255  1  0.74228371  0.12870953  0.49491813  1
  O  O256  1  0.74589959  0.12353184  0.99566643  1
  O  O257  1  0.74410457  0.63067240  0.49312512  1
  O  O258  1  0.74486147  0.62746045  0.99644452  1
  O  O259  1  0.26134846  0.36941544  0.00523942  1
  O  O260  1  0.24664477  0.35896722  0.50052048  1
  O  O261  1  0.25648113  0.86375198  0.00883422  1
  O  O262  1  0.24844172  0.86363041  0.49501106  1
  O  O263  1  0.75779119  0.37403262  0.00856416  1
  O  O264  1  0.75272604  0.37105047  0.50926445  1
  O  O265  1  0.75376449  0.86974706  0.01205026  1
  O  O266  1  0.75657553  0.87266176  0.50440609  1
  O  O267  1  0.13567518  0.49561651  0.25005217  1
  O  O268  1  0.12663738  0.49164402  0.74006188  1
  O  O269  1  0.13576180  0.99749649  0.25258471  1
  O  O270  1  0.13343540  0.98836164  0.74121443  1
  O  O271  1  0.62817846  0.49731432  0.24648848  1
  O  O272  1  0.63210462  0.49979712  0.74920385  1
  O  O273  1  0.63731583  1.00575845  0.24128531  1
  O  O274  1  0.63858203  1.00874264  0.73982429  1
  O  O275  1  0.37883706  0.00932831  0.24763151  1
  O  O276  1  0.36487713  0.00825582  0.73689101  1
  O  O277  1  0.37311922  0.51637161  0.24992038  1
  O  O278  1  0.37921737  0.51196324  0.74801321  1
  O  O279  1  0.86093493  0.00408914  0.25232140  1
  O  O280  1  0.86208656  0.00890428  0.74067113  1
  O  O281  1  0.86941536  0.50633293  0.25543501  1
  O  O282  1  0.86876755  0.50754096  0.75520945  1
  O  O283  1  0.11233493  0.37686584  0.36618166  1
  O  O284  1  0.11853758  0.36703461  0.86672067  1
  O  O285  1  0.11138802  0.87353570  0.37856654  1
  O  O286  1  0.11938586  0.86731132  0.85396915  1
  O  O287  1  0.62118329  0.36977085  0.36929450  1
  O  O288  1  0.61132423  0.37196447  0.87698271  1
  O  O289  1  0.61787851  0.86380598  0.37927666  1
  O  O290  1  0.62997293  0.86136019  0.88217721  1
  O  O291  1  0.38189506  0.13116403  0.13522307  1
  O  O292  1  0.37414574  0.14213694  0.63837763  1
  O  O293  1  0.37763959  0.63676813  0.13127359  1
  O  O294  1  0.37917885  0.63690807  0.63385328  1
  O  O295  1  0.89484679  0.12919643  0.12758410  1
  O  O296  1  0.88267994  0.13174195  0.63127468  1
  O  O297  1  0.88174709  0.63108585  0.12931291  1
  O  O298  1  0.88455096  0.62151733  0.63088274  1
  O  O299  1  0.26016662  0.25051189  0.12936232  1
  O  O300  1  0.25623892  0.24843160  0.61368977  1
  O  O301  1  0.25945801  0.75453958  0.12196155  1
  O  O302  1  0.26466420  0.74417321  0.60662685  1
  O  O303  1  0.74545886  0.26257538  0.12598090  1
  O  O304  1  0.75630560  0.25727093  0.62294314  1
  O  O305  1  0.75422576  0.75735090  0.12349474  1
  O  O306  1  0.75041992  0.75943824  0.61800102  1
  O  O307  1  0.24749725  0.24413371  0.38776898  1
  O  O308  1  0.23751526  0.24716726  0.87454806  1
  O  O309  1  0.25466347  0.74808923  0.38988102  1
  O  O310  1  0.25499832  0.75237356  0.89012898  1
  O  O311  1  0.74521265  0.24546348  0.38211201  1
  O  O312  1  0.74756216  0.23726021  0.87907320  1
  O  O313  1  0.74294558  0.74791389  0.37762957  1
  O  O314  1  0.74217540  0.74328880  0.88147908  1
  O  O315  1  0.00673831  0.12120040  0.00973309  1
  O  O316  1  -0.00474503  0.11510214  0.50888151  1
  O  O317  1  0.00557756  0.61988536  0.00474833  1
  O  O318  1  0.00854279  0.62212377  0.50495066  1
  O  O319  1  0.50586673  0.11795776  0.00627838  1
  O  O320  1  0.51292856  0.12067068  0.49080710  1
  O  O321  1  0.50409318  0.61604018  0.00149654  1
  O  O322  1  0.50722695  0.61023485  0.49075916  1
  O  O323  1  0.50370158  0.38664624  0.48713236  1
  O  O324  1  0.49125780  0.37977239  0.99619431  1
  O  O325  1  0.49808995  0.88734324  0.49118658  1
  O  O326  1  0.49271106  0.88342365  1.00031981  1
  O  O327  1  1.00020625  0.38235032  0.49187085  1
  O  O328  1  0.99538820  0.38157469  0.99586399  1
  O  O329  1  0.99283242  0.87861822  0.49440831  1
  O  O330  1  0.98619855  0.85266122  0.97599590  1
  O  O331  1  0.50186876  0.48835913  0.38364028  1
  O  O332  1  0.49595787  0.49334570  0.88682167  1
  O  O333  1  0.50922404  0.99179500  0.38422283  1
  O  O334  1  0.50916798  0.99812925  0.88845433  1
  O  O335  1  0.99496624  0.49420436  0.37749543  1
  O  O336  1  0.99535707  0.48942216  0.88313874  1
  O  O337  1  0.99870408  0.99458062  0.38181380  1
  O  O338  1  1.00667196  0.97517365  0.86923676  1
  O  O339  1  0.00396575  0.01112636  0.13310881  1
  O  O340  1  0.00723742  0.00701449  0.61761474  1
  O  O341  1  -0.00723415  0.51131580  0.11474003  1
  O  O342  1  0.00910106  0.50770028  0.61807943  1
  O  O343  1  0.50897450  0.00348403  0.11998303  1
  O  O344  1  0.51355040  -0.00443926  0.61783281  1
  O  O345  1  0.50572073  0.49885915  0.11507639  1
  O  O346  1  0.50310535  0.48918512  0.60808412  1
  O  O347  1  0.23965485  0.37996666  0.24948123  1
  O  O348  1  0.24105684  0.37986844  0.74437311  1
  O  O349  1  0.25798712  0.88744417  0.24728711  1
  O  O350  1  0.24082622  0.87898663  0.74875382  1
  O  O351  1  0.74505989  0.38006913  0.24472071  1
  O  O352  1  0.75053738  0.38474387  0.74700643  1
  O  O353  1  0.75260655  0.88178788  0.23910970  1
  O  O354  1  0.75425965  0.88363361  0.73822096  1
  O  O355  1  0.25638385  0.11204620  0.25430490  1
  O  O356  1  0.25790860  0.11505608  0.75536502  1
  O  O357  1  0.25979762  0.61711141  0.24910567  1
  O  O358  1  0.26839777  0.62110607  0.74359418  1
  O  O359  1  0.75122296  0.12058213  0.25833984  1
  O  O360  1  0.75998421  0.11969483  0.75763627  1
  O  O361  1  0.75437385  0.61977485  0.25502097  1
  O  O362  1  0.75586426  0.61327899  0.75309355  1
  O  O363  1  0.36293949  0.13150537  0.36490956  1
  O  O364  1  0.37662614  0.12898136  0.85889464  1
  O  O365  1  0.37818450  0.63003385  0.36297227  1
  O  O366  1  0.38121590  0.62951458  0.85558557  1
  O  O367  1  0.86053036  0.12444061  0.37740709  1
  O  O368  1  0.87067932  0.13031747  0.86599093  1
  O  O369  1  0.86859789  0.62119633  0.36938224  1
  O  O370  1  0.86990429  0.61935273  0.86815703  1
  O  O371  1  0.12379420  0.37235666  0.13652537  1
  O  O372  1  0.12446977  0.38276530  0.63172531  1
  O  O373  1  0.14028607  0.85720434  0.13852748  1
  O  O374  1  0.11666522  0.88512659  0.63448180  1
  O  O375  1  0.63026412  0.38030174  0.13172226  1
  O  O376  1  0.63907169  0.37682320  0.62811022  1
  O  O377  1  0.63272881  0.88700734  0.12067105  1
  O  O378  1  0.63767285  0.88467776  0.61623457  1
  O  O379  1  0.11336529  0.25982063  0.25624796  1
  O  O380  1  0.12887458  0.26091767  0.75779374  1
  O  O381  1  0.11300061  0.73915881  0.25120503  1
  O  O382  1  0.13015252  0.76097684  0.73519524  1
  O  O383  1  0.61592224  0.25601588  0.25671006  1
  O  O384  1  0.61543754  0.25205069  0.75081772  1
  O  O385  1  0.61359190  0.74340373  0.25967657  1
  O  O386  1  0.62862957  0.74348251  0.76605787  1
  O  O387  1  0.37845633  0.24379559  0.24487240  1
  O  O388  1  0.38192001  0.24513206  0.74295004  1
  O  O389  1  0.38011856  0.74168266  0.24479796  1
  O  O390  1  0.37355819  0.74571557  0.73506401  1
  O  O391  1  0.88908002  0.25247785  0.25475906  1
  O  O392  1  0.87092612  0.24052085  0.73824058  1
  O  O393  1  0.87702411  0.74293809  0.23944581  1
  O  O394  1  0.86941163  0.73210639  0.74376910  1
  O  O395  1  0.38650375  0.50591864  0.50357863  1
  O  O396  1  0.38186048  0.49268529  1.00423492  1
  O  O397  1  0.38977366  1.00612661  0.50973531  1
  O  O398  1  0.38588006  0.98902972  1.00958254  1
  O  O399  1  0.88271760  0.49990488  0.49322938  1
  O  O400  1  0.88341645  0.49069565  0.99352558  1
  O  O401  1  0.88550462  0.99299905  0.49968141  1
  O  O402  1  0.89112429  0.99676550  1.00274330  1
  O  O403  1  0.10822879  -0.04696383  0.01024219  1
  O  O404  1  0.11328717  -0.00544552  0.50738179  1
  O  O405  1  0.11384046  0.50564535  -0.00177463  1
  O  O406  1  0.12284447  0.50935363  0.50341744  1
  O  O407  1  0.62089834  0.00967080  0.00840101  1
  O  O408  1  0.61838466  0.00911752  0.50768944  1
  O  O409  1  0.61751699  0.50437702  0.00459247  1
  O  O410  1  0.61877642  0.50983658  0.50147761  1
  O  O411  1  0.37721083  0.36409719  0.11921236  1
  O  O412  1  0.37139874  0.35709815  0.63032976  1
  O  O413  1  0.37001820  0.86213205  0.11674977  1
  O  O414  1  0.37215963  0.86258152  0.61955320  1
  O  O415  1  0.86492687  0.38189530  0.11643388  1
  O  O416  1  0.86703000  0.36874362  0.62729706  1
  O  O417  1  0.86855309  0.86493573  0.12482115  1
  O  O418  1  0.86719466  0.87490505  0.61319650  1
  O  O419  1  0.14162337  0.12656139  0.37014112  1
  O  O420  1  0.12106520  0.13855086  0.86466337  1
  O  O421  1  0.11983073  0.62331058  0.38905085  1
  O  O422  1  0.11720831  0.62425976  0.88543623  1
  O  O423  1  0.63528864  0.13317034  0.38236803  1
  O  O424  1  0.63441957  0.12637265  0.88532864  1
  O  O425  1  0.62994822  0.63464362  0.38342124  1
  O  O426  1  0.63077327  0.63009675  0.88351457  1
