# generated using pymatgen
data_V85Zn86O256
_symmetry_space_group_name_H-M   'P 1'
_cell_length_a   16.94467283
_cell_length_b   16.93955636
_cell_length_c   16.92375983
_cell_angle_alpha   89.99776315
_cell_angle_beta   89.97732456
_cell_angle_gamma   90.02816109
_symmetry_Int_Tables_number   1
_chemical_formula_structural   V85Zn86O256
_chemical_formula_sum   'V85 Zn86 O256'
_cell_volume   4857.71449810
_cell_formula_units_Z   1
loop_
 _symmetry_equiv_pos_site_id
 _symmetry_equiv_pos_as_xyz
  1  'x, y, z'
loop_
 _atom_site_type_symbol
 _atom_site_label
 _atom_site_symmetry_multiplicity
 _atom_site_fract_x
 _atom_site_fract_y
 _atom_site_fract_z
 _atom_site_occupancy
  V  V0  1  0.36957912  0.36972872  0.50286276  1
  V  V1  1  0.87907133  0.00305794  0.88140139  1
  V  V2  1  0.62708076  0.87391524  0.24604182  1
  V  V3  1  0.50219178  0.87445533  0.37168579  1
  V  V4  1  0.50286729  0.86869798  0.87750630  1
  V  V5  1  0.74355356  0.63980724  0.88426492  1
  V  V6  1  0.88071685  -0.00204913  0.36955544  1
  V  V7  1  -0.00026323  0.62362592  0.62690678  1
  V  V8  1  0.74982585  0.13194341  0.86456579  1
  V  V9  1  0.37492658  0.38640424  0.00010866  1
  V  V10  1  0.25750199  0.12187723  0.87625954  1
  V  V11  1  0.25199316  0.37671116  0.13665207  1
  V  V12  1  0.12686298  0.49804686  0.13389111  1
  V  V13  1  0.87200483  0.75905087  0.11437419  1
  V  V14  1  0.49810631  0.62688036  0.62468445  1
  V  V15  1  0.62800374  0.86981637  0.75495456  1
  V  V16  1  -0.00190068  0.75549605  0.25340168  1
  V  V17  1  0.37716338  0.62404835  0.76083240  1
  V  V18  1  0.37559967  0.12658020  0.25267044  1
  V  V19  1  0.74973788  -0.00023002  0.24925125  1
  V  V20  1  0.87736849  0.75076217  0.62447412  1
  V  V21  1  0.63531401  0.12842824  -0.00044266  1
  V  V22  1  -0.00533849  0.62238205  0.12749990  1
  V  V23  1  0.23333506  0.12729099  0.37712438  1
  V  V24  1  0.36756437  0.49400169  0.36375253  1
  V  V25  1  0.12396499  0.37754607  0.75654690  1
  V  V26  1  0.75327585  0.74793451  0.49754414  1
  V  V27  1  0.50319994  0.00317682  0.49958383  1
  V  V28  1  0.86179415  0.35683283  0.00505544  1
  V  V29  1  0.12678945  0.62367753  0.49931883  1
  V  V30  1  0.25457144  0.50029789  0.76088124  1
  V  V31  1  0.11516432  0.12402498  0.00976627  1
  V  V32  1  -0.00526572  0.49767725  0.49331299  1
  V  V33  1  0.37670238  0.87046084  0.49829305  1
  V  V34  1  0.87471817  0.12603113  0.74096296  1
  V  V35  1  0.49562413  0.12164932  0.62646508  1
  V  V36  1  0.12738448  0.87618703  0.75283681  1
  V  V37  1  0.86964239  0.50012138  0.88164117  1
  V  V38  1  0.24898158  0.75539228  0.00513675  1
  V  V39  1  0.25011986  0.37464830  0.62860245  1
  V  V40  1  0.37652838  0.74885159  0.62688292  1
  V  V41  1  -0.00448931  0.37395386  0.87972170  1
  V  V42  1  0.49652639  0.38460344  0.87525478  1
  V  V43  1  0.12438512  0.24854065  0.87948642  1
  V  V44  1  0.62382689  0.00110609  0.12349858  1
  V  V45  1  0.12330532  0.75419364  0.37465054  1
  V  V46  1  0.12099248  0.37122146  0.25930296  1
  V  V47  1  0.37137176  0.87999209  0.00869205  1
  V  V48  1  0.25045902  0.87446811  0.62505789  1
  V  V49  1  0.00741972  -0.00427920  0.49165923  1
  V  V50  1  0.87285398  0.12748905  0.22837812  1
  V  V51  1  0.49302082  0.49953456  0.50082659  1
  V  V52  1  0.87341180  0.62508255  0.75377906  1
  V  V53  1  0.74363106  0.12739081  0.38624359  1
  V  V54  1  0.37018265  0.24002741  0.62982300  1
  V  V55  1  0.12082715  -0.00002388  0.62362178  1
  V  V56  1  0.13378393  0.87353182  0.24755311  1
  V  V57  1  0.00193311  0.75166356  0.75182322  1
  V  V58  1  -0.00014155  0.24416325  0.75104096  1
  V  V59  1  0.05465350  0.16737086  0.56639874  1
  V  V60  1  -0.00149129  0.88116732  0.88733722  1
  V  V61  1  0.86232017  0.49652474  0.37212305  1
  V  V62  1  0.12436901  0.50337343  0.62830219  1
  V  V63  1  0.49549806  0.24322526  0.75359551  1
  V  V64  1  0.88182670  0.87354748  0.49349270  1
  V  V65  1  0.51447600  0.24926078  0.25800706  1
  V  V66  1  0.49869734  0.00602178  -0.00261539  1
  V  V67  1  0.74376653  0.36817026  0.13658232  1
  V  V68  1  0.63108606  0.74911691  0.37400366  1
  V  V69  1  0.25297166  0.25033549  0.00534605  1
  V  V70  1  0.87477191  0.25331783  0.61132315  1
  V  V71  1  0.25273955  0.74600037  0.49743767  1
  V  V72  1  0.12049644  -0.00753359  0.12058663  1
  V  V73  1  0.62037302  0.63657077  0.01000503  1
  V  V74  1  0.86130814  0.62343441  0.25446111  1
  V  V75  1  0.62648586  0.00096121  0.62265163  1
  V  V76  1  0.12524079  0.62334035  0.00206191  1
  V  V77  1  0.62550008  0.25262701  0.87486116  1
  V  V78  1  0.62802733  0.62717917  0.49628034  1
  V  V79  1  0.24996994  0.61778316  0.35934571  1
  V  V80  1  0.62658855  0.50089429  0.62829789  1
  V  V81  1  0.37838956  0.73694501  0.12955653  1
  V  V82  1  0.00204110  0.24216154  0.24012736  1
  V  V83  1  0.75502146  0.37617027  0.61508876  1
  V  V84  1  0.75294729  0.87615041  0.62505790  1
  Zn  Zn85  1  0.49992855  0.12928627  0.12475924  1
  Zn  Zn86  1  0.25498329  0.62328717  0.88238651  1
  Zn  Zn87  1  0.63453006  0.38013169  0.27073523  1
  Zn  Zn88  1  0.23141903  0.24417572  0.49909464  1
  Zn  Zn89  1  0.37765206  0.00030345  0.86692854  1
  Zn  Zn90  1  0.50535663  0.74801491  0.75432866  1
  Zn  Zn91  1  0.37151799  -0.00103328  0.37244045  1
  Zn  Zn92  1  0.74979149  0.50014300  0.75164559  1
  Zn  Zn93  1  0.75260178  0.00202908  0.74605832  1
  Zn  Zn94  1  0.25279651  -0.00064315  0.24513357  1
  Zn  Zn95  1  0.25628736  0.00978963  0.74238653  1
  Zn  Zn96  1  0.12627880  0.75031286  0.87869418  1
  Zn  Zn97  1  -0.00676351  0.36744602  0.37547513  1
  Zn  Zn98  1  0.68068601  0.27859397  0.45264670  1
  Zn  Zn99  1  0.50221424  0.50687889  0.00871422  1
  Zn  Zn100  1  0.37947468  0.25165367  0.12982024  1
  Zn  Zn101  1  0.50458417  0.73140880  0.23506622  1
  Zn  Zn102  1  0.50858955  0.36519463  0.38394737  1
  Zn  Zn103  1  0.62717318  0.37399121  0.75011398  1
  Zn  Zn104  1  0.62513462  0.50050589  0.13427001  1
  Zn  Zn105  1  0.74717698  0.86854260  0.09863401  1
  Zn  Zn106  1  -0.00292012  0.49469891  0.00514403  1
  Zn  Zn107  1  0.18777374  0.18674064  0.18987939  1
  Zn  Zn108  1  0.19124970  0.19068060  0.69418894  1
  Zn  Zn109  1  0.18912588  0.68962991  0.18331891  1
  Zn  Zn110  1  0.19023813  0.68789987  0.69107941  1
  Zn  Zn111  1  0.69540832  0.19077969  0.18160012  1
  Zn  Zn112  1  0.67064316  0.20408591  0.65042723  1
  Zn  Zn113  1  0.69040022  0.69132301  0.18328894  1
  Zn  Zn114  1  0.69051700  0.68729404  0.68782285  1
  Zn  Zn115  1  0.31164597  0.30431179  0.31569196  1
  Zn  Zn116  1  0.31425964  0.31080726  0.81652064  1
  Zn  Zn117  1  0.31304793  0.80851945  0.31180402  1
  Zn  Zn118  1  0.31414308  0.81300840  0.81918149  1
  Zn  Zn119  1  0.81868514  0.30496493  0.31135706  1
  Zn  Zn120  1  0.81065384  0.31483446  0.80545349  1
  Zn  Zn121  1  0.81233451  0.81276326  0.30886052  1
  Zn  Zn122  1  0.81686143  0.81654346  0.81444300  1
  Zn  Zn123  1  0.18688120  0.43580606  0.43897040  1
  Zn  Zn124  1  0.18621961  0.43760604  0.94440656  1
  Zn  Zn125  1  0.19044969  0.93831543  0.43208318  1
  Zn  Zn126  1  0.18612311  0.93990449  0.94142128  1
  Zn  Zn127  1  0.68553591  0.44764185  0.43738081  1
  Zn  Zn128  1  0.68507521  0.44398651  0.94190553  1
  Zn  Zn129  1  0.69052182  0.93893930  0.43706299  1
  Zn  Zn130  1  0.68965817  0.94180915  0.93192713  1
  Zn  Zn131  1  0.30885293  0.06245029  0.06760113  1
  Zn  Zn132  1  0.31023770  0.05980763  0.55502202  1
  Zn  Zn133  1  0.30984587  0.56084605  0.06872579  1
  Zn  Zn134  1  0.31098752  0.56224810  0.56601228  1
  Zn  Zn135  1  0.80515317  0.03213708  0.04756826  1
  Zn  Zn136  1  0.81986152  0.06111628  0.56210358  1
  Zn  Zn137  1  0.80529259  0.55813882  0.06486773  1
  Zn  Zn138  1  0.81279080  0.56289575  0.55965879  1
  Zn  Zn139  1  0.44930708  0.43149372  0.18755989  1
  Zn  Zn140  1  0.43667940  0.43547716  0.69041527  1
  Zn  Zn141  1  0.43847311  0.93847337  0.18657061  1
  Zn  Zn142  1  0.43755368  0.93665650  0.69104521  1
  Zn  Zn143  1  0.93287674  0.43390493  0.18730371  1
  Zn  Zn144  1  0.93521610  0.43639841  0.69060089  1
  Zn  Zn145  1  0.94452282  0.93751642  0.18560046  1
  Zn  Zn146  1  0.94159652  0.94005885  0.68715341  1
  Zn  Zn147  1  0.05859999  0.06022436  0.30292344  1
  Zn  Zn148  1  0.06786948  0.06339195  0.81428993  1
  Zn  Zn149  1  0.05968821  0.56386658  0.31115440  1
  Zn  Zn150  1  0.06009024  0.56148936  0.81788970  1
  Zn  Zn151  1  0.56300316  0.06428504  0.31392481  1
  Zn  Zn152  1  0.56299732  0.06036266  0.80904557  1
  Zn  Zn153  1  0.55673151  0.55891376  0.30008424  1
  Zn  Zn154  1  0.56483791  0.56628785  0.81707226  1
  Zn  Zn155  1  0.43388000  0.18520891  0.43667899  1
  Zn  Zn156  1  0.43819615  0.19264343  0.94158552  1
  Zn  Zn157  1  0.45237531  0.66996286  0.40522051  1
  Zn  Zn158  1  0.43843191  0.69177850  0.94265814  1
  Zn  Zn159  1  0.93330349  0.18444427  0.42201644  1
  Zn  Zn160  1  0.93358242  0.18172983  0.93750691  1
  Zn  Zn161  1  0.93940936  0.68258841  0.43470446  1
  Zn  Zn162  1  0.93943698  0.68806767  0.93808195  1
  Zn  Zn163  1  0.05963174  0.31170231  0.06610337  1
  Zn  Zn164  1  0.05784503  0.33101313  0.56657446  1
  Zn  Zn165  1  0.05991810  0.81063951  0.06604664  1
  Zn  Zn166  1  0.06312050  0.81257608  0.56148299  1
  Zn  Zn167  1  0.56223182  0.31250679  0.06412552  1
  Zn  Zn168  1  0.55610235  0.31571308  0.56894860  1
  Zn  Zn169  1  0.56061681  0.81179354  0.05968990  1
  Zn  Zn170  1  0.56280279  0.81442549  0.56364415  1
  O  O171  1  0.12709180  0.12045791  0.11426130  1
  O  O172  1  0.12533895  0.11739951  0.62899222  1
  O  O173  1  0.11777172  0.61849929  0.12038526  1
  O  O174  1  0.11946093  0.62175165  0.62204656  1
  O  O175  1  0.62657906  0.12057826  0.11441074  1
  O  O176  1  0.61335760  0.10562236  0.63426478  1
  O  O177  1  0.63018611  0.62547259  0.11390047  1
  O  O178  1  0.61826987  0.62275778  0.61696840  1
  O  O179  1  0.36908661  0.38084874  0.38742400  1
  O  O180  1  0.38387087  0.36972504  0.88633321  1
  O  O181  1  0.38426461  0.87281418  0.38056549  1
  O  O182  1  0.38437341  0.87741440  0.88767671  1
  O  O183  1  0.87412222  0.39260231  0.36581726  1
  O  O184  1  0.87687314  0.38057575  0.88094712  1
  O  O185  1  0.87018760  0.88587109  0.38064067  1
  O  O186  1  0.88976006  0.88714751  0.86928949  1
  O  O187  1  0.25192368  0.01062767  0.36912191  1
  O  O188  1  0.24938571  0.01532695  0.87923629  1
  O  O189  1  0.25844761  0.50220396  0.37705468  1
  O  O190  1  0.24315635  0.50166057  0.86485824  1
  O  O191  1  0.75672457  0.00339269  0.36460594  1
  O  O192  1  0.76103996  0.01540663  0.86516840  1
  O  O193  1  0.76408773  0.50665644  0.38010999  1
  O  O194  1  0.75723907  0.51014191  0.87191548  1
  O  O195  1  0.23969529  0.48895659  0.12489781  1
  O  O196  1  0.24240881  0.49574533  0.63692969  1
  O  O197  1  0.23050286  1.00601084  0.12935786  1
  O  O198  1  0.23793866  0.99331816  0.62080819  1
  O  O199  1  0.74625156  0.47766432  0.11712855  1
  O  O200  1  0.74333240  0.49689107  0.62483440  1
  O  O201  1  0.74150985  1.00139118  0.14139139  1
  O  O202  1  0.74445233  0.99427239  0.62318629  1
  O  O203  1  0.00538672  0.36571519  0.24858155  1
  O  O204  1  0.00328014  0.36527637  0.75779875  1
  O  O205  1  0.01093812  0.86056883  0.24809009  1
  O  O206  1  0.01261371  0.86981922  0.75108004  1
  O  O207  1  0.50414489  0.35841811  0.26109234  1
  O  O208  1  0.49916736  0.36484850  0.75829562  1
  O  O209  1  0.51166794  0.87426338  0.25714193  1
  O  O210  1  0.50932664  0.87360528  0.75991838  1
  O  O211  1  0.49480146  0.13213755  0.25030059  1
  O  O212  1  0.49889734  0.13509860  0.74540508  1
  O  O213  1  0.48640892  0.64122802  0.29736079  1
  O  O214  1  0.49359924  0.62690779  0.74532313  1
  O  O215  1  0.98576718  0.13111827  0.24736826  1
  O  O216  1  0.99685609  0.13772850  0.75568169  1
  O  O217  1  0.99705359  0.63472898  0.23963942  1
  O  O218  1  0.99405559  0.63147014  0.74881687  1
  O  O219  1  0.36417305  0.25721205  0.00512528  1
  O  O220  1  0.37547996  0.25963569  0.50939270  1
  O  O221  1  0.36837949  0.75763293  0.00845331  1
  O  O222  1  0.37335175  0.75923390  0.50395923  1
  O  O223  1  0.87244948  0.25921292  -0.00538990  1
  O  O224  1  0.88708956  0.24384722  0.51322651  1
  O  O225  1  0.88124122  0.74892391  0.01612134  1
  O  O226  1  0.87445712  0.75507216  0.50126678  1
  O  O227  1  0.11168120  0.24132957  0.51583044  1
  O  O228  1  0.13443815  0.24435797  1.00053538  1
  O  O229  1  0.12933452  0.74489145  0.49169358  1
  O  O230  1  0.13138904  0.74222444  1.00463210  1
  O  O231  1  0.62980558  0.23735683  0.54247976  1
  O  O232  1  0.61721605  0.24161001  0.98299554  1
  O  O233  1  0.63219028  0.74694054  0.49619881  1
  O  O234  1  0.62805110  0.73801809  1.00355480  1
  O  O235  1  0.49949935  0.24853063  0.13979305  1
  O  O236  1  0.48754038  0.24356298  0.63527063  1
  O  O237  1  0.48498058  0.75099142  0.12238030  1
  O  O238  1  0.49231880  0.74548416  0.62675321  1
  O  O239  1  0.99465293  0.25299962  0.13948239  1
  O  O240  1  0.99811974  0.24521438  0.62980933  1
  O  O241  1  0.99083964  0.74282425  0.13308727  1
  O  O242  1  0.99657877  0.74361283  0.63021372  1
  O  O243  1  -0.01360835  0.25414642  0.35212498  1
  O  O244  1  0.00381910  0.25545745  0.86918401  1
  O  O245  1  0.01184347  0.74157679  0.36620760  1
  O  O246  1  0.00056902  0.76299173  0.86957971  1
  O  O247  1  0.49896068  0.24637870  0.36448029  1
  O  O248  1  0.50482128  0.25514035  0.86830807  1
  O  O249  1  0.51600166  0.76797623  0.38813713  1
  O  O250  1  0.49880743  0.76499350  0.87506252  1
  O  O251  1  0.24912700  0.12472213  0.48360647  1
  O  O252  1  0.24334110  0.13390779  0.99480875  1
  O  O253  1  0.24214106  0.62911107  0.49855026  1
  O  O254  1  0.24103126  0.62967893  1.00170423  1
  O  O255  1  0.75503642  0.11365913  0.48496823  1
  O  O256  1  0.73852587  0.11922310  0.98665756  1
  O  O257  1  0.74035432  0.63632269  0.50738051  1
  O  O258  1  0.74338717  0.62529749  0.98959154  1
  O  O259  1  0.25513478  0.36850124  0.00852538  1
  O  O260  1  0.25194921  0.36868922  0.50931413  1
  O  O261  1  0.25828012  0.86827338  -0.00472344  1
  O  O262  1  0.25809466  0.86778663  0.50201392  1
  O  O263  1  0.76149129  0.37299201  -0.00723713  1
  O  O264  1  0.74486899  0.37613131  0.51235736  1
  O  O265  1  0.77054686  0.92564482  0.00524109  1
  O  O266  1  0.76293593  0.87011456  0.50443107  1
  O  O267  1  0.11778350  0.49119904  0.24020136  1
  O  O268  1  0.12956410  0.49658629  0.74821753  1
  O  O269  1  0.12572574  0.98886908  0.24181001  1
  O  O270  1  0.12962425  0.99321582  0.74095417  1
  O  O271  1  0.62550188  0.49243301  0.25264032  1
  O  O272  1  0.62427113  0.50420626  0.73669714  1
  O  O273  1  0.63014346  0.99339615  0.24598369  1
  O  O274  1  0.62703140  0.98785346  0.74147717  1
  O  O275  1  0.37460469  0.00764131  0.25126434  1
  O  O276  1  0.36687908  -0.00601840  0.75354914  1
  O  O277  1  0.37772406  0.48759467  0.26638720  1
  O  O278  1  0.36518444  0.50971420  0.74443927  1
  O  O279  1  0.86999618  0.00201535  0.25327648  1
  O  O280  1  0.87880493  0.01216616  0.75195035  1
  O  O281  1  0.87982312  0.51421998  0.25884611  1
  O  O282  1  0.87664498  0.50742758  0.76246729  1
  O  O283  1  0.12163484  0.37958555  0.36220265  1
  O  O284  1  0.11735697  0.36901362  0.87580319  1
  O  O285  1  0.12950813  0.85997219  0.36871721  1
  O  O286  1  0.11664798  0.87651061  0.86878053  1
  O  O287  1  0.62775910  0.36361385  0.38861528  1
  O  O288  1  0.61838813  0.36774264  0.87314522  1
  O  O289  1  0.62187057  0.87094749  0.36718217  1
  O  O290  1  0.61853922  0.88230349  0.86663836  1
  O  O291  1  0.37551336  0.12756645  0.13843013  1
  O  O292  1  0.37582859  0.13348732  0.61963133  1
  O  O293  1  0.37381791  0.63765049  0.12360757  1
  O  O294  1  0.37987273  0.63050225  0.63312480  1
  O  O295  1  0.86427267  0.10999304  0.13253366  1
  O  O296  1  0.87524205  0.13583954  0.63235927  1
  O  O297  1  0.87826886  0.62981661  0.13399416  1
  O  O298  1  0.88091264  0.62971111  0.63214098  1
  O  O299  1  0.25013879  0.25777036  0.11896129  1
  O  O300  1  0.25463229  0.25396426  0.62284665  1
  O  O301  1  0.26008393  0.74846206  0.11376329  1
  O  O302  1  0.25591938  0.75473424  0.61820047  1
  O  O303  1  0.75074291  0.26719839  0.11702238  1
  O  O304  1  0.76898942  0.25949720  0.62860685  1
  O  O305  1  0.76622645  0.75634656  0.12673968  1
  O  O306  1  0.75952514  0.75649908  0.61908064  1
  O  O307  1  0.24763261  0.23441202  0.38089988  1
  O  O308  1  0.24392328  0.24365944  0.88472312  1
  O  O309  1  0.24578006  0.73835625  0.37944229  1
  O  O310  1  0.24723656  0.74562464  0.88955519  1
  O  O311  1  0.75915787  0.23365683  0.38036170  1
  O  O312  1  0.74070542  0.24096948  0.86454390  1
  O  O313  1  0.73841400  0.75616680  0.38040871  1
  O  O314  1  0.76052425  0.73769182  0.87512069  1
  O  O315  1  0.01826068  0.13642997  -0.00165318  1
  O  O316  1  -0.00250513  0.11405385  0.49544861  1
  O  O317  1  0.00552041  0.62480104  0.01329698  1
  O  O318  1  0.00738256  0.61704373  0.50569265  1
  O  O319  1  0.50796436  0.12011506  -0.00006915  1
  O  O320  1  0.49080036  0.10905487  0.50626727  1
  O  O321  1  0.51682107  0.62567293  -0.00959382  1
  O  O322  1  0.50371284  0.61697154  0.50370916  1
  O  O323  1  0.48828300  0.38155375  0.50390180  1
  O  O324  1  0.49024587  0.37280940  0.99221543  1
  O  O325  1  0.49358154  0.88284958  0.49605960  1
  O  O326  1  0.49583820  0.88542376  0.99410816  1
  O  O327  1  0.99870712  0.39237917  0.49449206  1
  O  O328  1  0.98791371  0.37330154  0.99499135  1
  O  O329  1  0.98950053  0.87912774  0.50070844  1
  O  O330  1  1.00549376  0.87475453  0.98578663  1
  O  O331  1  0.48435691  0.49281276  0.39118399  1
  O  O332  1  0.50393120  0.48682045  0.87542985  1
  O  O333  1  0.50113284  0.98912950  0.38195942  1
  O  O334  1  0.49921440  0.99537902  0.88495872  1
  O  O335  1  0.99217687  0.50133638  0.38102437  1
  O  O336  1  0.99181569  0.48934524  0.87853846  1
  O  O337  1  0.99362176  0.99979481  0.37934376  1
  O  O338  1  0.99785125  0.98685344  0.86498819  1
  O  O339  1  0.01931748  0.00353765  0.13062599  1
  O  O340  1  0.01345006  -0.00126999  0.61514454  1
  O  O341  1  0.00367397  0.50736217  0.12573883  1
  O  O342  1  0.00323005  0.50506958  0.61994775  1
  O  O343  1  0.50659701  0.00289934  0.11330740  1
  O  O344  1  0.50574752  -0.00004136  0.61840070  1
  O  O345  1  0.50810016  0.49582078  0.12216563  1
  O  O346  1  0.50494037  0.50385345  0.61777784  1
  O  O347  1  0.24003033  0.36358688  0.24195818  1
  O  O348  1  0.24593901  0.38159618  0.74942767  1
  O  O349  1  0.23735945  0.87340181  0.25361225  1
  O  O350  1  0.23780118  0.87113192  0.74731453  1
  O  O351  1  0.75033113  0.36563964  0.24142368  1
  O  O352  1  0.74774775  0.38108372  0.73567999  1
  O  O353  1  0.73812079  0.88177586  0.25087490  1
  O  O354  1  0.74660348  0.87796118  0.74392445  1
  O  O355  1  0.25750309  0.12677236  0.25988778  1
  O  O356  1  0.24361901  0.12661279  0.77142441  1
  O  O357  1  0.24640985  0.62546295  0.26009108  1
  O  O358  1  0.25791327  0.61756101  0.75429751  1
  O  O359  1  0.75983428  0.11916597  0.25462367  1
  O  O360  1  0.75995147  0.12597408  0.75038750  1
  O  O361  1  0.76338101  0.63016262  0.24969503  1
  O  O362  1  0.75873987  0.62491090  0.75852508  1
  O  O363  1  0.36995649  0.12103229  0.36426682  1
  O  O364  1  0.35985906  0.12682884  0.88400168  1
  O  O365  1  0.35980862  0.60181610  0.38882703  1
  O  O366  1  0.37650357  0.62914059  0.86450999  1
  O  O367  1  0.86597586  0.10911920  0.36483982  1
  O  O368  1  0.86844060  0.12818806  0.85819426  1
  O  O369  1  0.87881812  0.61975083  0.35988456  1
  O  O370  1  0.87017415  0.61906774  0.87335790  1
  O  O371  1  0.13054629  0.38151360  0.13227829  1
  O  O372  1  0.13074837  0.38335538  0.63730035  1
  O  O373  1  0.12300348  0.88323680  0.13013102  1
  O  O374  1  0.13051426  0.87983257  0.63155009  1
  O  O375  1  0.63714053  0.37260920  0.12536095  1
  O  O376  1  0.63087584  0.38781288  0.62830773  1
  O  O377  1  0.62792948  0.87972212  0.12999174  1
  O  O378  1  0.63176932  0.88281682  0.63027503  1
  O  O379  1  0.11069943  0.25492147  0.24509742  1
  O  O380  1  0.11830736  0.25751464  0.75729746  1
  O  O381  1  0.11962595  0.75352833  0.25395028  1
  O  O382  1  0.11939139  0.75628035  0.75402868  1
  O  O383  1  0.61590973  0.24579981  0.25005493  1
  O  O384  1  0.61361789  0.25120910  0.75468961  1
  O  O385  1  0.62339150  0.75544084  0.25622951  1
  O  O386  1  0.62510001  0.76507635  0.74207067  1
  O  O387  1  0.38454235  0.24184531  0.25087049  1
  O  O388  1  0.37959696  0.25219088  0.74064800  1
  O  O389  1  0.37540005  0.75775053  0.23146660  1
  O  O390  1  0.37493482  0.74226051  0.74441152  1
  O  O391  1  0.87781416  0.23265996  0.24112807  1
  O  O392  1  0.88513389  0.24629937  0.74038111  1
  O  O393  1  0.88196554  0.74059438  0.24784165  1
  O  O394  1  0.88360398  0.74620013  0.74445153  1
  O  O395  1  0.37788865  0.48662197  0.50620391  1
  O  O396  1  0.37437572  0.48945241  1.00234841  1
  O  O397  1  0.38136385  0.98499400  0.49777481  1
  O  O398  1  0.38132595  0.99690508  0.99946228  1
  O  O399  1  0.88281354  0.51291853  0.48300110  1
  O  O400  1  0.87627076  0.49814065  0.98960582  1
  O  O401  1  0.88716058  0.99213375  0.49314011  1
  O  O402  1  0.89539273  1.03237249  0.97546204  1
  O  O403  1  0.12539171  0.01221819  0.00885198  1
  O  O404  1  0.11393780  -0.00966674  0.50356012  1
  O  O405  1  0.12060450  0.50597133  0.01302043  1
  O  O406  1  0.11856748  0.50499067  0.50700407  1
  O  O407  1  0.61622414  0.01057292  0.00186950  1
  O  O408  1  0.61510160  -0.00957586  0.50877615  1
  O  O409  1  0.62346528  0.51765801  -0.00029089  1
  O  O410  1  0.61583941  0.50942209  0.50932302  1
  O  O411  1  0.36597694  0.37313022  0.12050725  1
  O  O412  1  0.36753831  0.36576985  0.62197895  1
  O  O413  1  0.37940552  0.87208442  0.11161769  1
  O  O414  1  0.36956694  0.86851082  0.61785818  1
  O  O415  1  0.86586902  0.37804273  0.11024818  1
  O  O416  1  0.87246851  0.36410775  0.62463708  1
  O  O417  1  0.87796763  0.86113557  0.13153066  1
  O  O418  1  0.87363386  0.87078650  0.61713307  1
  O  O419  1  0.13471064  0.12024925  0.36714913  1
  O  O420  1  0.13292558  0.13004119  0.88767651  1
  O  O421  1  0.13263881  0.62976905  0.37936934  1
  O  O422  1  0.12099705  0.62604141  0.89250778  1
  O  O423  1  0.64427377  0.11842986  0.37322414  1
  O  O424  1  0.63225259  0.13101499  0.87490205  1
  O  O425  1  0.62312419  0.63455904  0.39078713  1
  O  O426  1  0.63978398  0.62942025  0.87711120  1
