# generated using pymatgen
data_V85Zn86O256
_symmetry_space_group_name_H-M   'P 1'
_cell_length_a   16.92623544
_cell_length_b   16.93351588
_cell_length_c   16.94052229
_cell_angle_alpha   89.98316377
_cell_angle_beta   90.04442540
_cell_angle_gamma   89.98899323
_symmetry_Int_Tables_number   1
_chemical_formula_structural   V85Zn86O256
_chemical_formula_sum   'V85 Zn86 O256'
_cell_volume   4855.50220056
_cell_formula_units_Z   1
loop_
 _symmetry_equiv_pos_site_id
 _symmetry_equiv_pos_as_xyz
  1  'x, y, z'
loop_
 _atom_site_type_symbol
 _atom_site_label
 _atom_site_symmetry_multiplicity
 _atom_site_fract_x
 _atom_site_fract_y
 _atom_site_fract_z
 _atom_site_occupancy
  V  V0  1  0.24728474  -0.00391966  0.23822914  1
  V  V1  1  -0.00298435  0.37840176  0.87805696  1
  V  V2  1  0.49971143  0.37616548  0.37483425  1
  V  V3  1  0.50455844  0.61954083  0.62465496  1
  V  V4  1  0.11390939  0.11675181  0.00565046  1
  V  V5  1  0.36669802  0.00011299  0.86703268  1
  V  V6  1  0.87890422  0.00349381  0.37632087  1
  V  V7  1  0.74934502  0.74842853  0.49958294  1
  V  V8  1  0.62553331  0.74795029  0.37427473  1
  V  V9  1  0.12331975  0.26488221  0.37082135  1
  V  V10  1  0.12536502  0.37697699  0.75289664  1
  V  V11  1  0.25152517  0.25042787  0.50225565  1
  V  V12  1  0.87644081  0.87428773  0.50069173  1
  V  V13  1  0.25240664  0.75963152  0.49486449  1
  V  V14  1  0.75274397  0.87421610  0.62502468  1
  V  V15  1  0.12413710  0.50268074  0.62313161  1
  V  V16  1  0.62527542  0.87327998  0.24774147  1
  V  V17  1  0.86713052  0.37556009  0.00560872  1
  V  V18  1  0.62313837  -0.00069398  0.12303573  1
  V  V19  1  0.93388919  0.06667258  0.19438568  1
  V  V20  1  0.62539529  0.12629385  0.49910128  1
  V  V21  1  0.12583798  0.63276094  0.49620863  1
  V  V22  1  0.62867864  0.37737019  0.24535871  1
  V  V23  1  0.74989760  0.00064790  0.24856819  1
  V  V24  1  0.49883670  0.87484588  0.37618841  1
  V  V25  1  0.00266871  0.24937993  0.74363606  1
  V  V26  1  0.49814503  0.13046357  0.63385772  1
  V  V27  1  0.87883587  0.74949058  0.63032506  1
  V  V28  1  0.50192413  0.75061077  0.74912181  1
  V  V29  1  0.75129045  0.12514470  0.37083452  1
  V  V30  1  0.24240545  0.37885502  0.13980412  1
  V  V31  1  -0.00130000  0.49795541  0.48727662  1
  V  V32  1  0.75680120  0.87054739  0.12223374  1
  V  V33  1  0.50104998  0.37515755  0.88842753  1
  V  V34  1  0.75639129  0.49532965  0.24885900  1
  V  V35  1  0.24800863  0.75209666  -0.00406762  1
  V  V36  1  0.49837688  0.25074514  0.24968513  1
  V  V37  1  0.75393208  0.37543256  0.62340235  1
  V  V38  1  0.75009262  0.74683737  0.00044075  1
  V  V39  1  0.50016567  0.74814575  0.24755746  1
  V  V40  1  0.24592577  0.12538841  0.37673461  1
  V  V41  1  0.37151021  -0.00492648  0.37767951  1
  V  V42  1  0.36628594  0.87897818  0.00255427  1
  V  V43  1  0.87352016  0.25224179  0.13053271  1
  V  V44  1  0.24583100  0.62904668  0.36762571  1
  V  V45  1  0.74582899  0.49772911  0.74612956  1
  V  V46  1  0.74733037  0.62318486  0.87550007  1
  V  V47  1  0.12305040  0.50255064  0.13919706  1
  V  V48  1  0.05573611  0.80423526  0.81481474  1
  V  V49  1  0.37222463  0.12708874  0.24883720  1
  V  V50  1  0.25259494  0.37795117  0.62416894  1
  V  V51  1  0.12219984  0.62200548  -0.00182481  1
  V  V52  1  0.25103174  0.50282124  0.75071443  1
  V  V53  1  0.49724670  0.00090364  -0.00151415  1
  V  V54  1  0.37679574  0.75879221  0.61928676  1
  V  V55  1  0.36745151  0.25270793  0.11698648  1
  V  V56  1  0.88360648  0.87327641  -0.00525889  1
  V  V57  1  0.74840896  0.12827326  0.87668756  1
  V  V58  1  0.75862875  0.61923793  0.37502382  1
  V  V59  1  0.24636732  0.62674046  0.87345406  1
  V  V60  1  0.01010711  0.86772469  0.37284299  1
  V  V61  1  0.62908380  0.87536154  0.75253706  1
  V  V62  1  0.62656472  0.61517708  0.50125334  1
  V  V63  1  0.37170298  0.75314615  0.12405681  1
  V  V64  1  0.62701752  -0.00064986  0.62558315  1
  V  V65  1  0.87869513  0.12578236  0.74252815  1
  V  V66  1  0.61441454  0.36885387  0.73987017  1
  V  V67  1  0.00481852  0.00663795  0.51095917  1
  V  V68  1  0.50215676  0.62083989  0.10809366  1
  V  V69  1  0.62615231  0.74761947  0.87956691  1
  V  V70  1  0.24880886  0.12726546  0.87756100  1
  V  V71  1  0.37619642  0.61786271  0.24715574  1
  V  V72  1  0.88723416  0.00557741  0.88334933  1
  V  V73  1  0.49623370  -0.00391856  0.50055599  1
  V  V74  1  0.13096486  0.25549295  0.89015896  1
  V  V75  1  0.37133052  0.50101907  0.37462608  1
  V  V76  1  0.62606389  0.50165306  0.11386858  1
  V  V77  1  0.37556538  0.62777461  0.74833962  1
  V  V78  1  0.87259065  0.63550486  0.24033388  1
  V  V79  1  0.36297907  0.38390255  0.00039003  1
  V  V80  1  0.00114326  0.27148235  0.25071527  1
  V  V81  1  0.49707964  0.12699029  0.12312635  1
  V  V82  1  0.24166156  0.87703074  0.63924664  1
  V  V83  1  0.00017745  0.62588951  0.62890496  1
  V  V84  1  0.88014522  0.37659915  0.48681535  1
  Zn  Zn85  1  0.74590560  0.25115714  0.00745152  1
  Zn  Zn86  1  0.11324747  -0.00061716  0.12170941  1
  Zn  Zn87  1  0.36643557  0.12793072  0.75041459  1
  Zn  Zn88  1  0.87682389  0.62142218  0.75221084  1
  Zn  Zn89  1  0.14005047  0.85961656  0.24194133  1
  Zn  Zn90  1  0.14725738  0.01929029  0.66098917  1
  Zn  Zn91  1  0.50190003  0.49731167  0.50231932  1
  Zn  Zn92  1  0.49867551  0.87533495  0.87528014  1
  Zn  Zn93  1  0.88124971  0.24963074  0.62034055  1
  Zn  Zn94  1  0.61958988  0.24826302  0.87442927  1
  Zn  Zn95  1  0.75511858  0.24933410  0.49844163  1
  Zn  Zn96  1  0.62642235  0.25048964  0.37290216  1
  Zn  Zn97  1  -0.00745883  0.64332923  0.11987197  1
  Zn  Zn98  1  0.11976988  0.12971989  0.51251825  1
  Zn  Zn99  1  0.38227955  0.50608554  0.88154398  1
  Zn  Zn100  1  0.38031560  0.25639183  0.63236873  1
  Zn  Zn101  1  0.75897530  -0.00116725  0.75204888  1
  Zn  Zn102  1  0.87243158  0.49900455  0.87650032  1
  Zn  Zn103  1  0.37681731  0.37704666  0.50041009  1
  Zn  Zn104  1  0.01659153  0.74110908  0.25543051  1
  Zn  Zn105  1  -0.00319773  0.50129043  0.00479674  1
  Zn  Zn106  1  0.62300219  0.12982608  -0.00112746  1
  Zn  Zn107  1  0.18249646  0.18947497  0.18583521  1
  Zn  Zn108  1  0.19081782  0.19314280  0.69404190  1
  Zn  Zn109  1  0.18913236  0.68593845  0.18494777  1
  Zn  Zn110  1  0.18503309  0.69471852  0.68701100  1
  Zn  Zn111  1  0.68604582  0.18720094  0.18724672  1
  Zn  Zn112  1  0.69185765  0.19057350  0.68791849  1
  Zn  Zn113  1  0.68722185  0.68399894  0.18395063  1
  Zn  Zn114  1  0.68903847  0.68668226  0.68818875  1
  Zn  Zn115  1  0.31213139  0.31263392  0.31220815  1
  Zn  Zn116  1  0.31691075  0.31017187  0.81270260  1
  Zn  Zn117  1  0.31342763  0.81174684  0.31121927  1
  Zn  Zn118  1  0.31218646  0.81232324  0.81417256  1
  Zn  Zn119  1  0.81318532  0.30952444  0.30984620  1
  Zn  Zn120  1  0.81273414  0.31117919  0.81188325  1
  Zn  Zn121  1  0.81425708  0.81506853  0.31447232  1
  Zn  Zn122  1  0.82742336  0.81613320  0.80983301  1
  Zn  Zn123  1  0.18957891  0.44335717  0.43671800  1
  Zn  Zn124  1  0.18951330  0.44198737  0.94046919  1
  Zn  Zn125  1  0.18482600  0.93938398  0.43940455  1
  Zn  Zn126  1  0.17863825  0.93627378  0.92887772  1
  Zn  Zn127  1  0.69105717  0.43579575  0.43406564  1
  Zn  Zn128  1  0.68672994  0.43337102  0.93306094  1
  Zn  Zn129  1  0.68732181  0.93826335  0.43706524  1
  Zn  Zn130  1  0.69116761  0.94064725  0.93597975  1
  Zn  Zn131  1  0.30592252  0.06888520  0.05544547  1
  Zn  Zn132  1  0.31222555  0.06096589  0.56251797  1
  Zn  Zn133  1  0.30926108  0.56104644  0.06468941  1
  Zn  Zn134  1  0.31429512  0.56676020  0.55918291  1
  Zn  Zn135  1  0.80909194  0.06185805  0.05853725  1
  Zn  Zn136  1  0.81433815  0.06125276  0.56211052  1
  Zn  Zn137  1  0.80811059  0.56065799  0.06178507  1
  Zn  Zn138  1  0.81446123  0.55671956  0.56291248  1
  Zn  Zn139  1  0.43969810  0.43864012  0.18462550  1
  Zn  Zn140  1  0.43648615  0.44082894  0.69010858  1
  Zn  Zn141  1  0.43332862  0.93705905  0.18765629  1
  Zn  Zn142  1  0.43782904  0.93737334  0.68681590  1
  Zn  Zn143  1  0.93600190  0.44077306  0.18645185  1
  Zn  Zn144  1  0.93540806  0.43888218  0.68513792  1
  Zn  Zn145  1  0.97435804  0.87838771  0.15665935  1
  Zn  Zn146  1  0.98155290  0.95240686  0.71857932  1
  Zn  Zn147  1  0.06908080  0.05934496  0.32187817  1
  Zn  Zn148  1  0.06537996  0.06883227  0.81881229  1
  Zn  Zn149  1  0.06077057  0.56559293  0.31157285  1
  Zn  Zn150  1  0.06171820  0.56604472  0.81382121  1
  Zn  Zn151  1  0.56188266  0.06257554  0.31144794  1
  Zn  Zn152  1  0.56403063  0.05940078  0.81462670  1
  Zn  Zn153  1  0.56357790  0.56093070  0.31002341  1
  Zn  Zn154  1  0.56620713  0.55695985  0.81286949  1
  Zn  Zn155  1  0.43513326  0.18665776  0.44008600  1
  Zn  Zn156  1  0.43577568  0.19223874  0.93485476  1
  Zn  Zn157  1  0.43692645  0.68684589  0.43778776  1
  Zn  Zn158  1  0.43547710  0.69039749  0.93421652  1
  Zn  Zn159  1  0.93949942  0.18945056  0.43247133  1
  Zn  Zn160  1  0.93848810  0.19330281  0.93743495  1
  Zn  Zn161  1  0.93624589  0.68557136  0.43976103  1
  Zn  Zn162  1  0.93431938  0.68728539  0.93731227  1
  Zn  Zn163  1  0.05743368  0.31428230  0.06704381  1
  Zn  Zn164  1  0.06554008  0.31461603  0.55983018  1
  Zn  Zn165  1  0.07000099  0.80682149  0.05928870  1
  Zn  Zn166  1  0.06283256  0.81362347  0.56363781  1
  Zn  Zn167  1  0.56221198  0.31361859  0.06245163  1
  Zn  Zn168  1  0.56587564  0.31076157  0.56000560  1
  Zn  Zn169  1  0.56024587  0.81366634  0.06033883  1
  Zn  Zn170  1  0.56434709  0.81034109  0.56183178  1
  O  O171  1  0.12900739  0.12111596  0.11051137  1
  O  O172  1  0.13826975  0.12374695  0.62376735  1
  O  O173  1  0.12578184  0.61325678  0.11808251  1
  O  O174  1  0.11999911  0.62257750  0.61645768  1
  O  O175  1  0.61498218  0.11712975  0.12505773  1
  O  O176  1  0.61882260  0.12089989  0.61898190  1
  O  O177  1  0.61558643  0.61276682  0.12699516  1
  O  O178  1  0.61652475  0.63296042  0.61426262  1
  O  O179  1  0.38082678  0.38392585  0.37437973  1
  O  O180  1  0.38121426  0.37748927  0.88577616  1
  O  O181  1  0.38209424  0.88804621  0.36934202  1
  O  O182  1  0.37573054  0.88339853  0.88285060  1
  O  O183  1  0.87011205  0.37442264  0.38843718  1
  O  O184  1  0.88294009  0.37468288  0.88202303  1
  O  O185  1  0.87617409  0.88656277  0.38320819  1
  O  O186  1  0.86534191  0.89169341  0.88678549  1
  O  O187  1  0.25591245  0.00677315  0.37189822  1
  O  O188  1  0.25824788  0.00718472  0.88146597  1
  O  O189  1  0.26340813  0.51210074  0.37866496  1
  O  O190  1  0.25527639  0.50875246  0.86814132  1
  O  O191  1  0.75759854  0.00271105  0.36854539  1
  O  O192  1  0.75634706  0.01308884  0.87247254  1
  O  O193  1  0.74403319  0.50995784  0.36326112  1
  O  O194  1  0.74781595  0.50748040  0.86819460  1
  O  O195  1  0.23813996  0.48955316  0.12302106  1
  O  O196  1  0.24537150  0.49767966  0.62844371  1
  O  O197  1  0.25366887  1.00383529  0.13759752  1
  O  O198  1  0.25435653  0.98209020  0.62214159  1
  O  O199  1  0.73441336  0.50642291  0.13399625  1
  O  O200  1  0.75122000  0.48708429  0.63073633  1
  O  O201  1  0.74370722  0.99282317  0.12985116  1
  O  O202  1  0.74454957  0.99295008  0.62786872  1
  O  O203  1  0.00047063  0.37014154  0.25348540  1
  O  O204  1  0.00602795  0.37313680  0.75732298  1
  O  O205  1  -0.01079483  0.87316277  0.27153481  1
  O  O206  1  -0.02532191  0.85158858  0.76849624  1
  O  O207  1  0.50453923  0.37199464  0.25898927  1
  O  O208  1  0.51200688  0.37616516  0.74837892  1
  O  O209  1  0.50451708  0.86873854  0.25397715  1
  O  O210  1  0.51001761  0.86838827  0.75042297  1
  O  O211  1  0.49206223  0.12886491  0.24366891  1
  O  O212  1  0.50469717  0.11961260  0.73460232  1
  O  O213  1  0.49309812  0.63229160  0.24519086  1
  O  O214  1  0.49916945  0.63068130  0.74284536  1
  O  O215  1  0.99724250  0.11996330  0.25223799  1
  O  O216  1  0.99082405  0.14001376  0.76101223  1
  O  O217  1  0.98234003  0.62493771  0.25078707  1
  O  O218  1  0.99716966  0.61596579  0.73309384  1
  O  O219  1  0.37819974  0.26098221  0.01316305  1
  O  O220  1  0.36283889  0.25385059  0.50309319  1
  O  O221  1  0.37081956  0.75925163  0.00446566  1
  O  O222  1  0.36670871  0.74493206  0.50904654  1
  O  O223  1  0.87677319  0.25651036  0.01278458  1
  O  O224  1  0.87802715  0.26144706  0.50048617  1
  O  O225  1  0.86353336  0.76409978  -0.01004910  1
  O  O226  1  0.86653669  0.75371012  0.50575700  1
  O  O227  1  0.13543350  0.25001074  0.49200295  1
  O  O228  1  0.11929659  0.24818792  0.99275336  1
  O  O229  1  0.13340679  0.73886096  0.50300454  1
  O  O230  1  0.13765237  0.73454921  1.00599945  1
  O  O231  1  0.62785546  0.23631369  0.49536435  1
  O  O232  1  0.62765668  0.24939808  0.99732622  1
  O  O233  1  0.63130566  0.74143235  0.49328485  1
  O  O234  1  0.63072861  0.75750923  0.98569776  1
  O  O235  1  0.48985324  0.24757033  0.13110405  1
  O  O236  1  0.49906180  0.23349773  0.61543840  1
  O  O237  1  0.49238625  0.74234802  0.12692572  1
  O  O238  1  0.49389926  0.74412866  0.62807574  1
  O  O239  1  0.99386053  0.25299434  0.14252618  1
  O  O240  1  1.00338429  0.25790185  0.63954708  1
  O  O241  1  0.99804998  0.75832156  0.13766540  1
  O  O242  1  0.98883920  0.74053211  0.61416443  1
  O  O243  1  0.00977193  0.24688329  0.36176178  1
  O  O244  1  0.00772055  0.26377439  0.86857918  1
  O  O245  1  -0.00452986  0.76395413  0.37883598  1
  O  O246  1  0.01080733  0.72918129  0.86699680  1
  O  O247  1  0.49848850  0.25730032  0.36854750  1
  O  O248  1  0.49844226  0.26849988  0.87504289  1
  O  O249  1  0.50420178  0.75560023  0.36981164  1
  O  O250  1  0.50893032  0.75185991  0.86820096  1
  O  O251  1  0.25246851  0.13386208  0.49249179  1
  O  O252  1  0.23691748  0.12838052  0.98762282  1
  O  O253  1  0.24344625  0.63420094  0.49294253  1
  O  O254  1  0.24687644  0.62978362  0.99141744  1
  O  O255  1  0.74256237  0.12220452  0.49026508  1
  O  O256  1  0.74532865  0.12817583  0.99183935  1
  O  O257  1  0.74573672  0.62593578  0.49314214  1
  O  O258  1  0.75290674  0.63838399  0.99293372  1
  O  O259  1  0.25948653  0.37659675  0.00819926  1
  O  O260  1  0.25123798  0.37078941  0.50807965  1
  O  O261  1  0.25765330  0.86740058  -0.00483573  1
  O  O262  1  0.24755564  0.86224161  0.49755689  1
  O  O263  1  0.76317211  0.37045570  -0.00677158  1
  O  O264  1  0.76032479  0.37563840  0.50481595  1
  O  O265  1  0.75261221  0.86711570  0.00529221  1
  O  O266  1  0.75419936  0.86987288  0.50450379  1
  O  O267  1  0.12661195  0.50654017  0.23797607  1
  O  O268  1  0.13146937  0.49658229  0.74401765  1
  O  O269  1  0.14203471  1.00340913  0.24955907  1
  O  O270  1  0.08783997  0.98710768  0.74812773  1
  O  O271  1  0.63343955  0.49415637  0.24436574  1
  O  O272  1  0.63654737  0.48380660  0.75212950  1
  O  O273  1  0.62820690  0.99159064  0.24400478  1
  O  O274  1  0.62606552  0.98730535  0.74535499  1
  O  O275  1  0.36662154  0.00724860  0.25617142  1
  O  O276  1  0.38279349  0.00368071  0.76465118  1
  O  O277  1  0.38119436  0.51103103  0.25565944  1
  O  O278  1  0.36647064  0.51126427  0.74926143  1
  O  O279  1  0.86995314  0.00707827  0.25694443  1
  O  O280  1  0.88169769  0.00972671  0.76485860  1
  O  O281  1  0.86120229  0.50911724  0.24371769  1
  O  O282  1  0.86102691  0.49938763  0.75240156  1
  O  O283  1  0.13493369  0.36390631  0.37568935  1
  O  O284  1  0.12069641  0.37172385  0.87497576  1
  O  O285  1  0.11212898  0.88049562  0.36965560  1
  O  O286  1  0.11208505  0.86247558  0.87850260  1
  O  O287  1  0.61699200  0.37439373  0.36503078  1
  O  O288  1  0.61271212  0.37321094  0.86702961  1
  O  O289  1  0.62000862  0.86940634  0.36799024  1
  O  O290  1  0.62506887  0.86991026  0.86663051  1
  O  O291  1  0.37543881  0.13522688  0.12665343  1
  O  O292  1  0.38984033  0.12032997  0.62615903  1
  O  O293  1  0.38208431  0.62832680  0.13050464  1
  O  O294  1  0.38125511  0.63672420  0.62962960  1
  O  O295  1  0.87873864  0.12594037  0.12903251  1
  O  O296  1  0.87117141  0.12714220  0.63871999  1
  O  O297  1  0.87254030  0.62512800  0.13666899  1
  O  O298  1  0.88381750  0.63036808  0.62046068  1
  O  O299  1  0.25464127  0.26548740  0.13057380  1
  O  O300  1  0.25008932  0.26240889  0.61718363  1
  O  O301  1  0.26484699  0.74127458  0.11179172  1
  O  O302  1  0.25783973  0.75978565  0.61742780  1
  O  O303  1  0.76815438  0.24225956  0.13045824  1
  O  O304  1  0.75384001  0.26164931  0.61981720  1
  O  O305  1  0.74127711  0.75861281  0.11359402  1
  O  O306  1  0.75335672  0.75384541  0.61619518  1
  O  O307  1  0.24670794  0.24366459  0.37994542  1
  O  O308  1  0.23768913  0.24746262  0.87465083  1
  O  O309  1  0.26156944  0.73878216  0.38260717  1
  O  O310  1  0.25694616  0.74143390  0.88719327  1
  O  O311  1  0.74826865  0.23852481  0.37603083  1
  O  O312  1  0.75125089  0.23733942  0.87641022  1
  O  O313  1  0.74482112  0.74339304  0.38055591  1
  O  O314  1  0.74432427  0.74482407  0.87828876  1
  O  O315  1  0.01514856  0.13080482  -0.00259861  1
  O  O316  1  -0.00109241  0.11122719  0.49659511  1
  O  O317  1  0.00735352  0.62355342  0.00388483  1
  O  O318  1  0.00785472  0.61920168  0.50457714  1
  O  O319  1  0.49743325  0.11785965  0.00572522  1
  O  O320  1  0.50689298  0.11473162  0.50417663  1
  O  O321  1  0.49557746  0.62745851  0.00898183  1
  O  O322  1  0.51002152  0.62630647  0.50651263  1
  O  O323  1  0.50103309  0.37553369  0.48761125  1
  O  O324  1  0.49169963  0.37730398  0.99176762  1
  O  O325  1  0.50856942  0.88835500  0.49449113  1
  O  O326  1  0.48756027  0.88332161  0.99858821  1
  O  O327  1  0.98936198  0.38236283  0.50262832  1
  O  O328  1  0.99034059  0.37669768  0.99328448  1
  O  O329  1  0.99586272  0.88121762  0.49002378  1
  O  O330  1  0.98226467  0.86820753  1.00279249  1
  O  O331  1  0.49130870  0.49302670  0.37452655  1
  O  O332  1  0.49673499  0.48215723  0.86593821  1
  O  O333  1  0.49262501  0.99665303  0.38068166  1
  O  O334  1  0.49237909  1.00018040  0.88727561  1
  O  O335  1  1.00429581  0.50335901  0.38811376  1
  O  O336  1  0.99886319  0.48877045  0.87585250  1
  O  O337  1  0.99325647  0.99232117  0.38375979  1
  O  O338  1  0.98509380  1.00871597  0.88563942  1
  O  O339  1  -0.01255804  0.00117574  0.13938963  1
  O  O340  1  -0.01091516  -0.00758236  0.60815242  1
  O  O341  1  0.01466834  0.50062391  0.12461637  1
  O  O342  1  0.00658907  0.50645932  0.61595496  1
  O  O343  1  0.49977026  0.00431432  0.11561800  1
  O  O344  1  0.50633495  0.00559030  0.61718680  1
  O  O345  1  0.51293282  0.50938440  0.12974174  1
  O  O346  1  0.49537764  0.51567065  0.62279785  1
  O  O347  1  0.25329847  0.37923531  0.23805099  1
  O  O348  1  0.24510447  0.38266999  0.74374150  1
  O  O349  1  0.25439867  0.89170187  0.25278210  1
  O  O350  1  0.25017804  0.87104378  0.73831896  1
  O  O351  1  0.74070759  0.38266617  0.25513833  1
  O  O352  1  0.74428649  0.37854531  0.74233705  1
  O  O353  1  0.74738002  0.87907686  0.24101726  1
  O  O354  1  0.74590755  0.87591559  0.74389719  1
  O  O355  1  0.25419123  0.11888188  0.25680725  1
  O  O356  1  0.24550652  0.12303995  0.76954305  1
  O  O357  1  0.26384482  0.62841214  0.25761112  1
  O  O358  1  0.25276307  0.62532337  0.75566019  1
  O  O359  1  0.74107798  0.11635154  0.26323852  1
  O  O360  1  0.76025698  0.12402026  0.75694443  1
  O  O361  1  0.75728093  0.62019659  0.25534290  1
  O  O362  1  0.74717923  0.61391210  0.75533368  1
  O  O363  1  0.36599537  0.11743098  0.37032064  1
  O  O364  1  0.36622702  0.11777978  0.87937449  1
  O  O365  1  0.37240497  0.61902031  0.36647591  1
  O  O366  1  0.36653546  0.62555169  0.86705081  1
  O  O367  1  0.86597219  0.11203603  0.38128624  1
  O  O368  1  0.86930118  0.11885031  0.87443062  1
  O  O369  1  0.86292367  0.62706292  0.36814139  1
  O  O370  1  0.86042530  0.62246951  0.87218524  1
  O  O371  1  0.13524790  0.38565190  0.12151504  1
  O  O372  1  0.13602740  0.38229277  0.62907761  1
  O  O373  1  0.10078033  0.88657463  0.13548116  1
  O  O374  1  0.14130307  0.87510064  0.62011964  1
  O  O375  1  0.61576405  0.38707179  0.13749715  1
  O  O376  1  0.63083849  0.37203410  0.63346853  1
  O  O377  1  0.63204247  0.87966786  0.12842525  1
  O  O378  1  0.63254844  0.87717529  0.63171750  1
  O  O379  1  0.11146231  0.24736930  0.25642374  1
  O  O380  1  0.11945294  0.26015592  0.76180444  1
  O  O381  1  0.13120238  0.74756594  0.25608531  1
  O  O382  1  0.11481199  0.75882268  0.74457432  1
  O  O383  1  0.61751563  0.25945556  0.24912455  1
  O  O384  1  0.62989430  0.26602023  0.75272152  1
  O  O385  1  0.62057031  0.75362596  0.25385888  1
  O  O386  1  0.62373070  0.75921962  0.75737523  1
  O  O387  1  0.37845022  0.24571838  0.24104140  1
  O  O388  1  0.36976627  0.24179744  0.74390210  1
  O  O389  1  0.37983226  0.74391140  0.24017027  1
  O  O390  1  0.38222025  0.74606064  0.74363420  1
  O  O391  1  0.89054267  0.25252619  0.24750674  1
  O  O392  1  0.88488398  0.24391161  0.74900182  1
  O  O393  1  0.86907945  0.73594863  0.25207858  1
  O  O394  1  0.86121350  0.73916865  0.73278470  1
  O  O395  1  0.38026806  0.50051626  0.48953723  1
  O  O396  1  0.37373197  0.48987453  1.00103052  1
  O  O397  1  0.38468715  1.00388313  0.48969722  1
  O  O398  1  0.37822839  0.99410032  0.99676656  1
  O  O399  1  0.88447114  0.48728059  0.50167648  1
  O  O400  1  0.87620012  0.49180541  0.99994066  1
  O  O401  1  0.88137359  0.99423863  0.49293837  1
  O  O402  1  0.86882010  0.98994401  0.99069146  1
  O  O403  1  0.12430940  0.01243396  0.00026828  1
  O  O404  1  0.11021872  0.00309226  0.49939486  1
  O  O405  1  0.12444969  0.51139510  0.00680872  1
  O  O406  1  0.12113322  0.51024962  0.50508821  1
  O  O407  1  0.61372277  -0.00049358  0.00501029  1
  O  O408  1  0.61987457  0.00869778  0.50462674  1
  O  O409  1  0.63025570  0.49221391  0.01529824  1
  O  O410  1  0.62380705  0.51199212  0.49438782  1
  O  O411  1  0.36509660  0.37351202  0.12030039  1
  O  O412  1  0.36432780  0.37879615  0.62290143  1
  O  O413  1  0.37799215  0.86463486  0.11642732  1
  O  O414  1  0.36935493  0.86409663  0.62751879  1
  O  O415  1  0.87844181  0.36612539  0.11805058  1
  O  O416  1  0.86798221  0.37222592  0.61671750  1
  O  O417  1  0.86301742  0.87879079  0.10994166  1
  O  O418  1  0.86687529  0.86453253  0.61652968  1
  O  O419  1  0.13823651  0.13185228  0.38017142  1
  O  O420  1  0.12853302  0.13643358  0.88606899  1
  O  O421  1  0.13710881  0.61971067  0.38176381  1
  O  O422  1  0.13868512  0.61848240  0.88212623  1
  O  O423  1  0.63114340  0.12291170  0.38282472  1
  O  O424  1  0.63255320  0.12760502  0.87466581  1
  O  O425  1  0.63224940  0.63043410  0.38026617  1
  O  O426  1  0.63507137  0.63403849  0.86921862  1
