# generated using pymatgen
data_V85Zn86O256
_symmetry_space_group_name_H-M   'P 1'
_cell_length_a   16.92659385
_cell_length_b   16.91564395
_cell_length_c   16.93042113
_cell_angle_alpha   89.88948385
_cell_angle_beta   89.93108833
_cell_angle_gamma   89.98956873
_symmetry_Int_Tables_number   1
_chemical_formula_structural   V85Zn86O256
_chemical_formula_sum   'V85 Zn86 O256'
_cell_volume   4847.57727275
_cell_formula_units_Z   1
loop_
 _symmetry_equiv_pos_site_id
 _symmetry_equiv_pos_as_xyz
  1  'x, y, z'
loop_
 _atom_site_type_symbol
 _atom_site_label
 _atom_site_symmetry_multiplicity
 _atom_site_fract_x
 _atom_site_fract_y
 _atom_site_fract_z
 _atom_site_occupancy
  V  V0  1  -0.00531891  0.00269870  0.00502369  1
  V  V1  1  0.63373212  0.75398321  0.36923688  1
  V  V2  1  0.36827663  0.37810518  0.51137482  1
  V  V3  1  0.87467393  0.75326148  0.62453111  1
  V  V4  1  0.25011016  0.62608312  0.37428686  1
  V  V5  1  0.25316427  0.36752058  0.12527287  1
  V  V6  1  0.25170057  0.00165717  0.74950322  1
  V  V7  1  0.12231297  0.49749966  0.12644247  1
  V  V8  1  0.12571825  0.00304478  0.62359245  1
  V  V9  1  0.00044861  0.49718729  0.49794748  1
  V  V10  1  0.00093350  0.62493010  0.62476399  1
  V  V11  1  0.00076336  0.13036542  0.62778727  1
  V  V12  1  0.62190135  0.00103092  0.61718860  1
  V  V13  1  0.50856657  0.62796002  0.62491490  1
  V  V14  1  0.74305114  0.87398994  0.62636640  1
  V  V15  1  0.00301813  0.87218651  0.37572642  1
  V  V16  1  -0.00134030  0.36033325  0.37561840  1
  V  V17  1  0.62593392  0.25149439  0.87697690  1
  V  V18  1  0.74654122  0.49738226  0.73901462  1
  V  V19  1  0.24845767  0.75394511  0.49120892  1
  V  V20  1  -0.00124206  0.87254496  0.88166886  1
  V  V21  1  0.87602739  0.75376772  0.12229879  1
  V  V22  1  0.62693795  0.75165813  0.87303600  1
  V  V23  1  0.25051754  0.87320199  0.12402263  1
  V  V24  1  0.87782763  0.12688902  0.75183665  1
  V  V25  1  0.00117227  0.75024031  0.75190024  1
  V  V26  1  0.74953162  0.12492632  0.87756541  1
  V  V27  1  0.63435328  0.62760458  0.49677488  1
  V  V28  1  0.50387023  0.87842102  0.88072757  1
  V  V29  1  0.74350879  0.50506846  0.25931348  1
  V  V30  1  0.49993705  0.38049418  0.87743949  1
  V  V31  1  0.00072749  0.00030982  0.50073182  1
  V  V32  1  0.62786540  0.37957243  0.73693388  1
  V  V33  1  0.87300251  0.62273160  0.75326065  1
  V  V34  1  0.52002851  0.37063485  0.37570064  1
  V  V35  1  0.37732282  -0.00056690  0.87905907  1
  V  V36  1  0.12565880  0.36545896  0.25573352  1
  V  V37  1  0.37580819  0.62705048  0.74767916  1
  V  V38  1  0.87029239  0.37271939  0.50343540  1
  V  V39  1  0.87218211  -0.00766545  0.87873328  1
  V  V40  1  0.24847630  0.49720511  0.25079602  1
  V  V41  1  0.49884963  0.25054141  0.75076358  1
  V  V42  1  0.37608343  0.75382004  0.61986281  1
  V  V43  1  -0.00640137  0.49027434  0.00020576  1
  V  V44  1  0.50265082  0.12936031  0.61911704  1
  V  V45  1  0.12323222  0.62299301  -0.00002538  1
  V  V46  1  0.49869341  0.50528107  0.01479951  1
  V  V47  1  0.24944262  0.62436739  0.87240492  1
  V  V48  1  0.87558317  0.00241808  0.37443111  1
  V  V49  1  0.00632187  0.74782135  0.25110641  1
  V  V50  1  0.61849896  0.11952979  -0.00010876  1
  V  V51  1  0.12547946  0.62759038  0.49336681  1
  V  V52  1  0.37708358  0.49442903  0.37716418  1
  V  V53  1  0.12671974  0.87431128  0.25387246  1
  V  V54  1  0.26418148  0.00603901  0.25312771  1
  V  V55  1  0.25022694  0.87647411  0.62155388  1
  V  V56  1  0.87450806  0.62409213  0.25845096  1
  V  V57  1  0.87604124  0.12688151  0.23877308  1
  V  V58  1  0.75384522  0.37347465  0.13943444  1
  V  V59  1  0.25052665  0.74710294  -0.00024532  1
  V  V60  1  0.50581646  0.76103413  0.74668917  1
  V  V61  1  0.86910507  0.49216410  0.88012308  1
  V  V62  1  0.38357751  0.62024333  0.24702647  1
  V  V63  1  -0.00299776  0.24546332  0.23195185  1
  V  V64  1  0.86978328  0.25311594  0.62978354  1
  V  V65  1  0.74731244  0.87571390  0.13100680  1
  V  V66  1  0.24108728  0.25125623  0.50139666  1
  V  V67  1  0.49870942  0.88113274  0.37093403  1
  V  V68  1  0.49595197  0.00944854  0.48497402  1
  V  V69  1  0.74130754  0.12762567  0.37959169  1
  V  V70  1  0.48626188  0.13223284  0.12396292  1
  V  V71  1  0.25167063  0.49318824  0.74769322  1
  V  V72  1  0.76091924  0.25796679  0.00631796  1
  V  V73  1  0.38135591  0.74364840  0.12316974  1
  V  V74  1  0.75288833  0.75144286  0.00078522  1
  V  V75  1  0.12083490  0.00614637  0.12574806  1
  V  V76  1  0.11844802  0.24626751  0.87163330  1
  V  V77  1  0.50396829  0.75432327  0.24829787  1
  V  V78  1  0.73945737  0.24751449  0.50199169  1
  V  V79  1  0.25411842  0.24675418  -0.00100543  1
  V  V80  1  0.74170213  -0.00271534  0.75039171  1
  V  V81  1  0.13037451  0.49544170  0.62309587  1
  V  V82  1  0.50663404  0.50274382  0.50566588  1
  V  V83  1  0.11777194  0.37151304  0.74981851  1
  V  V84  1  0.61484376  -0.00395316  0.12772887  1
  Zn  Zn85  1  0.87519661  0.50020652  0.37643509  1
  Zn  Zn86  1  0.37855495  0.87488663  0.00051310  1
  Zn  Zn87  1  0.37739695  0.37224776  0.00083623  1
  Zn  Zn88  1  0.24855500  0.12372231  0.87479424  1
  Zn  Zn89  1  0.36968495  0.25499356  0.63019140  1
  Zn  Zn90  1  0.11857490  0.13493547  0.48774711  1
  Zn  Zn91  1  0.12527527  0.75028794  0.87418946  1
  Zn  Zn92  1  0.62078795  0.62651258  0.00992913  1
  Zn  Zn93  1  0.87320893  0.87541297  0.49946418  1
  Zn  Zn94  1  0.25393857  0.12328726  0.37325284  1
  Zn  Zn95  1  0.75325279  0.75008706  0.49573320  1
  Zn  Zn96  1  0.50129704  0.24748831  0.24887548  1
  Zn  Zn97  1  0.37698221  0.50152297  0.87577476  1
  Zn  Zn98  1  0.37209132  0.88580533  0.49163589  1
  Zn  Zn99  1  -0.00272953  0.62353618  0.12574191  1
  Zn  Zn100  1  0.74653879  0.62141456  0.87974985  1
  Zn  Zn101  1  0.12107578  0.12584321  0.00053679  1
  Zn  Zn102  1  0.12443358  0.87374401  0.75060361  1
  Zn  Zn103  1  0.62106098  0.49808947  0.13299242  1
  Zn  Zn104  1  0.37528116  0.12693053  0.75084234  1
  Zn  Zn105  1  0.74505876  -0.00154609  0.25160856  1
  Zn  Zn106  1  -0.00609552  0.36767157  0.87550888  1
  Zn  Zn107  1  0.18683493  0.18658521  0.18807282  1
  Zn  Zn108  1  0.19008268  0.19126176  0.68329480  1
  Zn  Zn109  1  0.18927478  0.68502416  0.18748728  1
  Zn  Zn110  1  0.18729470  0.68622213  0.68345202  1
  Zn  Zn111  1  0.68338842  0.18988626  0.18680276  1
  Zn  Zn112  1  0.68592016  0.18687496  0.68770779  1
  Zn  Zn113  1  0.68590372  0.68019387  0.18490532  1
  Zn  Zn114  1  0.68828582  0.68683225  0.68985352  1
  Zn  Zn115  1  0.33420857  0.27420501  0.32446787  1
  Zn  Zn116  1  0.31080253  0.31284410  0.81573316  1
  Zn  Zn117  1  0.31696469  0.81438909  0.31017045  1
  Zn  Zn118  1  0.31452032  0.81414311  0.81052147  1
  Zn  Zn119  1  0.81209572  0.30823769  0.31557635  1
  Zn  Zn120  1  0.80939735  0.31337764  0.81241266  1
  Zn  Zn121  1  0.81618385  0.81513174  0.30809042  1
  Zn  Zn122  1  0.81099932  0.81328552  0.81052845  1
  Zn  Zn123  1  0.18939087  0.43120468  0.43505047  1
  Zn  Zn124  1  0.18616984  0.43469343  0.93537535  1
  Zn  Zn125  1  0.18694742  0.94559966  0.43302332  1
  Zn  Zn126  1  0.18482652  0.93654657  0.93758561  1
  Zn  Zn127  1  0.69341696  0.44234592  0.44706513  1
  Zn  Zn128  1  0.68334494  0.43675748  0.93876688  1
  Zn  Zn129  1  0.68536672  0.93779576  0.43733242  1
  Zn  Zn130  1  0.68693772  0.93219120  0.94301779  1
  Zn  Zn131  1  0.30640514  0.05899786  0.05868032  1
  Zn  Zn132  1  0.31742514  0.07012129  0.56134788  1
  Zn  Zn133  1  0.31390426  0.55699553  0.06290646  1
  Zn  Zn134  1  0.31407783  0.56523998  0.56388150  1
  Zn  Zn135  1  0.80614900  0.06016401  0.05968334  1
  Zn  Zn136  1  0.81311739  0.06224242  0.56216834  1
  Zn  Zn137  1  0.80911945  0.56433580  0.06961181  1
  Zn  Zn138  1  0.81448208  0.56315881  0.56297577  1
  Zn  Zn139  1  0.42685166  0.40521722  0.20624951  1
  Zn  Zn140  1  0.44337446  0.44175654  0.68990134  1
  Zn  Zn141  1  0.44226444  0.93499909  0.18182161  1
  Zn  Zn142  1  0.43673653  0.94014827  0.68510248  1
  Zn  Zn143  1  0.93176088  0.43281253  0.18623973  1
  Zn  Zn144  1  0.93647146  0.43843076  0.68825319  1
  Zn  Zn145  1  0.93425114  0.93650268  0.18851230  1
  Zn  Zn146  1  0.93597519  0.93837947  0.69152948  1
  Zn  Zn147  1  0.06582408  0.06643581  0.31104845  1
  Zn  Zn148  1  0.06170217  0.06115925  0.81215405  1
  Zn  Zn149  1  0.05911640  0.55762681  0.31481853  1
  Zn  Zn150  1  0.06071357  0.55937586  0.81438181  1
  Zn  Zn151  1  0.57395349  0.09666620  0.29341937  1
  Zn  Zn152  1  0.56258437  0.06290659  0.81086431  1
  Zn  Zn153  1  0.56235305  0.56491092  0.31747675  1
  Zn  Zn154  1  0.56552853  0.56546674  0.81398277  1
  Zn  Zn155  1  0.43477097  0.18982235  0.43789845  1
  Zn  Zn156  1  0.43588945  0.18555356  0.93708906  1
  Zn  Zn157  1  0.43955681  0.68940862  0.43470747  1
  Zn  Zn158  1  0.43898439  0.68603448  0.93498782  1
  Zn  Zn159  1  0.93273723  0.18602017  0.43921927  1
  Zn  Zn160  1  0.93812738  0.18341531  0.93830821  1
  Zn  Zn161  1  0.93949514  0.69021357  0.43756755  1
  Zn  Zn162  1  0.93561411  0.68193502  0.93936953  1
  Zn  Zn163  1  0.06753649  0.31160519  0.06000622  1
  Zn  Zn164  1  0.05836762  0.31331998  0.56796688  1
  Zn  Zn165  1  0.06225183  0.81425826  0.06308759  1
  Zn  Zn166  1  0.06507045  0.81293763  0.56166515  1
  Zn  Zn167  1  0.57033135  0.31460025  0.06379512  1
  Zn  Zn168  1  0.55892801  0.31530801  0.56064312  1
  Zn  Zn169  1  0.56461685  0.81143700  0.06101058  1
  Zn  Zn170  1  0.56411430  0.81881247  0.55531866  1
  O  O171  1  0.12384042  0.10901374  0.12556230  1
  O  O172  1  0.11551076  0.11946774  0.62438206  1
  O  O173  1  0.12396622  0.61537806  0.11834256  1
  O  O174  1  0.12039943  0.61654621  0.61429708  1
  O  O175  1  0.61887689  0.11322934  0.11497426  1
  O  O176  1  0.61228660  0.11684508  0.63076633  1
  O  O177  1  0.62421523  0.61281299  0.12338663  1
  O  O178  1  0.61388480  0.63598225  0.61606815  1
  O  O179  1  0.38198986  0.38867792  0.38975969  1
  O  O180  1  0.38874637  0.37758297  0.87413065  1
  O  O181  1  0.39297597  0.87146090  0.37404608  1
  O  O182  1  0.38445799  0.87945256  0.87500784  1
  O  O183  1  0.88283473  0.37312077  0.38506971  1
  O  O184  1  0.87674816  0.38745648  0.87069709  1
  O  O185  1  0.88301312  0.88552195  0.37413618  1
  O  O186  1  0.88063287  0.88549413  0.86959943  1
  O  O187  1  0.25665742  -0.00408085  0.35738126  1
  O  O188  1  0.25495812  -0.00313750  0.86461741  1
  O  O189  1  0.25765998  0.50326846  0.36984382  1
  O  O190  1  0.25056132  0.50784017  0.86690082  1
  O  O191  1  0.75939794  0.00389821  0.37478683  1
  O  O192  1  0.75426209  0.00036360  0.86962718  1
  O  O193  1  0.75660872  0.49368450  0.36310597  1
  O  O194  1  0.75545908  0.50129319  0.87182289  1
  O  O195  1  0.23670680  0.49588421  0.13023008  1
  O  O196  1  0.24056803  0.50866887  0.63376481  1
  O  O197  1  0.24154973  0.98930798  0.12879702  1
  O  O198  1  0.24456447  0.99794677  0.62717159  1
  O  O199  1  0.75140379  0.49103808  0.14169051  1
  O  O200  1  0.75536180  0.50164589  0.63944787  1
  O  O201  1  0.74130629  0.99077671  0.12533199  1
  O  O202  1  0.74287074  0.99584967  0.62984849  1
  O  O203  1  0.00211899  0.36511240  0.25579040  1
  O  O204  1  0.01386773  0.38214638  0.75331186  1
  O  O205  1  0.00749259  0.86881883  0.25562344  1
  O  O206  1  -0.00055975  0.86799668  0.76042900  1
  O  O207  1  0.51833711  0.39441620  0.27558240  1
  O  O208  1  0.50645026  0.36792441  0.75575360  1
  O  O209  1  0.49912671  0.86272330  0.25344061  1
  O  O210  1  0.49566536  0.86441944  0.75477839  1
  O  O211  1  0.48200848  0.11747306  0.22589405  1
  O  O212  1  0.50199523  0.13958578  0.74577300  1
  O  O213  1  0.48817296  0.63357896  0.25739039  1
  O  O214  1  0.49754994  0.63430089  0.74146699  1
  O  O215  1  0.98661451  0.13083742  0.25281731  1
  O  O216  1  0.98632385  0.11668480  0.74288935  1
  O  O217  1  0.99726742  0.63268811  0.24936994  1
  O  O218  1  0.99413616  0.62958663  0.74514712  1
  O  O219  1  0.35893288  0.25353784  -0.00916811  1
  O  O220  1  0.37020363  0.26855706  0.50650013  1
  O  O221  1  0.36928608  0.74753033  0.00755330  1
  O  O222  1  0.36725434  0.75160644  0.50468061  1
  O  O223  1  0.85879153  0.24227496  -0.00290694  1
  O  O224  1  0.86972827  0.25559498  0.50999681  1
  O  O225  1  0.86933177  0.74413544  0.01113288  1
  O  O226  1  0.87355650  0.75144659  0.51071780  1
  O  O227  1  0.13570919  0.25258715  0.50892055  1
  O  O228  1  0.13210529  0.24759404  0.99004298  1
  O  O229  1  0.13502834  0.73955876  0.50408650  1
  O  O230  1  0.13063698  0.73913765  1.00144615  1
  O  O231  1  0.64064184  0.25210323  0.51259309  1
  O  O232  1  0.63316362  0.24234809  0.99157117  1
  O  O233  1  0.62696398  0.74606816  0.48797166  1
  O  O234  1  0.63254162  0.74770850  0.99268123  1
  O  O235  1  0.50637472  0.23555637  0.11948591  1
  O  O236  1  0.49896715  0.24578565  0.63280179  1
  O  O237  1  0.48962864  0.75450787  0.13124665  1
  O  O238  1  0.49721331  0.74977841  0.62866165  1
  O  O239  1  0.99980426  0.25311461  0.13247291  1
  O  O240  1  0.98961349  0.23653721  0.62362589  1
  O  O241  1  0.99329602  0.75006265  0.13244235  1
  O  O242  1  0.99340680  0.74662493  0.63029747  1
  O  O243  1  -0.00256899  0.25764521  0.37214149  1
  O  O244  1  0.01192339  0.24989789  0.87981160  1
  O  O245  1  -0.00279212  0.76406880  0.36762754  1
  O  O246  1  -0.00189245  0.75553786  0.87067404  1
  O  O247  1  0.50073703  0.26935795  0.38082781  1
  O  O248  1  0.50616951  0.25588792  0.86868338  1
  O  O249  1  0.50759628  0.75792789  0.36642596  1
  O  O250  1  0.50596878  0.75649561  0.86618739  1
  O  O251  1  0.25089765  0.14212196  0.49887022  1
  O  O252  1  0.24227104  0.13233720  0.99731848  1
  O  O253  1  0.24467646  0.63236408  0.49451457  1
  O  O254  1  0.24105228  0.62516436  0.99451364  1
  O  O255  1  0.76016546  0.13255837  0.48843292  1
  O  O256  1  0.74093561  0.13370437  0.99548683  1
  O  O257  1  0.73864951  0.62823005  0.50524494  1
  O  O258  1  0.74884882  0.63746691  1.00039231  1
  O  O259  1  0.24632774  0.36713188  0.00747425  1
  O  O260  1  0.26314946  0.37894230  0.50694954  1
  O  O261  1  0.24743446  0.86657406  0.01104947  1
  O  O262  1  0.24976097  0.86998153  0.50114619  1
  O  O263  1  0.74835614  0.36061644  0.00013964  1
  O  O264  1  0.76372666  0.36612952  0.49874379  1
  O  O265  1  0.74822487  0.86024450  0.01209043  1
  O  O266  1  0.75252843  0.87422233  0.51301715  1
  O  O267  1  0.12618109  0.49298938  0.24252183  1
  O  O268  1  0.13151758  0.49726619  0.74229608  1
  O  O269  1  0.13036548  0.98951252  0.24148913  1
  O  O270  1  0.13085131  0.99832739  0.73831421  1
  O  O271  1  0.64062031  0.50654797  0.25665437  1
  O  O272  1  0.63412319  0.49290467  0.75496910  1
  O  O273  1  0.62622363  1.00731052  0.23122710  1
  O  O274  1  0.63703281  1.00372315  0.74207439  1
  O  O275  1  0.36095615  -0.00809196  0.23955195  1
  O  O276  1  0.36668735  -0.00045395  0.75730375  1
  O  O277  1  0.37163094  0.50302728  0.25893285  1
  O  O278  1  0.36734640  0.50770782  0.74876362  1
  O  O279  1  0.87392373  0.00883820  0.25748625  1
  O  O280  1  0.86350620  0.00702844  0.75577046  1
  O  O281  1  0.87019155  0.50864241  0.25198830  1
  O  O282  1  0.86804579  0.50395890  0.75745247  1
  O  O283  1  0.11475538  0.38149553  0.36225310  1
  O  O284  1  0.12125219  0.36743326  0.86617489  1
  O  O285  1  0.11910802  0.87970708  0.36195540  1
  O  O286  1  0.11462144  0.87127522  0.87111899  1
  O  O287  1  0.61750898  0.37583481  0.39436066  1
  O  O288  1  0.61450218  0.36859172  0.86953054  1
  O  O289  1  0.61574110  0.86240008  0.37797424  1
  O  O290  1  0.61863538  0.86420805  0.87653960  1
  O  O291  1  0.38987092  0.12228761  0.10231000  1
  O  O292  1  0.39010587  0.12806516  0.63112752  1
  O  O293  1  0.36809869  0.63114628  0.13563420  1
  O  O294  1  0.38615791  0.63454989  0.62724720  1
  O  O295  1  0.86753865  0.11774268  0.14063019  1
  O  O296  1  0.88084991  0.12794305  0.63373230  1
  O  O297  1  0.87683553  0.63590390  0.13833539  1
  O  O298  1  0.88095665  0.63416526  0.63120255  1
  O  O299  1  0.24165674  0.25785590  0.11523739  1
  O  O300  1  0.25464107  0.25372144  0.61212528  1
  O  O301  1  0.25914317  0.75453313  0.12226145  1
  O  O302  1  0.25457082  0.75570229  0.61410831  1
  O  O303  1  0.74504773  0.25863631  0.11682418  1
  O  O304  1  0.76294169  0.23985497  0.61882467  1
  O  O305  1  0.75539668  0.75474643  0.12173924  1
  O  O306  1  0.75749966  0.75761170  0.62648550  1
  O  O307  1  0.24672679  0.27343999  0.39997888  1
  O  O308  1  0.23857489  0.24895071  0.88069817  1
  O  O309  1  0.25578516  0.74633997  0.38459803  1
  O  O310  1  0.24868788  0.74298034  0.87967743  1
  O  O311  1  0.75360928  0.23589216  0.38488788  1
  O  O312  1  0.74440199  0.24538681  0.88309853  1
  O  O313  1  0.73776207  0.75860729  0.37382859  1
  O  O314  1  0.74445378  0.75165690  0.88189997  1
  O  O315  1  0.00198353  0.10735461  -0.00309827  1
  O  O316  1  -0.00008178  0.11855242  0.50917596  1
  O  O317  1  0.01129326  0.61615672  0.00252828  1
  O  O318  1  0.00814894  0.62074208  0.50311480  1
  O  O319  1  0.51376254  0.12704744  -0.00036527  1
  O  O320  1  0.49857871  0.12226618  0.50598101  1
  O  O321  1  0.49696910  0.60941160  -0.00129681  1
  O  O322  1  0.50734610  0.62254807  0.50650806  1
  O  O323  1  0.49185827  0.38682634  0.49781700  1
  O  O324  1  0.49974676  0.38186569  0.99284759  1
  O  O325  1  0.49760099  0.88743820  0.48906213  1
  O  O326  1  0.49777690  0.86936875  0.98482195  1
  O  O327  1  0.99229046  0.37611570  0.49412524  1
  O  O328  1  1.00428172  0.38736984  0.99856026  1
  O  O329  1  1.00058438  0.87976044  0.49136752  1
  O  O330  1  1.00218053  0.88119126  0.98772236  1
  O  O331  1  0.49421801  0.50080375  0.39019179  1
  O  O332  1  0.49903092  0.49275095  0.87703185  1
  O  O333  1  0.51162191  0.99735804  0.38117757  1
  O  O334  1  0.49210318  0.98925337  0.86445934  1
  O  O335  1  0.99644575  0.48794130  0.38320227  1
  O  O336  1  0.99083368  0.49868807  0.88449998  1
  O  O337  1  0.99527845  0.99054386  0.37793154  1
  O  O338  1  0.99163762  0.99140558  0.87942278  1
  O  O339  1  0.00742532  -0.01364268  0.11553686  1
  O  O340  1  0.00620899  0.00663659  0.62283443  1
  O  O341  1  0.00764632  0.49910354  0.12065565  1
  O  O342  1  0.00661564  0.50715535  0.61845599  1
  O  O343  1  0.51036204  0.00344619  0.11818877  1
  O  O344  1  0.50640384  0.00759718  0.61957062  1
  O  O345  1  0.49641876  0.48826238  0.11424932  1
  O  O346  1  0.49691797  0.51364688  0.61503348  1
  O  O347  1  0.23827106  0.38036734  0.24289163  1
  O  O348  1  0.24176258  0.38901536  0.75526625  1
  O  O349  1  0.24431181  0.87684352  0.24118384  1
  O  O350  1  0.24853145  0.88472320  0.74098614  1
  O  O351  1  0.75348291  0.38164065  0.24640650  1
  O  O352  1  0.73916973  0.38371563  0.75390163  1
  O  O353  1  0.75017269  0.87664307  0.23655274  1
  O  O354  1  0.75525421  0.88410320  0.73708756  1
  O  O355  1  0.25043452  0.10834199  0.24288045  1
  O  O356  1  0.25088158  0.11181369  0.74740534  1
  O  O357  1  0.25822188  0.61855093  0.25671457  1
  O  O358  1  0.25328543  0.61847005  0.75368344  1
  O  O359  1  0.76177098  0.12384566  0.26356994  1
  O  O360  1  0.75648591  0.11758657  0.75731549  1
  O  O361  1  0.75913448  0.61279359  0.25063033  1
  O  O362  1  0.75591457  0.61735033  0.75363645  1
  O  O363  1  0.35857149  0.16473495  0.36134498  1
  O  O364  1  0.37218216  0.11482015  0.87041622  1
  O  O365  1  0.37091891  0.61460769  0.37052086  1
  O  O366  1  0.36766876  0.62532541  0.86490476  1
  O  O367  1  0.87182082  0.11284437  0.37093276  1
  O  O368  1  0.87032883  0.11463732  0.86830906  1
  O  O369  1  0.88108445  0.62553164  0.36328043  1
  O  O370  1  0.87333230  0.61451088  0.86719228  1
  O  O371  1  0.12969497  0.38173009  0.13307308  1
  O  O372  1  0.11981079  0.38830785  0.63160420  1
  O  O373  1  0.13228961  0.87736373  0.13493435  1
  O  O374  1  0.13207435  0.88368815  0.62652652  1
  O  O375  1  0.64529021  0.38211945  0.11943329  1
  O  O376  1  0.61859274  0.37661678  0.63798783  1
  O  O377  1  0.62914697  0.88799783  0.11922087  1
  O  O378  1  0.63201341  0.88421251  0.62475489  1
  O  O379  1  0.11498634  0.25729301  0.24600216  1
  O  O380  1  0.13093892  0.26059264  0.75590347  1
  O  O381  1  0.11403682  0.75516581  0.24432597  1
  O  O382  1  0.11392610  0.74919646  0.74923175  1
  O  O383  1  0.60686364  0.20748896  0.26398017  1
  O  O384  1  0.62083724  0.25758933  0.75731021  1
  O  O385  1  0.61795165  0.74343055  0.26069830  1
  O  O386  1  0.61651790  0.74779374  0.75768580  1
  O  O387  1  0.39863085  0.29628326  0.23842703  1
  O  O388  1  0.38423920  0.25155389  0.74952117  1
  O  O389  1  0.38261203  0.74120258  0.24304910  1
  O  O390  1  0.38207120  0.74602279  0.74036316  1
  O  O391  1  0.88123580  0.23518085  0.25349033  1
  O  O392  1  0.86846098  0.23899699  0.74454432  1
  O  O393  1  0.88650482  0.74473715  0.24594378  1
  O  O394  1  0.88119752  0.74414042  0.74321618  1
  O  O395  1  0.38052691  0.49661615  0.49696789  1
  O  O396  1  0.38561239  0.49692916  0.99565894  1
  O  O397  1  0.38930388  1.00297143  0.50057652  1
  O  O398  1  0.36566558  0.99310129  0.98288208  1
  O  O399  1  0.88078489  0.49115268  0.50128439  1
  O  O400  1  0.88250629  0.50934813  0.99354815  1
  O  O401  1  0.88345474  0.99731461  0.49335350  1
  O  O402  1  0.87910544  1.00178586  0.98977316  1
  O  O403  1  0.11600772  -0.00237592  0.00891379  1
  O  O404  1  0.12074114  0.00104586  0.51217090  1
  O  O405  1  0.11935186  0.50482290  0.00689170  1
  O  O406  1  0.12283834  0.50372171  0.50653351  1
  O  O407  1  0.63290799  0.00934087  0.00938554  1
  O  O408  1  0.61677611  -0.00233354  0.51207391  1
  O  O409  1  0.60848684  0.50187841  -0.00192133  1
  O  O410  1  0.61807672  0.51326923  0.49831722  1
  O  O411  1  0.35395227  0.38978859  0.11747883  1
  O  O412  1  0.38185651  0.38060095  0.61372054  1
  O  O413  1  0.36717556  0.86479535  0.12164428  1
  O  O414  1  0.36709730  0.87086420  0.61949029  1
  O  O415  1  0.85435793  0.37697076  0.12127187  1
  O  O416  1  0.88321203  0.36296397  0.61921843  1
  O  O417  1  0.86673191  0.86180574  0.13007225  1
  O  O418  1  0.87043924  0.86605507  0.62535477  1
  O  O419  1  0.13880066  0.11430111  0.37863751  1
  O  O420  1  0.12695042  0.13168649  0.87342853  1
  O  O421  1  0.13048126  0.61806563  0.38671920  1
  O  O422  1  0.13018980  0.62534605  0.88345766  1
  O  O423  1  0.64480889  0.10836571  0.38506049  1
  O  O424  1  0.63070041  0.12970159  0.87928815  1
  O  O425  1  0.61995801  0.64200094  0.38456716  1
  O  O426  1  0.62548697  0.63987413  0.87960224  1
