# generated using pymatgen
data_V85Zn86O256
_symmetry_space_group_name_H-M   'P 1'
_cell_length_a   16.94514686
_cell_length_b   16.95848532
_cell_length_c   16.95451774
_cell_angle_alpha   89.93926968
_cell_angle_beta   89.96604080
_cell_angle_gamma   89.95819082
_symmetry_Int_Tables_number   1
_chemical_formula_structural   V85Zn86O256
_chemical_formula_sum   'V85 Zn86 O256'
_cell_volume   4872.11356080
_cell_formula_units_Z   1
loop_
 _symmetry_equiv_pos_site_id
 _symmetry_equiv_pos_as_xyz
  1  'x, y, z'
loop_
 _atom_site_type_symbol
 _atom_site_label
 _atom_site_symmetry_multiplicity
 _atom_site_fract_x
 _atom_site_fract_y
 _atom_site_fract_z
 _atom_site_occupancy
  V  V0  1  0.00070329  0.37373912  0.37182233  1
  V  V1  1  0.63265531  0.87070464  0.24620232  1
  V  V2  1  0.62782959  0.25017757  0.36650960  1
  V  V3  1  0.62251757  0.50265127  0.63343243  1
  V  V4  1  0.74194598  0.75249962  0.50052688  1
  V  V5  1  0.62517748  0.13783003  -0.00052025  1
  V  V6  1  -0.00109781  0.75110898  0.24841179  1
  V  V7  1  0.50233501  0.38007216  0.37918300  1
  V  V8  1  0.50440818  0.51453943  -0.00262778  1
  V  V9  1  0.87213025  0.87921490  0.00421887  1
  V  V10  1  0.37048758  0.00489729  0.86947190  1
  V  V11  1  0.87046835  0.50872635  0.89043755  1
  V  V12  1  0.76982866  0.25656777  0.00266369  1
  V  V13  1  0.87694137  0.25387514  0.62893422  1
  V  V14  1  0.37795964  0.62129788  0.24484612  1
  V  V15  1  -0.00453457  0.12942927  0.13598712  1
  V  V16  1  0.74893705  0.25215186  0.49454609  1
  V  V17  1  0.61886596  0.62096035  0.50204521  1
  V  V18  1  0.12376902  0.25019612  0.37358274  1
  V  V19  1  0.87432780  0.50522805  0.37946273  1
  V  V20  1  0.12415342  0.87770376  0.74757318  1
  V  V21  1  0.75129577  0.12781579  0.87927342  1
  V  V22  1  0.00054372  0.87527858  0.37687747  1
  V  V23  1  0.25005497  0.74830535  0.00287316  1
  V  V24  1  0.87140472  0.00381739  0.37331194  1
  V  V25  1  0.12304764  0.14425957  -0.00195362  1
  V  V26  1  0.11868632  0.50145950  0.62768474  1
  V  V27  1  0.12492182  0.74929895  0.37569017  1
  V  V28  1  0.11793166  0.49792428  0.12446740  1
  V  V29  1  -0.00245969  0.73776142  0.74873713  1
  V  V30  1  0.12087742  0.62654187  0.50491441  1
  V  V31  1  0.25063252  0.12399783  0.37294877  1
  V  V32  1  -0.00026756  0.50173201  0.50422587  1
  V  V33  1  0.38222043  0.74712517  0.12592076  1
  V  V34  1  0.37592902  0.12555796  0.24580152  1
  V  V35  1  0.12006877  0.62058852  0.00135048  1
  V  V36  1  0.25142333  0.62321988  0.87615215  1
  V  V37  1  0.12604307  0.87617819  0.24940722  1
  V  V38  1  0.62925672  0.12052466  0.49355256  1
  V  V39  1  -0.00100105  0.87534362  0.87909097  1
  V  V40  1  0.75963500  0.52332793  0.74975802  1
  V  V41  1  0.00171509  0.12382428  0.62987473  1
  V  V42  1  0.62594191  0.73961946  0.87156548  1
  V  V43  1  0.69328100  0.32655016  0.68345917  1
  V  V44  1  0.48825738  0.75198698  0.74116363  1
  V  V45  1  0.87253845  0.37579278  0.50347920  1
  V  V46  1  0.24850152  0.62024697  0.37287351  1
  V  V47  1  0.25623427  0.24720504  0.49921442  1
  V  V48  1  0.87371228  0.62797339  0.25339458  1
  V  V49  1  -0.00158224  0.62392462  0.12418306  1
  V  V50  1  0.50293664  0.25825663  0.24503596  1
  V  V51  1  0.50807033  0.74546620  0.25034556  1
  V  V52  1  0.62409247  0.87875789  0.74669322  1
  V  V53  1  0.87552355  0.87439115  0.50382532  1
  V  V54  1  0.24746781  0.37271125  0.11473164  1
  V  V55  1  0.50076178  0.12130018  0.62755860  1
  V  V56  1  0.50664812  0.87444680  0.37139961  1
  V  V57  1  0.75032148  0.88090703  0.62607017  1
  V  V58  1  0.12611787  0.37011250  0.25036646  1
  V  V59  1  0.48747359  0.62495463  0.62348097  1
  V  V60  1  0.74778085  -0.00194020  0.75175940  1
  V  V61  1  0.38655360  0.37452328  -0.00631599  1
  V  V62  1  -0.00452456  0.38101255  0.89318842  1
  V  V63  1  0.12035412  -0.00129814  0.11204348  1
  V  V64  1  0.75008203  0.74793089  -0.00690967  1
  V  V65  1  0.88008192  0.00005232  0.87853157  1
  V  V66  1  0.74308942  0.63233597  0.37690302  1
  V  V67  1  0.12667209  0.12443233  0.50110049  1
  V  V68  1  0.75330812  0.00246833  0.24671936  1
  V  V69  1  0.50278909  0.87834159  0.87336458  1
  V  V70  1  0.74082449  0.49782914  0.25142321  1
  V  V71  1  0.24924960  0.50006059  0.75069107  1
  V  V72  1  0.24703426  0.37248503  0.62502468  1
  V  V73  1  0.63265811  -0.00680921  0.11973267  1
  V  V74  1  0.50072450  0.00079638  0.00213589  1
  V  V75  1  0.00571941  0.25518383  0.75940984  1
  V  V76  1  0.25047499  -0.00386212  0.24722142  1
  V  V77  1  0.86662146  0.75540594  0.12571529  1
  V  V78  1  0.00049803  -0.00010093  0.50181537  1
  V  V79  1  0.50120459  0.00202692  0.49494605  1
  V  V80  1  0.24669422  0.13972058  0.87606031  1
  V  V81  1  0.37925048  0.24393457  0.63717756  1
  V  V82  1  0.87684398  0.73811371  0.62844675  1
  V  V83  1  0.37587024  0.87495959  0.00084506  1
  V  V84  1  0.36961830  0.24987112  0.12014806  1
  Zn  Zn85  1  0.26722404  0.87181310  0.62774131  1
  Zn  Zn86  1  0.37872583  0.87112878  0.50663128  1
  Zn  Zn87  1  0.54735517  0.29793418  0.81861056  1
  Zn  Zn88  1  0.37662012  0.00142209  0.37160840  1
  Zn  Zn89  1  0.37775518  0.38099893  0.50092305  1
  Zn  Zn90  1  0.12263716  0.74908271  0.87672746  1
  Zn  Zn91  1  0.87747908  0.12443545  0.75283203  1
  Zn  Zn92  1  0.61604455  0.49998445  0.12872439  1
  Zn  Zn93  1  0.36787050  0.63114900  0.74273949  1
  Zn  Zn94  1  0.87982783  0.25340464  0.14951193  1
  Zn  Zn95  1  0.38088109  0.50082067  0.37717917  1
  Zn  Zn96  1  0.25322457  0.49646205  0.24799988  1
  Zn  Zn97  1  0.25165871  0.00511484  0.75035905  1
  Zn  Zn98  1  0.50052766  0.12587459  0.12505381  1
  Zn  Zn99  1  0.25083928  0.87510744  0.12500714  1
  Zn  Zn100  1  0.63074010  0.62324200  0.00127731  1
  Zn  Zn101  1  0.75014193  0.37724079  0.12225140  1
  Zn  Zn102  1  0.37643430  0.49424687  0.86859461  1
  Zn  Zn103  1  0.80730585  0.16541248  0.31709509  1
  Zn  Zn104  1  0.26025184  0.75015599  0.51220484  1
  Zn  Zn105  1  0.12487870  0.37203367  0.76154185  1
  Zn  Zn106  1  0.13403127  0.00001050  0.62419399  1
  Zn  Zn107  1  0.18611542  0.18656618  0.18512819  1
  Zn  Zn108  1  0.18722418  0.18651740  0.69103307  1
  Zn  Zn109  1  0.19008561  0.68667553  0.18791598  1
  Zn  Zn110  1  0.18428521  0.68981759  0.68800051  1
  Zn  Zn111  1  0.68391123  0.18666341  0.17938441  1
  Zn  Zn112  1  0.68581749  0.16067615  0.68319144  1
  Zn  Zn113  1  0.68561671  0.68102361  0.18053481  1
  Zn  Zn114  1  0.68144619  0.69111500  0.68598136  1
  Zn  Zn115  1  0.31473958  0.31372670  0.30910140  1
  Zn  Zn116  1  0.31515839  0.31251775  0.81033157  1
  Zn  Zn117  1  0.33038797  0.79638220  0.34179503  1
  Zn  Zn118  1  0.30981187  0.81563427  0.81714642  1
  Zn  Zn119  1  0.82019382  0.32610926  0.30548476  1
  Zn  Zn120  1  0.82088278  0.31276448  0.82207911  1
  Zn  Zn121  1  0.81067519  0.81640083  0.31500854  1
  Zn  Zn122  1  0.81494025  0.80860632  0.81270006  1
  Zn  Zn123  1  0.19094362  0.43828257  0.44035491  1
  Zn  Zn124  1  0.18316266  0.43610911  0.93854785  1
  Zn  Zn125  1  0.19206276  0.93674436  0.44039162  1
  Zn  Zn126  1  0.18915662  0.93454669  0.93431944  1
  Zn  Zn127  1  0.68431712  0.43772433  0.43927360  1
  Zn  Zn128  1  0.68710887  0.42934689  0.92896546  1
  Zn  Zn129  1  0.68709998  0.93726195  0.43256749  1
  Zn  Zn130  1  0.69031300  0.93473538  0.93572109  1
  Zn  Zn131  1  0.30806042  0.06476777  0.05774118  1
  Zn  Zn132  1  0.31673530  0.05452934  0.56372067  1
  Zn  Zn133  1  0.31168024  0.55710990  0.06356911  1
  Zn  Zn134  1  0.30810211  0.55948661  0.55678511  1
  Zn  Zn135  1  0.81422289  0.06275920  0.06391299  1
  Zn  Zn136  1  0.81427432  0.06511618  0.56165003  1
  Zn  Zn137  1  0.80836379  0.56805229  0.06619823  1
  Zn  Zn138  1  0.80598462  0.56110207  0.56546836  1
  Zn  Zn139  1  0.43891609  0.43749514  0.18407244  1
  Zn  Zn140  1  0.43625530  0.43554667  0.68295890  1
  Zn  Zn141  1  0.43955527  0.93419644  0.18702458  1
  Zn  Zn142  1  0.43935956  0.94373156  0.68440313  1
  Zn  Zn143  1  0.93206181  0.43803446  0.18757441  1
  Zn  Zn144  1  0.93436551  0.43709058  0.69352192  1
  Zn  Zn145  1  0.93962912  0.94150549  0.18679451  1
  Zn  Zn146  1  0.93741539  0.93565013  0.69135306  1
  Zn  Zn147  1  0.06495786  0.05945054  0.31306287  1
  Zn  Zn148  1  0.06430885  0.06334517  0.81680881  1
  Zn  Zn149  1  0.06217037  0.55906144  0.31121658  1
  Zn  Zn150  1  0.06071918  0.55669082  0.81892927  1
  Zn  Zn151  1  0.56692066  0.06581677  0.30809621  1
  Zn  Zn152  1  0.54369533  0.09937838  0.83304618  1
  Zn  Zn153  1  0.56235747  0.56817966  0.31571508  1
  Zn  Zn154  1  0.55975632  0.45837119  0.81340360  1
  Zn  Zn155  1  0.43885070  0.18882651  0.43327289  1
  Zn  Zn156  1  0.43283659  0.18975101  0.93964365  1
  Zn  Zn157  1  0.44074600  0.68677432  0.43260152  1
  Zn  Zn158  1  0.43912837  0.68685289  0.92978183  1
  Zn  Zn159  1  0.94106312  0.18986042  0.44039521  1
  Zn  Zn160  1  0.94489029  0.18461531  0.94018069  1
  Zn  Zn161  1  0.93648542  0.68865792  0.44292092  1
  Zn  Zn162  1  0.93610494  0.68729817  0.93684501  1
  Zn  Zn163  1  0.05509787  0.31102456  0.06593010  1
  Zn  Zn164  1  0.06320553  0.31217224  0.56245185  1
  Zn  Zn165  1  0.06001226  0.81182820  0.06189926  1
  Zn  Zn166  1  0.06570331  0.80937757  0.56700414  1
  Zn  Zn167  1  0.56785827  0.32233586  0.06746743  1
  Zn  Zn168  1  0.55935336  0.30752618  0.55802663  1
  Zn  Zn169  1  0.56416148  0.81092998  0.06265653  1
  Zn  Zn170  1  0.56052351  0.81561162  0.56446724  1
  O  O171  1  0.12274887  0.11678974  0.11428430  1
  O  O172  1  0.11746732  0.12248599  0.62080500  1
  O  O173  1  0.12066868  0.61708789  0.12187275  1
  O  O174  1  0.12802931  0.61417961  0.61560901  1
  O  O175  1  0.62270390  0.11093348  0.11398440  1
  O  O176  1  0.60958593  0.13124373  0.60717793  1
  O  O177  1  0.63012177  0.61323482  0.11451331  1
  O  O178  1  0.61643880  0.61954747  0.61951958  1
  O  O179  1  0.38972357  0.37226039  0.37377263  1
  O  O180  1  0.36357051  0.37545414  0.89174787  1
  O  O181  1  0.39890783  0.88635938  0.35991001  1
  O  O182  1  0.38162792  0.88396643  0.88244116  1
  O  O183  1  0.88482072  0.38445317  0.38402122  1
  O  O184  1  0.88724359  0.39021105  0.87174280  1
  O  O185  1  0.88141940  0.88259114  0.38342467  1
  O  O186  1  0.88096541  0.88048580  0.88139397  1
  O  O187  1  0.25000965  0.00744812  0.36442117  1
  O  O188  1  0.25766255  0.00300822  0.87389738  1
  O  O189  1  0.24402115  0.51232115  0.36972323  1
  O  O190  1  0.24876198  0.50596951  0.86710816  1
  O  O191  1  0.76087884  -0.00438672  0.36535646  1
  O  O192  1  0.76232414  0.00272798  0.87032541  1
  O  O193  1  0.75357681  0.51276399  0.37291042  1
  O  O194  1  0.76217907  0.49715975  0.86045662  1
  O  O195  1  0.23671747  0.49160783  0.12769076  1
  O  O196  1  0.23999454  0.49112769  0.62987751  1
  O  O197  1  0.23797086  0.99940425  0.12996999  1
  O  O198  1  0.25104012  0.99431122  0.63372981  1
  O  O199  1  0.75746529  0.50447853  0.14685990  1
  O  O200  1  0.74299596  0.50389498  0.64057832  1
  O  O201  1  0.74385156  0.99884793  0.13104106  1
  O  O202  1  0.75834351  0.98904140  0.63275856  1
  O  O203  1  0.00787650  0.38151727  0.26585345  1
  O  O204  1  0.00201038  0.36722479  0.75485234  1
  O  O205  1  0.00503266  0.87050826  0.25754539  1
  O  O206  1  0.00611942  0.86961344  0.76089242  1
  O  O207  1  0.49635936  0.36328943  0.25694838  1
  O  O208  1  0.49112804  0.38085753  0.76176310  1
  O  O209  1  0.51365934  0.86897245  0.25055049  1
  O  O210  1  0.50944504  0.87459731  0.75292627  1
  O  O211  1  0.49337821  0.13408117  0.24550163  1
  O  O212  1  0.50922457  0.10894097  0.72482138  1
  O  O213  1  0.49205597  0.63402608  0.25422828  1
  O  O214  1  0.49021906  0.63885699  0.73630480  1
  O  O215  1  1.01053168  0.12092086  0.23441778  1
  O  O216  1  0.99927046  0.13120873  0.74533948  1
  O  O217  1  0.99340622  0.63146065  0.24680117  1
  O  O218  1  1.00937366  0.64003100  0.75481689  1
  O  O219  1  0.37696549  0.26171046  0.00867206  1
  O  O220  1  0.36350885  0.24932953  0.50292974  1
  O  O221  1  0.37113897  0.75179609  0.00736293  1
  O  O222  1  0.36323252  0.76350790  0.45705448  1
  O  O223  1  0.86953200  0.24644261  0.00504801  1
  O  O224  1  0.86725388  0.25282299  0.50760228  1
  O  O225  1  0.87060240  0.75725320  0.00605567  1
  O  O226  1  0.86714057  0.75698141  0.50819034  1
  O  O227  1  0.13666399  0.24380553  0.49656128  1
  O  O228  1  0.12713628  0.24239200  1.00510675  1
  O  O229  1  0.12048606  0.74209520  0.49020999  1
  O  O230  1  0.13476478  0.74230217  1.00261972  1
  O  O231  1  0.63251482  0.24366642  0.49098664  1
  O  O232  1  0.62783735  0.23869387  1.00582521  1
  O  O233  1  0.63779178  0.74427693  0.50863519  1
  O  O234  1  0.63424023  0.75642243  0.99061762  1
  O  O235  1  0.49107376  0.25185499  0.13023173  1
  O  O236  1  0.48663944  0.23940502  0.61809325  1
  O  O237  1  0.48890287  0.75383033  0.13268486  1
  O  O238  1  0.50553689  0.74159798  0.63230222  1
  O  O239  1  0.99889219  0.23487469  0.12826988  1
  O  O240  1  0.99400607  0.24080985  0.62893190  1
  O  O241  1  0.99195625  0.74484640  0.13148918  1
  O  O242  1  0.99181329  0.75351463  0.63931487  1
  O  O243  1  0.01201405  0.26163485  0.38548201  1
  O  O244  1  -0.01034155  0.26519805  0.86942677  1
  O  O245  1  0.00793769  0.75318582  0.36983241  1
  O  O246  1  -0.00125753  0.75682072  0.86490291  1
  O  O247  1  0.50726729  0.25659026  0.36514901  1
  O  O248  1  0.50908712  0.20511597  0.86208430  1
  O  O249  1  0.50353998  0.75851629  0.35803544  1
  O  O250  1  0.50612513  0.75934128  0.86622162  1
  O  O251  1  0.24646221  0.12852421  0.49492623  1
  O  O252  1  0.23237930  0.12109936  0.99137400  1
  O  O253  1  0.23720943  0.62915170  0.48982235  1
  O  O254  1  0.24262428  0.62900554  0.99656943  1
  O  O255  1  0.74190028  0.13896146  0.50861057  1
  O  O256  1  0.74639275  0.13180988  0.99584607  1
  O  O257  1  0.74195981  0.63384785  0.49575925  1
  O  O258  1  0.75309030  0.64352111  0.99953715  1
  O  O259  1  0.25437371  0.37983915  0.01183390  1
  O  O260  1  0.24850499  0.36337840  0.50817900  1
  O  O261  1  0.25619419  0.86421324  0.00090190  1
  O  O262  1  0.25584530  0.87150718  0.50220122  1
  O  O263  1  0.75143012  0.35770984  -0.00374932  1
  O  O264  1  0.75624822  0.36199865  0.49507791  1
  O  O265  1  0.76439042  0.86603805  -0.00334788  1
  O  O266  1  0.75181384  0.87075449  0.50711837  1
  O  O267  1  0.12633853  0.48739915  0.24377521  1
  O  O268  1  0.13271099  0.49934752  0.74330020  1
  O  O269  1  0.13256506  0.99381183  0.24207348  1
  O  O270  1  0.12171039  0.98715002  0.75121605  1
  O  O271  1  0.63881694  0.51100622  0.25313649  1
  O  O272  1  0.63780460  0.50506709  0.73880113  1
  O  O273  1  0.63081483  0.99226338  0.23980776  1
  O  O274  1  0.64313080  0.99203146  0.75497171  1
  O  O275  1  0.36762683  0.00831625  0.24372048  1
  O  O276  1  0.37855010  0.00062332  0.76699157  1
  O  O277  1  0.37497874  0.50728485  0.25269435  1
  O  O278  1  0.35790034  0.50415473  0.74657659  1
  O  O279  1  0.86627328  -0.00617505  0.25894177  1
  O  O280  1  0.86622005  -0.00032547  0.75907050  1
  O  O281  1  0.86823359  0.51103449  0.26298593  1
  O  O282  1  0.86184999  0.50561964  0.74700465  1
  O  O283  1  0.12186285  0.37181427  0.36928805  1
  O  O284  1  0.10419687  0.38480923  0.87599973  1
  O  O285  1  0.12052019  0.86688882  0.36998706  1
  O  O286  1  0.11525629  0.87228772  0.86910740  1
  O  O287  1  0.61456653  0.36273920  0.37961059  1
  O  O288  1  0.62283170  0.37429787  0.85857334  1
  O  O289  1  0.61714501  0.87875300  0.36122476  1
  O  O290  1  0.61988243  0.87294127  0.86352916  1
  O  O291  1  0.37451454  0.13369452  0.12633203  1
  O  O292  1  0.38628355  0.13470740  0.61717350  1
  O  O293  1  0.36773716  0.63161683  0.13663866  1
  O  O294  1  0.38373723  0.62372239  0.61835647  1
  O  O295  1  0.89336613  0.12004781  0.12363483  1
  O  O296  1  0.88229812  0.13672558  0.62624374  1
  O  O297  1  0.88022662  0.63508582  0.13213317  1
  O  O298  1  0.87245214  0.63950959  0.61698456  1
  O  O299  1  0.26108250  0.25733124  0.12989686  1
  O  O300  1  0.25722696  0.25155655  0.61956578  1
  O  O301  1  0.25893248  0.75021451  0.11607762  1
  O  O302  1  0.23917795  0.75917036  0.62290969  1
  O  O303  1  0.75498335  0.24398656  0.11056078  1
  O  O304  1  0.75268473  0.25666294  0.62409862  1
  O  O305  1  0.76309969  0.75098983  0.11984503  1
  O  O306  1  0.75659752  0.76095120  0.62159478  1
  O  O307  1  0.24523298  0.24569934  0.38120414  1
  O  O308  1  0.25095864  0.23840461  0.87388913  1
  O  O309  1  0.23238344  0.73765329  0.36531536  1
  O  O310  1  0.24741776  0.74294020  0.88762579  1
  O  O311  1  0.74385802  0.24894224  0.37984064  1
  O  O312  1  0.76044976  0.23828658  0.88819460  1
  O  O313  1  0.75578976  0.74392296  0.38774108  1
  O  O314  1  0.73983022  0.75754654  0.88058999  1
  O  O315  1  0.01696660  0.12597863  0.00887867  1
  O  O316  1  0.00691626  0.12112777  0.50996299  1
  O  O317  1  0.01308596  0.63385788  0.00764945  1
  O  O318  1  0.01235791  0.61794565  0.49538005  1
  O  O319  1  0.50899324  0.11608438  0.00389115  1
  O  O320  1  0.50746797  0.11935185  0.49909849  1
  O  O321  1  0.49687448  0.61630452  0.00087466  1
  O  O322  1  0.51206546  0.63385557  0.50404016  1
  O  O323  1  0.49663480  0.36715381  0.48326693  1
  O  O324  1  0.48806132  0.37464835  0.99696032  1
  O  O325  1  0.50733972  0.88355544  0.48835179  1
  O  O326  1  0.49655932  0.88149736  0.99317353  1
  O  O327  1  0.99669694  0.38152044  0.49234173  1
  O  O328  1  0.99665808  0.37471514  0.99217838  1
  O  O329  1  0.99705794  0.87959116  0.49685800  1
  O  O330  1  0.99090372  0.86694145  0.98633373  1
  O  O331  1  0.50500607  0.48286245  0.36890640  1
  O  O332  1  0.48883868  0.50577727  0.89112339  1
  O  O333  1  0.50507427  0.99729792  0.38073340  1
  O  O334  1  0.49360263  1.00210209  0.88713850  1
  O  O335  1  0.99540795  0.49461315  0.38381611  1
  O  O336  1  0.98627513  0.49067290  0.87442216  1
  O  O337  1  0.99532478  0.99352567  0.38074662  1
  O  O338  1  0.98762435  0.99241625  0.87076752  1
  O  O339  1  0.01524268  0.00781450  0.12794230  1
  O  O340  1  -0.00432050  0.01277345  0.62236825  1
  O  O341  1  0.01000990  0.50622243  0.13276696  1
  O  O342  1  0.01229547  0.49174023  0.62192916  1
  O  O343  1  0.50640611  -0.00157900  0.11330745  1
  O  O344  1  0.49829632  0.01216679  0.60671294  1
  O  O345  1  0.49785577  0.49214158  0.10346796  1
  O  O346  1  0.50900983  0.51192488  0.62991516  1
  O  O347  1  0.24291971  0.37604317  0.23976598  1
  O  O348  1  0.24581775  0.38074400  0.74360281  1
  O  O349  1  0.24734712  0.88786537  0.24970308  1
  O  O350  1  0.23197092  0.87505182  0.75669167  1
  O  O351  1  0.74388797  0.39771114  0.26564014  1
  O  O352  1  0.75614482  0.37530867  0.74430231  1
  O  O353  1  0.73919447  0.88234543  0.25264905  1
  O  O354  1  0.74685240  0.87838218  0.74373201  1
  O  O355  1  0.25306265  0.11515413  0.25164873  1
  O  O356  1  0.23749673  0.12165257  0.77093693  1
  O  O357  1  0.25676131  0.62176179  0.25599712  1
  O  O358  1  0.24668586  0.61962144  0.75888906  1
  O  O359  1  0.73902887  0.10777539  0.24744121  1
  O  O360  1  0.75489451  0.11582644  0.75946155  1
  O  O361  1  0.75510133  0.62491711  0.26183580  1
  O  O362  1  0.75018450  0.62198790  0.74952198  1
  O  O363  1  0.36823367  0.12541052  0.36343289  1
  O  O364  1  0.35413953  0.11684968  0.89000063  1
  O  O365  1  0.36538019  0.62393874  0.36238567  1
  O  O366  1  0.35919976  0.62378423  0.87357962  1
  O  O367  1  0.87969279  0.10846685  0.38646344  1
  O  O368  1  0.86974780  0.11584701  0.87781261  1
  O  O369  1  0.86569982  0.62404106  0.37528177  1
  O  O370  1  0.88252390  0.60832257  0.87618620  1
  O  O371  1  0.12715296  0.37870195  0.13062458  1
  O  O372  1  0.13580269  0.37929954  0.62545622  1
  O  O373  1  0.12483681  0.88403124  0.12936850  1
  O  O374  1  0.11593880  0.88097690  0.64157061  1
  O  O375  1  0.63681605  0.38710517  0.12423993  1
  O  O376  1  0.62669710  0.38045280  0.62226466  1
  O  O377  1  0.62284828  0.88563670  0.13001660  1
  O  O378  1  0.63426533  0.87262511  0.63794256  1
  O  O379  1  0.12953576  0.26236905  0.25530882  1
  O  O380  1  0.10945858  0.25203798  0.74570117  1
  O  O381  1  0.11912659  0.75641333  0.25333516  1
  O  O382  1  0.11225484  0.76050650  0.75357635  1
  O  O383  1  0.61680203  0.24417955  0.25445926  1
  O  O384  1  0.63943746  0.25682963  0.73389251  1
  O  O385  1  0.61959905  0.75776550  0.23865457  1
  O  O386  1  0.61637902  0.75886202  0.75523957  1
  O  O387  1  0.38162829  0.24441438  0.24052244  1
  O  O388  1  0.36999055  0.24456415  0.73550252  1
  O  O389  1  0.38284988  0.74346086  0.24365356  1
  O  O390  1  0.38552941  0.75350576  0.75720159  1
  O  O391  1  0.87184390  0.23935210  0.26355834  1
  O  O392  1  0.88409850  0.24749406  0.74299655  1
  O  O393  1  0.87774188  0.74899221  0.24428943  1
  O  O394  1  0.88821324  0.75291328  0.74368029  1
  O  O395  1  0.36555194  0.49324179  0.48955491  1
  O  O396  1  0.38017648  0.48841176  1.00019690  1
  O  O397  1  0.38812660  0.99847375  0.49040088  1
  O  O398  1  0.38250889  0.99435121  0.99812369  1
  O  O399  1  0.87804042  0.49662457  0.49889829  1
  O  O400  1  0.86256953  0.50220907  0.98974401  1
  O  O401  1  0.88006727  0.99340510  0.49519801  1
  O  O402  1  0.87110269  0.99010378  0.99269069  1
  O  O403  1  0.12643941  -0.00416522  0.01173996  1
  O  O404  1  0.11731208  0.00633626  0.50124479  1
  O  O405  1  0.12731422  0.51003059  0.01128772  1
  O  O406  1  0.12156837  0.50651276  0.50779522  1
  O  O407  1  0.62017745  0.00058191  0.00445391  1
  O  O408  1  0.62299722  0.01387624  0.49127722  1
  O  O409  1  0.61149471  0.50114720  -0.00945847  1
  O  O410  1  0.63556468  0.51196584  0.51501095  1
  O  O411  1  0.36671119  0.36929359  0.11617698  1
  O  O412  1  0.36464945  0.36117528  0.62184444  1
  O  O413  1  0.37271555  0.86497850  0.11947716  1
  O  O414  1  0.38371333  0.87310943  0.62121550  1
  O  O415  1  0.86201053  0.36687322  0.14306801  1
  O  O416  1  0.88329476  0.36133602  0.61827267  1
  O  O417  1  0.88581937  0.86802406  0.11495477  1
  O  O418  1  0.86852337  0.86865796  0.62123853  1
  O  O419  1  0.13017250  0.13111656  0.37965718  1
  O  O420  1  0.12993693  0.12306037  0.89062346  1
  O  O421  1  0.12787660  0.63045376  0.37884864  1
  O  O422  1  0.13303540  0.62484176  0.88523142  1
  O  O423  1  0.62222165  0.13922417  0.38054642  1
  O  O424  1  0.64507968  0.11122936  0.88815910  1
  O  O425  1  0.63460420  0.62489647  0.38643624  1
  O  O426  1  0.62002043  0.64163345  0.88082866  1
