# generated using pymatgen
data_V85Zn86O256
_symmetry_space_group_name_H-M   'P 1'
_cell_length_a   16.99896051
_cell_length_b   17.00127780
_cell_length_c   17.00643478
_cell_angle_alpha   89.89183076
_cell_angle_beta   90.07864400
_cell_angle_gamma   89.88237387
_symmetry_Int_Tables_number   1
_chemical_formula_structural   V85Zn86O256
_chemical_formula_sum   'V85 Zn86 O256'
_cell_volume   4914.90475763
_cell_formula_units_Z   1
loop_
 _symmetry_equiv_pos_site_id
 _symmetry_equiv_pos_as_xyz
  1  'x, y, z'
loop_
 _atom_site_type_symbol
 _atom_site_label
 _atom_site_symmetry_multiplicity
 _atom_site_fract_x
 _atom_site_fract_y
 _atom_site_fract_z
 _atom_site_occupancy
  V  V0  1  0.12179130  -0.00190806  0.12133153  1
  V  V1  1  0.37486782  0.62516303  0.25966399  1
  V  V2  1  0.87516164  0.88989808  0.49438989  1
  V  V3  1  0.37920153  0.75041541  0.62568011  1
  V  V4  1  0.49551300  0.49832151  0.49625598  1
  V  V5  1  -0.00550715  0.62240515  0.63386757  1
  V  V6  1  0.37544895  0.01607571  0.37226167  1
  V  V7  1  0.30160328  0.31599052  0.17201663  1
  V  V8  1  0.63141608  0.62458743  0.49299323  1
  V  V9  1  0.25088896  0.50166078  0.25220042  1
  V  V10  1  0.49926421  0.25237697  0.77008689  1
  V  V11  1  -0.00227795  0.12418805  0.12061976  1
  V  V12  1  0.87256340  0.75602773  0.12159633  1
  V  V13  1  -0.00070943  0.62493647  0.12568157  1
  V  V14  1  0.75560273  0.12282010  0.37814881  1
  V  V15  1  0.37946947  0.11947775  0.76898960  1
  V  V16  1  0.00061526  0.50697244  -0.00133947  1
  V  V17  1  0.37762341  0.24770412  0.62959868  1
  V  V18  1  0.24283834  0.22993261  0.50140736  1
  V  V19  1  0.87576561  0.25157741  0.11793097  1
  V  V20  1  0.50108058  0.62510629  0.62752872  1
  V  V21  1  -0.00398312  0.88991912  0.37340154  1
  V  V22  1  0.87405848  0.74798444  0.61994779  1
  V  V23  1  0.12299290  0.87960534  0.74826349  1
  V  V24  1  0.24915575  0.87022765  0.12895180  1
  V  V25  1  0.49651673  0.37214440  0.36779736  1
  V  V26  1  0.00216338  0.37487881  0.37356878  1
  V  V27  1  0.69564593  0.31402745  0.05887990  1
  V  V28  1  0.12287101  0.12334734  -0.00331641  1
  V  V29  1  0.12430413  0.50070573  0.62487971  1
  V  V30  1  0.74936351  0.25051440  0.50200259  1
  V  V31  1  0.24552222  0.25460309  -0.00587937  1
  V  V32  1  0.87508200  0.37480791  0.50120056  1
  V  V33  1  0.25625227  -0.00382011  0.76311860  1
  V  V34  1  0.00319269  0.36895983  0.87162920  1
  V  V35  1  0.50109158  -0.00024952  0.50326730  1
  V  V36  1  0.62916835  -0.00286925  0.62819015  1
  V  V37  1  0.24885547  0.62137834  0.37897126  1
  V  V38  1  -0.00249198  0.74836228  0.25325055  1
  V  V39  1  0.00067406  0.50038660  0.49993145  1
  V  V40  1  0.62243267  0.87314663  0.24340289  1
  V  V41  1  0.62321898  0.62102411  0.00338350  1
  V  V42  1  0.38570471  0.49566448  0.87190655  1
  V  V43  1  -0.01256068  -0.01533387  -0.00427955  1
  V  V44  1  0.25216799  0.88262808  0.62625728  1
  V  V45  1  0.61105508  0.74586754  0.86443621  1
  V  V46  1  0.63959379  0.25177490  0.87942131  1
  V  V47  1  0.62336252  0.25343890  0.36969949  1
  V  V48  1  0.25029106  0.75462725  0.50088097  1
  V  V49  1  0.75837460  0.62923384  0.86979975  1
  V  V50  1  0.87568750  0.12725056  0.25111693  1
  V  V51  1  0.37032676  0.37368138  -0.01133188  1
  V  V52  1  0.56998225  0.05941779  0.16540069  1
  V  V53  1  0.38122654  0.87469617  -0.01157319  1
  V  V54  1  0.24972394  0.49863679  0.74936877  1
  V  V55  1  0.76237117  0.11143771  0.87219261  1
  V  V56  1  -0.00259122  0.75368039  0.74366336  1
  V  V57  1  0.74758109  0.76419719  -0.00830060  1
  V  V58  1  0.88343203  0.24017513  0.64084562  1
  V  V59  1  0.61385324  0.86894729  0.74799650  1
  V  V60  1  0.76067166  -0.00058655  0.25173036  1
  V  V61  1  0.00309764  0.25483529  0.25065868  1
  V  V62  1  0.87441156  0.37975410  0.00062369  1
  V  V63  1  0.86419980  0.50563836  0.37651825  1
  V  V64  1  0.62423426  0.49859215  0.62661768  1
  V  V65  1  0.28042228  0.03974817  0.22678316  1
  V  V66  1  0.12245788  0.63062725  0.50246990  1
  V  V67  1  0.50363906  0.12647867  0.63059439  1
  V  V68  1  0.50058965  0.87244987  0.37497862  1
  V  V69  1  0.37832977  0.74627275  0.12843624  1
  V  V70  1  0.74601122  0.88357643  0.11840612  1
  V  V71  1  0.01726976  0.11082802  0.63050552  1
  V  V72  1  0.24687134  0.37074990  0.62389631  1
  V  V73  1  0.12856378  0.49333281  0.12527918  1
  V  V74  1  0.12340125  0.74998139  0.87114234  1
  V  V75  1  0.63160338  0.11332379  -0.00072395  1
  V  V76  1  0.37687082  0.62758209  0.74977853  1
  V  V77  1  0.12490573  0.87329185  0.24859751  1
  V  V78  1  0.85997664  0.62745021  0.25705407  1
  V  V79  1  0.12371983  0.75328619  0.37562453  1
  V  V80  1  0.75808951  0.50468063  0.74867228  1
  V  V81  1  0.62050245  0.37644288  0.75717486  1
  V  V82  1  0.37378775  0.37720046  0.50049125  1
  V  V83  1  0.25026026  0.74258440  -0.00045156  1
  V  V84  1  0.75013425  0.37155505  0.62816205  1
  Zn  Zn85  1  0.50139326  0.74584571  0.25230499  1
  Zn  Zn86  1  0.12403000  0.37294310  0.25031601  1
  Zn  Zn87  1  0.04385407  0.04760618  0.47270495  1
  Zn  Zn88  1  0.25239123  0.12110727  0.87865988  1
  Zn  Zn89  1  0.49338749  -0.00241071  -0.01573003  1
  Zn  Zn90  1  0.11731965  0.36937962  0.74594716  1
  Zn  Zn91  1  0.37720674  0.87584640  0.49792221  1
  Zn  Zn92  1  0.62511285  0.37815997  0.24197416  1
  Zn  Zn93  1  0.50805726  0.48929642  0.00416677  1
  Zn  Zn94  1  0.62707302  0.12598241  0.50391902  1
  Zn  Zn95  1  0.51340477  0.61517178  0.13633302  1
  Zn  Zn96  1  0.72640284  0.49617699  0.21547366  1
  Zn  Zn97  1  0.11892229  0.23878915  0.86099548  1
  Zn  Zn98  1  0.75009127  0.87378912  0.62092099  1
  Zn  Zn99  1  0.12164591  0.23017461  0.38064177  1
  Zn  Zn100  1  -0.08793274  0.93433695  0.84915281  1
  Zn  Zn101  1  0.88301063  0.51074348  0.86889516  1
  Zn  Zn102  1  0.62996460  0.74402930  0.36970588  1
  Zn  Zn103  1  0.25143410  0.62173288  0.87581157  1
  Zn  Zn104  1  0.76408942  -0.00272651  0.74733237  1
  Zn  Zn105  1  0.75516835  0.74828775  0.49138881  1
  Zn  Zn106  1  0.12662979  0.62410077  -0.00094712  1
  Zn  Zn107  1  0.42202060  0.17049728  0.18322826  1
  Zn  Zn108  1  0.18591747  0.18212023  0.69101636  1
  Zn  Zn109  1  0.18604578  0.68281652  0.18634811  1
  Zn  Zn110  1  0.18837263  0.68878755  0.68611544  1
  Zn  Zn111  1  0.69279253  0.19501297  0.19562025  1
  Zn  Zn112  1  0.69072227  0.18577811  0.69411575  1
  Zn  Zn113  1  0.68901554  0.69348005  0.18488379  1
  Zn  Zn114  1  0.68973838  0.68786782  0.68310102  1
  Zn  Zn115  1  0.31130257  0.30397527  0.33224650  1
  Zn  Zn116  1  0.30544756  0.30822901  0.81360563  1
  Zn  Zn117  1  0.31394051  0.81574587  0.31453055  1
  Zn  Zn118  1  0.31179123  0.80692443  0.81203144  1
  Zn  Zn119  1  0.81169196  0.32004958  0.30770757  1
  Zn  Zn120  1  0.81380148  0.31832835  0.81591027  1
  Zn  Zn121  1  0.80846301  0.81224815  0.31675355  1
  Zn  Zn122  1  0.80135548  0.81365643  0.80039879  1
  Zn  Zn123  1  0.18481755  0.43632269  0.43780001  1
  Zn  Zn124  1  0.18660638  0.43883613  0.93585010  1
  Zn  Zn125  1  0.19773463  1.04784708  0.43266790  1
  Zn  Zn126  1  0.18575370  0.92978129  0.93853572  1
  Zn  Zn127  1  0.68463910  0.43652273  0.43586618  1
  Zn  Zn128  1  0.68839855  0.44607467  0.93021726  1
  Zn  Zn129  1  0.68770301  0.93661593  0.43666647  1
  Zn  Zn130  1  0.65783737  0.94647784  0.92158573  1
  Zn  Zn131  1  0.30953322  0.05740554  0.05325037  1
  Zn  Zn132  1  0.32273529  0.05890836  0.57194636  1
  Zn  Zn133  1  0.33331801  0.55049316  0.07479554  1
  Zn  Zn134  1  0.31219376  0.56212150  0.56313232  1
  Zn  Zn135  1  0.80976495  0.06439520  0.05720434  1
  Zn  Zn136  1  0.81607762  0.06566801  0.56594279  1
  Zn  Zn137  1  0.81367787  0.57395510  0.05508998  1
  Zn  Zn138  1  0.81325523  0.56089660  0.56424881  1
  Zn  Zn139  1  0.43902871  0.44683011  0.18898812  1
  Zn  Zn140  1  0.43794511  0.43553328  0.68691483  1
  Zn  Zn141  1  0.43542264  0.93270143  0.18514178  1
  Zn  Zn142  1  0.43729818  0.93828005  0.69160325  1
  Zn  Zn143  1  0.90064843  0.45768309  0.17164636  1
  Zn  Zn144  1  0.93508086  0.43357251  0.68668638  1
  Zn  Zn145  1  0.93554254  0.93572563  0.18379953  1
  Zn  Zn146  1  0.94070787  0.93935670  0.67383461  1
  Zn  Zn147  1  0.07141988  0.06774856  0.29814775  1
  Zn  Zn148  1  0.05784829  0.05760754  0.81065144  1
  Zn  Zn149  1  0.06065876  0.56158491  0.31267853  1
  Zn  Zn150  1  0.06634752  0.56283459  0.81392138  1
  Zn  Zn151  1  0.56732385  0.06250163  0.32935103  1
  Zn  Zn152  1  0.56700666  0.06296253  0.81630594  1
  Zn  Zn153  1  0.56277183  0.55302772  0.31265761  1
  Zn  Zn154  1  0.56402038  0.56460231  0.81302635  1
  Zn  Zn155  1  0.43931027  0.19076812  0.44470332  1
  Zn  Zn156  1  0.44610882  0.19206926  0.97470520  1
  Zn  Zn157  1  0.44049976  0.68848643  0.43826144  1
  Zn  Zn158  1  0.43598575  0.68470546  0.93862216  1
  Zn  Zn159  1  0.93397091  0.19029538  0.44195014  1
  Zn  Zn160  1  0.93639197  0.18661251  0.93783766  1
  Zn  Zn161  1  0.93800845  0.68914519  0.43907809  1
  Zn  Zn162  1  0.91558286  0.73809011  0.91418831  1
  Zn  Zn163  1  0.06168288  0.31304161  0.06022421  1
  Zn  Zn164  1  0.06124138  0.30759531  0.56529506  1
  Zn  Zn165  1  0.06282586  0.80820910  0.06074154  1
  Zn  Zn166  1  0.09345214  0.88297290  0.53346678  1
  Zn  Zn167  1  0.52397741  0.30442864  0.08023718  1
  Zn  Zn168  1  0.56305605  0.31150186  0.56545661  1
  Zn  Zn169  1  0.56165120  0.80519375  0.06202927  1
  Zn  Zn170  1  0.56199069  0.81026591  0.56190908  1
  O  O171  1  0.11501938  0.11033326  0.11039657  1
  O  O172  1  0.11626025  0.12561533  0.62060371  1
  O  O173  1  0.11501850  0.61523673  0.12429355  1
  O  O174  1  0.11871663  0.61985010  0.61999667  1
  O  O175  1  0.62988983  0.13090273  0.11715695  1
  O  O176  1  0.61613791  0.11905125  0.62917220  1
  O  O177  1  0.62806908  0.63116321  0.10803025  1
  O  O178  1  0.61602787  0.61867321  0.61868363  1
  O  O179  1  0.38146311  0.36834816  0.39268772  1
  O  O180  1  0.36941058  0.38342448  0.87669502  1
  O  O181  1  0.38954872  0.87933805  0.37624353  1
  O  O182  1  0.37374152  0.86198746  0.89082118  1
  O  O183  1  0.88429751  0.38291332  0.38291438  1
  O  O184  1  0.88475215  0.37740280  0.88570527  1
  O  O185  1  0.88245023  0.87234846  0.38493279  1
  O  O186  1  0.86938161  0.83968033  0.88517056  1
  O  O187  1  0.27276227  0.00239113  0.35878852  1
  O  O188  1  0.24874703  -0.00245946  0.86643713  1
  O  O189  1  0.24082810  0.50954062  0.36749054  1
  O  O190  1  0.25227730  0.50009815  0.85876055  1
  O  O191  1  0.74023401  0.01167595  0.36318506  1
  O  O192  1  0.74814706  0.00825301  0.87530183  1
  O  O193  1  0.76464897  0.49897435  0.38352772  1
  O  O194  1  0.75564043  0.51145405  0.86541244  1
  O  O195  1  0.23986950  0.50641748  0.13718496  1
  O  O196  1  0.24665723  0.49235737  0.63202411  1
  O  O197  1  0.23913172  0.98862358  0.12873526  1
  O  O198  1  0.26148344  0.98591891  0.63688601  1
  O  O199  1  0.79683366  0.49586571  0.13017285  1
  O  O200  1  0.74386044  0.49407889  0.63183252  1
  O  O201  1  0.75781637  0.98808159  0.13154107  1
  O  O202  1  0.74068863  1.00074188  0.62506511  1
  O  O203  1  -0.00579118  0.36866978  0.26096050  1
  O  O204  1  -0.00222280  0.38314888  0.76807526  1
  O  O205  1  -0.00040941  0.86388132  0.25307402  1
  O  O206  1  0.01287000  0.86530690  0.73897365  1
  O  O207  1  0.49219881  0.37925737  0.26497697  1
  O  O208  1  0.50931934  0.36468106  0.74609394  1
  O  O209  1  0.50809861  0.87383831  0.25447623  1
  O  O210  1  0.51336813  0.87166170  0.74122752  1
  O  O211  1  0.51503178  0.11298896  0.23367976  1
  O  O212  1  0.49806018  0.13138236  0.75033496  1
  O  O213  1  0.48827908  0.62399297  0.25291782  1
  O  O214  1  0.49247676  0.61561916  0.73533281  1
  O  O215  1  0.99189808  0.13257046  0.24073586  1
  O  O216  1  1.00449840  0.11879511  0.73210446  1
  O  O217  1  0.99733068  0.63739013  0.24637403  1
  O  O218  1  1.00544656  0.62741134  0.73781130  1
  O  O219  1  0.35499066  0.25910400  -0.01349164  1
  O  O220  1  0.36331717  0.25391144  0.50930432  1
  O  O221  1  0.36894605  0.75206436  0.00890273  1
  O  O222  1  0.36810344  0.74866984  0.50791541  1
  O  O223  1  0.88030776  0.25803983  0.01131015  1
  O  O224  1  0.86125864  0.25737028  0.50728794  1
  O  O225  1  0.85833245  0.74159299  0.01310979  1
  O  O226  1  0.87627922  0.75487279  0.50841951  1
  O  O227  1  0.14156372  0.25145632  0.50407047  1
  O  O228  1  0.12950696  0.23951115  0.99903720  1
  O  O229  1  0.13491435  0.75265277  0.49331972  1
  O  O230  1  0.13148910  0.74761093  0.99068901  1
  O  O231  1  0.63721120  0.25030839  0.49781903  1
  O  O232  1  0.63404857  0.24933097  0.99569687  1
  O  O233  1  0.62315344  0.73147293  0.50194752  1
  O  O234  1  0.63001477  0.74223164  0.98794561  1
  O  O235  1  0.46856735  0.21314327  0.09175174  1
  O  O236  1  0.49840990  0.24156851  0.63558863  1
  O  O237  1  0.48992119  0.74007797  0.12865199  1
  O  O238  1  0.48712050  0.73923416  0.61798554  1
  O  O239  1  0.99399061  0.24518462  0.13087246  1
  O  O240  1  0.98592352  0.24725076  0.62541907  1
  O  O241  1  0.99177504  0.74705512  0.13091931  1
  O  O242  1  0.99582876  0.73715394  0.63399642  1
  O  O243  1  -0.00315617  0.25789203  0.37037296  1
  O  O244  1  0.00164460  0.26555038  0.88246517  1
  O  O245  1  0.00442420  0.75334230  0.36612712  1
  O  O246  1  0.01094044  0.74005791  0.85350425  1
  O  O247  1  0.51027203  0.25981148  0.38606401  1
  O  O248  1  0.51251996  0.24485360  0.87070874  1
  O  O249  1  0.50711927  0.75931847  0.37458532  1
  O  O250  1  0.51282374  0.74002935  0.87274130  1
  O  O251  1  0.25445904  0.12750518  0.50684761  1
  O  O252  1  0.24095581  0.13122902  0.99844748  1
  O  O253  1  0.24412319  0.63406934  0.49895431  1
  O  O254  1  0.25261013  0.63694504  1.00320430  1
  O  O255  1  0.75060162  0.13256794  0.49373405  1
  O  O256  1  0.74378883  0.12675676  0.98729562  1
  O  O257  1  0.73269981  0.61985206  0.50586286  1
  O  O258  1  0.73932944  0.63406971  0.98981696  1
  O  O259  1  0.25335000  0.36565026  -0.00572091  1
  O  O260  1  0.25643376  0.37462788  0.51058802  1
  O  O261  1  0.25779135  0.86319765  0.00953202  1
  O  O262  1  0.25765635  0.86141704  0.51184173  1
  O  O263  1  0.75627668  0.37652007  -0.00308864  1
  O  O264  1  0.75286118  0.36887172  0.50736336  1
  O  O265  1  0.73417759  0.86761981  0.00488585  1
  O  O266  1  0.76324648  0.87464709  0.49847619  1
  O  O267  1  0.13363589  0.49674399  0.24530519  1
  O  O268  1  0.13399596  0.49526251  0.74253218  1
  O  O269  1  0.11645456  0.98790359  0.23049699  1
  O  O270  1  0.13522536  0.98436146  0.75614190  1
  O  O271  1  0.61552990  0.49482648  0.23527567  1
  O  O272  1  0.62946149  0.49219241  0.74695520  1
  O  O273  1  0.62638840  1.00156706  0.23629134  1
  O  O274  1  0.62312250  0.99181279  0.73576839  1
  O  O275  1  0.38159869  -0.00441352  0.26549967  1
  O  O276  1  0.37065429  0.00740108  0.75358626  1
  O  O277  1  0.35924474  0.51000805  0.24990823  1
  O  O278  1  0.37018027  0.50625172  0.75292792  1
  O  O279  1  0.86491165  0.00589084  0.24729229  1
  O  O280  1  0.87600652  -0.02142430  0.75428098  1
  O  O281  1  0.88845563  0.51797498  0.26707756  1
  O  O282  1  0.86192570  0.49740110  0.74988182  1
  O  O283  1  0.11091237  0.37349872  0.37466769  1
  O  O284  1  0.10915087  0.37696374  0.87553087  1
  O  O285  1  0.11139335  0.86489460  0.36201892  1
  O  O286  1  0.13126452  0.85839055  0.86463259  1
  O  O287  1  0.61210006  0.36833301  0.37950034  1
  O  O288  1  0.63024977  0.36928842  0.86506226  1
  O  O289  1  0.61389126  0.88178638  0.36190105  1
  O  O290  1  0.63074245  0.85072970  0.86200298  1
  O  O291  1  0.34548019  0.09122469  0.15490616  1
  O  O292  1  0.38884427  0.12886303  0.63790584  1
  O  O293  1  0.36095216  0.64036537  0.14277811  1
  O  O294  1  0.38166969  0.62907223  0.63028911  1
  O  O295  1  0.87717927  0.13385296  0.12858872  1
  O  O296  1  0.87389201  0.13868835  0.63094829  1
  O  O297  1  0.88190992  0.64003537  0.13603567  1
  O  O298  1  0.88524991  0.63187684  0.61859942  1
  O  O299  1  0.24306647  0.26075950  0.11448489  1
  O  O300  1  0.25613871  0.25406941  0.61755703  1
  O  O301  1  0.25184655  0.75491130  0.11899683  1
  O  O302  1  0.26213508  0.75250623  0.61947920  1
  O  O303  1  0.75875859  0.25420524  0.12241666  1
  O  O304  1  0.75423120  0.25277737  0.62072848  1
  O  O305  1  0.75437686  0.76284069  0.11761654  1
  O  O306  1  0.76066137  0.74927561  0.61652381  1
  O  O307  1  0.24258626  0.24495991  0.39657481  1
  O  O308  1  0.23969123  0.24303514  0.88187411  1
  O  O309  1  0.24524769  0.74659313  0.38370133  1
  O  O310  1  0.24395130  0.74470941  0.88302725  1
  O  O311  1  0.74401203  0.24651334  0.38430429  1
  O  O312  1  0.74184341  0.24558431  0.86921856  1
  O  O313  1  0.74191851  0.75026287  0.37878455  1
  O  O314  1  0.73879871  0.74214802  0.87827405  1
  O  O315  1  0.00470933  0.11695228  0.00428267  1
  O  O316  1  -0.01350237  0.12942125  0.52031213  1
  O  O317  1  0.00139521  0.61312283  0.00564358  1
  O  O318  1  0.00668853  0.62053937  0.50935735  1
  O  O319  1  0.52581679  0.11280869  -0.01398801  1
  O  O320  1  0.50320970  0.12090672  0.51396479  1
  O  O321  1  0.51813550  0.62695556  -0.00238487  1
  O  O322  1  0.50323900  0.61563878  0.50913756  1
  O  O323  1  0.49198852  0.38023498  0.50035399  1
  O  O324  1  0.47629982  0.37615218  1.00241774  1
  O  O325  1  0.50033427  0.88117933  0.49190706  1
  O  O326  1  0.48276640  0.86936757  1.00721327  1
  O  O327  1  0.99473751  0.37890225  0.49554526  1
  O  O328  1  0.99504694  0.38639920  0.99130200  1
  O  O329  1  0.98826054  0.87290826  0.48466241  1
  O  O330  1  0.99978966  0.88557890  1.00548982  1
  O  O331  1  0.50063404  0.48924200  0.39088688  1
  O  O332  1  0.48789699  0.50361022  0.87865227  1
  O  O333  1  0.49527802  0.99437034  0.38395093  1
  O  O334  1  0.55023320  0.98139729  0.88828061  1
  O  O335  1  0.99681077  0.49403877  0.38447664  1
  O  O336  1  1.00028185  0.49639506  0.88267887  1
  O  O337  1  1.00091120  0.99068654  0.36579171  1
  O  O338  1  1.00082044  0.99482607  0.89012640  1
  O  O339  1  0.00363010  0.00216230  0.11554006  1
  O  O340  1  0.00825609  0.00885134  0.61567839  1
  O  O341  1  0.00113559  0.50773514  0.11813825  1
  O  O342  1  0.00266363  0.50428129  0.62037033  1
  O  O343  1  0.50343222  0.00059594  0.11606197  1
  O  O344  1  0.50400558  0.00778633  0.62085225  1
  O  O345  1  0.46002716  0.51857495  0.10592862  1
  O  O346  1  0.50506444  0.50392102  0.61675462  1
  O  O347  1  0.25200471  0.37459706  0.24835135  1
  O  O348  1  0.25502802  0.38140248  0.73496636  1
  O  O349  1  0.24542928  0.87040568  0.23722725  1
  O  O350  1  0.24925686  0.87878445  0.74513614  1
  O  O351  1  0.73962045  0.38539369  0.25681557  1
  O  O352  1  0.74191898  0.38377467  0.74677216  1
  O  O353  1  0.74084999  0.88561778  0.24561154  1
  O  O354  1  0.73272702  0.87723990  0.73867635  1
  O  O355  1  0.22644738  0.11287293  0.25747789  1
  O  O356  1  0.26196495  0.11301784  0.75266899  1
  O  O357  1  0.25155635  0.61839956  0.25980930  1
  O  O358  1  0.25958082  0.61423186  0.74527515  1
  O  O359  1  0.75535734  0.11896753  0.25675188  1
  O  O360  1  0.74473822  0.11746314  0.76726696  1
  O  O361  1  0.75870045  0.62166697  0.24475009  1
  O  O362  1  0.74223055  0.61527354  0.75656966  1
  O  O363  1  0.38761875  0.11513823  0.37407587  1
  O  O364  1  0.37865690  0.12942441  0.86952215  1
  O  O365  1  0.36672017  0.63216209  0.36644818  1
  O  O366  1  0.37255443  0.61778344  0.86534425  1
  O  O367  1  0.86168132  0.13333808  0.36837082  1
  O  O368  1  0.86067755  0.12755614  0.87879914  1
  O  O369  1  0.87895552  0.61913727  0.36879843  1
  O  O370  1  0.86085882  0.63347424  0.87643156  1
  O  O371  1  0.11506042  0.39012771  0.12907051  1
  O  O372  1  0.13234119  0.38205691  0.62314430  1
  O  O373  1  0.13219159  0.87607868  0.12623038  1
  O  O374  1  0.14374538  0.86437941  0.63540573  1
  O  O375  1  0.61828667  0.35203974  0.11984001  1
  O  O376  1  0.63071146  0.37854008  0.63567239  1
  O  O377  1  0.63149126  0.86957254  0.13446606  1
  O  O378  1  0.62556805  0.88067174  0.62597489  1
  O  O379  1  0.10585540  0.25282709  0.25732956  1
  O  O380  1  0.13366410  0.25842717  0.75078101  1
  O  O381  1  0.11632738  0.75317818  0.25271875  1
  O  O382  1  0.12225742  0.75590233  0.75371227  1
  O  O383  1  0.62525481  0.25457515  0.26610698  1
  O  O384  1  0.61943639  0.25708012  0.75972242  1
  O  O385  1  0.62169787  0.75936781  0.25025817  1
  O  O386  1  0.62429984  0.74974061  0.75677273  1
  O  O387  1  0.35617339  0.25437027  0.23581204  1
  O  O388  1  0.38351833  0.24373536  0.74901663  1
  O  O389  1  0.37619412  0.74430051  0.24581622  1
  O  O390  1  0.37013494  0.73482874  0.74225515  1
  O  O391  1  0.88128435  0.24821607  0.23938338  1
  O  O392  1  0.87090175  0.25802704  0.73736947  1
  O  O393  1  0.87974327  0.74512500  0.24639258  1
  O  O394  1  0.88439878  0.75828008  0.73045769  1
  O  O395  1  0.38272292  0.48910502  0.50854652  1
  O  O396  1  0.35869675  0.48973139  0.98138477  1
  O  O397  1  0.38160789  0.99877429  0.48940977  1
  O  O398  1  0.37524927  0.98097122  0.99800366  1
  O  O399  1  0.88245151  0.49540070  0.49648631  1
  O  O400  1  0.88479613  0.49551162  0.99246513  1
  O  O401  1  0.87315044  0.98873687  0.50031831  1
  O  O402  1  0.88878139  0.99935320  1.00478102  1
  O  O403  1  0.11927226  -0.00024435  0.00656577  1
  O  O404  1  0.13056015  -0.02028980  0.49174635  1
  O  O405  1  0.12020334  0.50275401  0.00765669  1
  O  O406  1  0.11937789  0.50728168  0.50694829  1
  O  O407  1  0.64119675  0.01509739  0.01771387  1
  O  O408  1  0.61914522  0.00227418  0.51044691  1
  O  O409  1  0.62380386  0.51452063  -0.00453003  1
  O  O410  1  0.61722156  0.50673276  0.50683159  1
  O  O411  1  0.36676032  0.37401704  0.11907373  1
  O  O412  1  0.36976191  0.36683603  0.61829987  1
  O  O413  1  0.36647139  0.86241305  0.12223832  1
  O  O414  1  0.37159520  0.86472975  0.62550074  1
  O  O415  1  0.88691859  0.36498626  0.10715522  1
  O  O416  1  0.86855753  0.36731408  0.61883507  1
  O  O417  1  0.86347615  0.86321041  0.13042255  1
  O  O418  1  0.87698533  0.86694417  0.60596498  1
  O  O419  1  0.11184003  0.11539771  0.39033370  1
  O  O420  1  0.12254350  0.12012636  0.88716029  1
  O  O421  1  0.12784991  0.63382741  0.38266782  1
  O  O422  1  0.13212366  0.63494548  0.87596508  1
  O  O423  1  0.63599555  0.13570613  0.38125477  1
  O  O424  1  0.63800281  0.13432020  0.88496041  1
  O  O425  1  0.61573181  0.62091158  0.39119900  1
  O  O426  1  0.63251174  0.63191705  0.87931520  1
