# generated using pymatgen
data_V85Zn86O256
_symmetry_space_group_name_H-M   'P 1'
_cell_length_a   16.93860935
_cell_length_b   16.95072488
_cell_length_c   16.93338402
_cell_angle_alpha   90.05853686
_cell_angle_beta   89.97847215
_cell_angle_gamma   90.02261075
_symmetry_Int_Tables_number   1
_chemical_formula_structural   V85Zn86O256
_chemical_formula_sum   'V85 Zn86 O256'
_cell_volume   4861.93886415
_cell_formula_units_Z   1
loop_
 _symmetry_equiv_pos_site_id
 _symmetry_equiv_pos_as_xyz
  1  'x, y, z'
loop_
 _atom_site_type_symbol
 _atom_site_label
 _atom_site_symmetry_multiplicity
 _atom_site_fract_x
 _atom_site_fract_y
 _atom_site_fract_z
 _atom_site_occupancy
  V  V0  1  0.74722642  0.62603389  0.87119653  1
  V  V1  1  0.87429721  0.49818859  0.87485984  1
  V  V2  1  0.87487190  0.12344037  0.74755283  1
  V  V3  1  0.37348967  0.12797209  0.25884181  1
  V  V4  1  0.37631565  0.62408651  0.75195731  1
  V  V5  1  0.62334232  0.87969057  0.74672776  1
  V  V6  1  0.75167001  0.50407219  0.26186706  1
  V  V7  1  0.50382514  0.00345873  -0.00007506  1
  V  V8  1  0.37583187  0.37753527  -0.01435875  1
  V  V9  1  0.49526093  0.50369987  -0.00281198  1
  V  V10  1  0.62282791  0.50123418  0.12598499  1
  V  V11  1  0.51601662  0.24961563  0.75350393  1
  V  V12  1  0.24380200  0.87492914  0.12829051  1
  V  V13  1  0.75168429  0.25068008  0.49424240  1
  V  V14  1  0.61907658  0.62751440  0.00650647  1
  V  V15  1  0.12046265  0.37592303  0.25266898  1
  V  V16  1  0.74646961  0.13677649  0.87798832  1
  V  V17  1  0.49835663  0.75090396  0.74738062  1
  V  V18  1  0.37489406  0.87748973  -0.00112034  1
  V  V19  1  0.38193248  0.61770929  0.24764685  1
  V  V20  1  0.74916853  0.88341017  0.13171515  1
  V  V21  1  0.10508874  0.90910732  0.28606237  1
  V  V22  1  0.87320612  0.87406774  -0.00033395  1
  V  V23  1  0.25246330  -0.00024865  0.74832332  1
  V  V24  1  0.00118645  0.25113288  0.74977939  1
  V  V25  1  0.12458853  0.74361568  0.36839725  1
  V  V26  1  0.63040146  0.49680414  0.62882595  1
  V  V27  1  0.51731364  0.37724230  0.86604342  1
  V  V28  1  0.61746634  0.25185346  0.37895970  1
  V  V29  1  0.63345089  0.11123729  0.49602511  1
  V  V30  1  0.25299502  0.25109136  0.49560633  1
  V  V31  1  -0.00267994  0.12676610  0.13113863  1
  V  V32  1  0.12922263  0.62799379  0.50135137  1
  V  V33  1  0.25281521  0.62091278  0.87390465  1
  V  V34  1  0.87642690  0.37926323  0.48746782  1
  V  V35  1  0.24393198  0.37260691  0.62241938  1
  V  V36  1  0.61788652  0.37659182  0.25635915  1
  V  V37  1  0.25030182  0.00761364  0.25177148  1
  V  V38  1  0.12152366  0.25277134  0.37560043  1
  V  V39  1  0.75403436  0.74450247  0.49026239  1
  V  V40  1  0.37550959  0.25146483  0.12537429  1
  V  V41  1  0.39835882  0.27687991  0.60952831  1
  V  V42  1  0.00009455  0.00035204  -0.00243301  1
  V  V43  1  0.62240940  0.75207439  0.87393082  1
  V  V44  1  0.87365090  0.74421567  0.12739974  1
  V  V45  1  0.12176099  0.74870745  0.87115097  1
  V  V46  1  0.82595745  0.05748343  0.31306619  1
  V  V47  1  0.87125360  0.62482463  0.26869610  1
  V  V48  1  -0.00274254  0.49725192  0.00274305  1
  V  V49  1  0.25743986  0.62331420  0.37907689  1
  V  V50  1  0.50836655  0.11360175  0.62468180  1
  V  V51  1  0.24937042  0.37775122  0.12410451  1
  V  V52  1  0.24992958  0.74991934  -0.00086226  1
  V  V53  1  0.25637585  0.49669338  0.75177737  1
  V  V54  1  0.12564585  0.12716440  0.49656629  1
  V  V55  1  0.12445523  0.62286171  0.00243286  1
  V  V56  1  0.37232922  0.75165546  0.60867364  1
  V  V57  1  0.74726720  0.75267725  0.00092894  1
  V  V58  1  0.38085917  0.74572126  0.12737494  1
  V  V59  1  0.62104665  0.88238424  0.25643061  1
  V  V60  1  0.88855676  0.88456841  0.48834064  1
  V  V61  1  0.62811917  0.62079638  0.49133867  1
  V  V62  1  0.25203602  0.87202243  0.60902211  1
  V  V63  1  0.12746763  -0.00008336  0.11891449  1
  V  V64  1  0.74838064  0.87460459  0.62098414  1
  V  V65  1  0.25110215  0.25103910  -0.00476986  1
  V  V66  1  0.11872811  0.50106501  0.62712564  1
  V  V67  1  -0.00028974  0.87101986  0.87076190  1
  V  V68  1  -0.00257475  0.12329673  0.61939399  1
  V  V69  1  0.50344817  0.62271153  0.61806159  1
  V  V70  1  0.12014379  0.00048813  0.62279614  1
  V  V71  1  0.38680881  0.48738858  0.39255753  1
  V  V72  1  0.37190992  -0.00781620  0.38263133  1
  V  V73  1  0.12536766  0.12766712  -0.00352479  1
  V  V74  1  -0.00272155  0.49829675  0.48297109  1
  V  V75  1  0.87286664  -0.00130059  0.87333693  1
  V  V76  1  0.12234274  0.86953184  0.74687982  1
  V  V77  1  0.74657819  0.00111061  0.74508034  1
  V  V78  1  0.86680581  0.24941038  0.11918558  1
  V  V79  1  0.88169393  0.75128841  0.62750566  1
  V  V80  1  0.88536155  0.63034600  0.75271588  1
  V  V81  1  0.62871683  0.14143991  -0.00052269  1
  V  V82  1  0.50294511  0.12864239  0.12968130  1
  V  V83  1  -0.00999566  0.25354567  0.25414141  1
  V  V84  1  0.37736538  0.13065857  0.74417123  1
  Zn  Zn85  1  0.25272332  0.49585948  0.25518065  1
  Zn  Zn86  1  0.50177450  -0.00939695  0.50490201  1
  Zn  Zn87  1  0.49562520  0.25633822  0.25964749  1
  Zn  Zn88  1  0.25206758  0.12714481  0.87095787  1
  Zn  Zn89  1  0.63095135  0.00624269  0.13029386  1
  Zn  Zn90  1  -0.00238607  0.62448689  0.12831560  1
  Zn  Zn91  1  0.87491719  0.25386532  0.62125789  1
  Zn  Zn92  1  0.12231284  0.49971855  0.12792556  1
  Zn  Zn93  1  -0.00159077  0.37231386  0.87635202  1
  Zn  Zn94  1  0.00160024  0.62775959  0.62798582  1
  Zn  Zn95  1  0.37661896  0.00442319  0.87321603  1
  Zn  Zn96  1  0.86660020  0.36914766  -0.00329462  1
  Zn  Zn97  1  0.48768963  0.86421182  0.38838618  1
  Zn  Zn98  1  0.12028956  0.37752825  0.75476448  1
  Zn  Zn99  1  0.49844626  0.87774347  0.87373121  1
  Zn  Zn100  1  0.00028308  0.75049303  0.25114272  1
  Zn  Zn101  1  0.74596491  0.37292464  0.12252131  1
  Zn  Zn102  1  0.62439684  0.74636833  0.36992371  1
  Zn  Zn103  1  0.50182508  0.74815797  0.24950695  1
  Zn  Zn104  1  0.12335353  0.25272814  0.87384214  1
  Zn  Zn105  1  0.75274272  0.37205587  0.62726101  1
  Zn  Zn106  1  0.74654977  0.49133315  0.75331153  1
  Zn  Zn107  1  0.18508878  0.18944825  0.18690702  1
  Zn  Zn108  1  0.18759907  0.18911364  0.68394072  1
  Zn  Zn109  1  0.19594842  0.68248886  0.18934515  1
  Zn  Zn110  1  0.19082307  0.68881023  0.68470554  1
  Zn  Zn111  1  0.69109488  0.18144567  0.20136465  1
  Zn  Zn112  1  0.69005604  0.18562547  0.67979101  1
  Zn  Zn113  1  0.68807375  0.68981636  0.19007500  1
  Zn  Zn114  1  0.68996687  0.68862944  0.68440649  1
  Zn  Zn115  1  0.30967089  0.31395533  0.31531078  1
  Zn  Zn116  1  0.31540788  0.31129115  0.80435640  1
  Zn  Zn117  1  0.30265994  0.81128980  0.31080621  1
  Zn  Zn118  1  0.31066799  0.81151265  0.80907564  1
  Zn  Zn119  1  0.80451412  0.31441649  0.31205892  1
  Zn  Zn120  1  0.81363720  0.31387849  0.80741630  1
  Zn  Zn121  1  0.81345714  0.81942827  0.31112579  1
  Zn  Zn122  1  0.81066608  0.81175219  0.81049848  1
  Zn  Zn123  1  0.18978316  0.43850943  0.43821360  1
  Zn  Zn124  1  0.18483294  0.43742169  0.93376583  1
  Zn  Zn125  1  0.17691070  0.94763306  0.43384502  1
  Zn  Zn126  1  0.19006299  0.93805224  0.93312788  1
  Zn  Zn127  1  0.68473949  0.43575887  0.44076250  1
  Zn  Zn128  1  0.69022853  0.43725913  0.94221853  1
  Zn  Zn129  1  0.69924411  0.93521283  0.43103689  1
  Zn  Zn130  1  0.68574186  0.94194309  0.93638862  1
  Zn  Zn131  1  0.31619137  0.06485220  0.06441188  1
  Zn  Zn132  1  0.30929674  0.06811126  0.56534905  1
  Zn  Zn133  1  0.31356595  0.56093300  0.06264425  1
  Zn  Zn134  1  0.31223133  0.56070720  0.56476134  1
  Zn  Zn135  1  0.81386698  0.06664867  0.06321209  1
  Zn  Zn136  1  0.81129854  0.06007785  0.55907330  1
  Zn  Zn137  1  0.80629717  0.56090458  0.06208902  1
  Zn  Zn138  1  0.81521413  0.56332730  0.56178715  1
  Zn  Zn139  1  0.43875892  0.43954632  0.18410415  1
  Zn  Zn140  1  0.44599472  0.43306821  0.67098527  1
  Zn  Zn141  1  0.43810128  0.93919501  0.18779811  1
  Zn  Zn142  1  0.43376812  0.93443358  0.68361295  1
  Zn  Zn143  1  0.93414321  0.43730640  0.18900400  1
  Zn  Zn144  1  0.93058331  0.43564957  0.68587242  1
  Zn  Zn145  1  0.93961818  0.93504891  0.18362816  1
  Zn  Zn146  1  0.93724776  0.93613235  0.68293934  1
  Zn  Zn147  1  0.02200402  0.07393515  0.33610228  1
  Zn  Zn148  1  0.06271448  0.06251906  0.80998020  1
  Zn  Zn149  1  0.06303478  0.56541536  0.30792719  1
  Zn  Zn150  1  0.06344071  0.56018198  0.81494291  1
  Zn  Zn151  1  0.55935493  0.06046800  0.31772195  1
  Zn  Zn152  1  0.56415765  0.06355829  0.81637825  1
  Zn  Zn153  1  0.55778683  0.56041546  0.31478842  1
  Zn  Zn154  1  0.56037439  0.56058911  0.81222067  1
  Zn  Zn155  1  0.44132908  0.18105168  0.44053219  1
  Zn  Zn156  1  0.44063424  0.19052655  0.93358190  1
  Zn  Zn157  1  0.44221038  0.68250877  0.43268358  1
  Zn  Zn158  1  0.43676243  0.68961901  0.93498522  1
  Zn  Zn159  1  0.93534502  0.18798652  0.43557426  1
  Zn  Zn160  1  0.93555733  0.18551316  0.93637327  1
  Zn  Zn161  1  0.94333328  0.69067253  0.44249376  1
  Zn  Zn162  1  0.93820604  0.68692405  0.93912910  1
  Zn  Zn163  1  0.05986984  0.31374528  0.06364462  1
  Zn  Zn164  1  0.05830386  0.31521614  0.56229059  1
  Zn  Zn165  1  0.05966587  0.80953400  0.06141716  1
  Zn  Zn166  1  0.06454839  0.80970497  0.55908819  1
  Zn  Zn167  1  0.56100156  0.31797160  0.06479093  1
  Zn  Zn168  1  0.56764481  0.30816565  0.56613114  1
  Zn  Zn169  1  0.56276920  0.81700658  0.06681631  1
  Zn  Zn170  1  0.56522180  0.81085117  0.55880666  1
  O  O171  1  0.12044801  0.12230338  0.11178188  1
  O  O172  1  0.11726052  0.11796124  0.62184450  1
  O  O173  1  0.12778851  0.62407905  0.11254309  1
  O  O174  1  0.12461931  0.61979944  0.61818195  1
  O  O175  1  0.61987110  0.12559621  0.12319987  1
  O  O176  1  0.62068002  0.12320474  0.60887130  1
  O  O177  1  0.62675145  0.62300713  0.11191350  1
  O  O178  1  0.61984512  0.62262430  0.61744313  1
  O  O179  1  0.36985574  0.38901528  0.37435010  1
  O  O180  1  0.37657782  0.37263465  0.88414376  1
  O  O181  1  0.36845615  0.88833839  0.36806808  1
  O  O182  1  0.37339848  0.87536985  0.88832802  1
  O  O183  1  0.87059045  0.37310647  0.38685455  1
  O  O184  1  0.87772053  0.38634813  0.87726402  1
  O  O185  1  0.87809800  0.87161641  0.38828089  1
  O  O186  1  0.87947741  0.87893987  0.87790294  1
  O  O187  1  0.25670979  0.00056204  0.36049096  1
  O  O188  1  0.25216063  0.00375093  0.86036923  1
  O  O189  1  0.25721458  0.50866129  0.37557880  1
  O  O190  1  0.24662467  0.50906251  0.86512232  1
  O  O191  1  0.76566690  0.00818000  0.37693035  1
  O  O192  1  0.75496484  0.00308764  0.86290709  1
  O  O193  1  0.74367521  0.49873544  0.36007916  1
  O  O194  1  0.75627461  0.51073048  0.87490575  1
  O  O195  1  0.24821304  0.48568356  0.12329414  1
  O  O196  1  0.23782337  0.49413948  0.63023401  1
  O  O197  1  0.24965295  0.99276561  0.12965146  1
  O  O198  1  0.24475844  0.99428460  0.63419157  1
  O  O199  1  0.73414463  0.50310624  0.13133833  1
  O  O200  1  0.73911433  0.50669880  0.62849299  1
  O  O201  1  0.75111831  0.98673927  0.11781388  1
  O  O202  1  0.75372264  0.99123957  0.63734684  1
  O  O203  1  0.01235294  0.36775867  0.24333489  1
  O  O204  1  -0.00144661  0.36422364  0.74963434  1
  O  O205  1  0.01939344  0.87174873  0.24084258  1
  O  O206  1  0.01434569  0.88117417  0.75402202  1
  O  O207  1  0.51348122  0.37380568  0.24404422  1
  O  O208  1  0.49864451  0.36911342  0.76002911  1
  O  O209  1  0.51224239  0.87357117  0.24788754  1
  O  O210  1  0.50783262  0.87072896  0.74858467  1
  O  O211  1  0.49318402  0.12815319  0.24418385  1
  O  O212  1  0.49684611  0.12957953  0.74735711  1
  O  O213  1  0.48647799  0.62646463  0.24977337  1
  O  O214  1  0.49292087  0.63063317  0.74499013  1
  O  O215  1  1.01050531  0.13629626  0.23582194  1
  O  O216  1  0.99488662  0.12853027  0.74082314  1
  O  O217  1  0.98629444  0.62511603  0.24652206  1
  O  O218  1  0.98871320  0.62590259  0.75320279  1
  O  O219  1  0.36883704  0.25670849  0.00331914  1
  O  O220  1  0.36700966  0.23853453  0.50988282  1
  O  O221  1  0.36877693  0.75704152  0.00526059  1
  O  O222  1  0.37599713  0.73960990  0.51025365  1
  O  O223  1  0.87971870  0.24928507  0.01508841  1
  O  O224  1  0.86828324  0.25583603  0.49678489  1
  O  O225  1  0.86862824  0.75549614  0.00597876  1
  O  O226  1  0.86774804  0.75458823  0.50669839  1
  O  O227  1  0.12845156  0.24811486  0.49396748  1
  O  O228  1  0.13238323  0.24374122  0.99967463  1
  O  O229  1  0.12163524  0.73441479  0.49143298  1
  O  O230  1  0.13083421  0.74237092  0.99400466  1
  O  O231  1  0.63084085  0.24460449  0.49572476  1
  O  O232  1  0.62044787  0.24006860  1.00436501  1
  O  O233  1  0.64087753  0.74158069  0.50055738  1
  O  O234  1  0.62537361  0.74545101  0.99611474  1
  O  O235  1  0.49437957  0.24108633  0.12663338  1
  O  O236  1  0.50217685  0.23051059  0.63476920  1
  O  O237  1  0.48358066  0.75473006  0.12393151  1
  O  O238  1  0.49446028  0.74092730  0.63085435  1
  O  O239  1  0.99308670  0.24392610  0.13152339  1
  O  O240  1  0.99916240  0.24121530  0.63154097  1
  O  O241  1  0.98898735  0.74689080  0.12668796  1
  O  O242  1  0.98651700  0.74788329  0.62113954  1
  O  O243  1  0.00727165  0.25022559  0.36479795  1
  O  O244  1  -0.00064761  0.24862682  0.86503751  1
  O  O245  1  0.01959557  0.74475324  0.37245437  1
  O  O246  1  0.00821171  0.76002866  0.88148887  1
  O  O247  1  0.51101303  0.24871089  0.37853164  1
  O  O248  1  0.49787713  0.26608786  0.86715486  1
  O  O249  1  0.50425310  0.75191927  0.36886966  1
  O  O250  1  0.50497917  0.75489214  0.86629718  1
  O  O251  1  0.23433929  0.13659774  0.50907319  1
  O  O252  1  0.24516393  0.13366696  0.99901603  1
  O  O253  1  0.24019081  0.61720468  0.49349327  1
  O  O254  1  0.24489904  0.62773577  0.99356257  1
  O  O255  1  0.73920220  0.13067263  0.50216292  1
  O  O256  1  0.73987255  0.11839433  0.99067103  1
  O  O257  1  0.74695729  0.63822838  0.50412258  1
  O  O258  1  0.74050728  0.63184705  0.98988706  1
  O  O259  1  0.25650320  0.37044301  0.00301712  1
  O  O260  1  0.24444343  0.36604763  0.51094388  1
  O  O261  1  0.25714747  0.87227262  0.00488185  1
  O  O262  1  0.24080406  0.88396114  0.51149538  1
  O  O263  1  0.75486745  0.38041687  0.00953177  1
  O  O264  1  0.75782720  0.36880391  0.50259627  1
  O  O265  1  0.75393357  0.87061228  0.00405581  1
  O  O266  1  0.75652342  0.86474279  0.50659218  1
  O  O267  1  0.12859296  0.49069239  0.24821726  1
  O  O268  1  0.13474801  0.50376521  0.74271473  1
  O  O269  1  0.13578360  1.00526953  0.23274215  1
  O  O270  1  0.13256696  0.99566754  0.74090843  1
  O  O271  1  0.62908325  0.49785981  0.24462717  1
  O  O272  1  0.62864835  0.51087463  0.73398051  1
  O  O273  1  0.62097555  0.98830329  0.24902164  1
  O  O274  1  0.63110474  0.98785368  0.75427009  1
  O  O275  1  0.36770012  0.00727909  0.25405857  1
  O  O276  1  0.36753494  0.00698783  0.74979449  1
  O  O277  1  0.37330377  0.50526491  0.25123459  1
  O  O278  1  0.36273171  0.50858932  0.73907645  1
  O  O279  1  0.86959890  -0.00896444  0.24969932  1
  O  O280  1  0.86758881  0.00376936  0.75350510  1
  O  O281  1  0.85934061  0.50780657  0.24512913  1
  O  O282  1  0.87419712  0.51084261  0.76137658  1
  O  O283  1  0.13117027  0.36327500  0.36666063  1
  O  O284  1  0.11688050  0.37101858  0.87292263  1
  O  O285  1  0.14643264  0.84874889  0.37422515  1
  O  O286  1  0.12136427  0.87020177  0.86643331  1
  O  O287  1  0.62556591  0.36709407  0.36906259  1
  O  O288  1  0.61551394  0.37921542  0.87408886  1
  O  O289  1  0.62736463  0.87437789  0.36259691  1
  O  O290  1  0.62430399  0.86906019  0.86601265  1
  O  O291  1  0.38298721  0.13254681  0.13310555  1
  O  O292  1  0.38448933  0.12731193  0.63391531  1
  O  O293  1  0.36611471  0.63448532  0.13354202  1
  O  O294  1  0.38167939  0.63011644  0.63300240  1
  O  O295  1  0.88618409  0.13530147  0.12173555  1
  O  O296  1  0.88222672  0.12459025  0.62857009  1
  O  O297  1  0.86931862  0.63750405  0.12583918  1
  O  O298  1  0.87599753  0.63242806  0.63602204  1
  O  O299  1  0.25326786  0.25904083  0.11315877  1
  O  O300  1  0.25209376  0.25840548  0.61552425  1
  O  O301  1  0.25528468  0.75874696  0.11934441  1
  O  O302  1  0.25917585  0.76000719  0.62606042  1
  O  O303  1  0.76570004  0.24516205  0.13502111  1
  O  O304  1  0.75247020  0.24989502  0.60922348  1
  O  O305  1  0.75471863  0.75967632  0.11859857  1
  O  O306  1  0.76053627  0.75646826  0.61710582  1
  O  O307  1  0.24332185  0.25124630  0.38873098  1
  O  O308  1  0.25019527  0.24961867  0.88479833  1
  O  O309  1  0.24456193  0.73078490  0.37166623  1
  O  O310  1  0.24331249  0.74291183  0.88010803  1
  O  O311  1  0.73767639  0.25243125  0.38637747  1
  O  O312  1  0.76035672  0.23477395  0.87207566  1
  O  O313  1  0.74932727  0.75443034  0.38833899  1
  O  O314  1  0.74296493  0.74573251  0.88140580  1
  O  O315  1  0.00795566  0.12021650  0.00630675  1
  O  O316  1  0.00911178  0.13213928  0.51266879  1
  O  O317  1  0.00852877  0.61685446  0.00182210  1
  O  O318  1  0.00704920  0.61257556  0.50385460  1
  O  O319  1  0.50557849  0.12114179  0.00576371  1
  O  O320  1  0.51120439  0.11506139  0.50826501  1
  O  O321  1  0.50663908  0.61572636  -0.01018285  1
  O  O322  1  0.51342730  0.63083178  0.50951248  1
  O  O323  1  0.46481472  0.35467358  0.57196878  1
  O  O324  1  0.49455193  0.38090349  0.98846968  1
  O  O325  1  0.50097663  0.87873811  0.50125356  1
  O  O326  1  0.49164002  0.88500340  1.00222756  1
  O  O327  1  0.99575333  0.39110348  0.50098646  1
  O  O328  1  0.99424907  0.38726277  1.00073619  1
  O  O329  1  0.98730696  0.87236148  0.50490836  1
  O  O330  1  0.99338560  0.88160575  0.99397585  1
  O  O331  1  0.48628317  0.49868666  0.37791104  1
  O  O332  1  0.50165526  0.48701207  0.88068443  1
  O  O333  1  0.48095476  0.99515229  0.37594215  1
  O  O334  1  0.49659661  0.99793382  0.88517497  1
  O  O335  1  1.00419358  0.50101060  0.38506312  1
  O  O336  1  0.99096706  0.50100186  0.88368748  1
  O  O337  1  1.07031067  0.97436202  0.36381945  1
  O  O338  1  0.99484509  0.99306130  0.87843436  1
  O  O339  1  0.00572716  0.00772852  0.11778128  1
  O  O340  1  0.00963502  0.00912011  0.63065338  1
  O  O341  1  -0.00036172  0.50384663  0.11689295  1
  O  O342  1  0.01196033  0.50262604  0.62769467  1
  O  O343  1  0.49853768  0.01457548  0.11853801  1
  O  O344  1  0.49765370  0.00972087  0.62714954  1
  O  O345  1  0.51196313  0.49707527  0.11199931  1
  O  O346  1  0.51336020  0.51540887  0.62929577  1
  O  O347  1  0.23996545  0.37221890  0.23996634  1
  O  O348  1  0.24109733  0.38299892  0.74913748  1
  O  O349  1  0.23259426  0.88546590  0.24291001  1
  O  O350  1  0.23987878  0.88303413  0.74504908  1
  O  O351  1  0.73956513  0.38786560  0.24507874  1
  O  O352  1  0.75647908  0.37902088  0.74088139  1
  O  O353  1  0.73689666  0.87127691  0.24168908  1
  O  O354  1  0.74337983  0.88111204  0.74373662  1
  O  O355  1  0.25955320  0.11790756  0.23945814  1
  O  O356  1  0.25858755  0.11959974  0.74620590  1
  O  O357  1  0.26179354  0.61789401  0.25848301  1
  O  O358  1  0.25750358  0.61940749  0.75323108  1
  O  O359  1  0.76875326  0.12282977  0.26036739  1
  O  O360  1  0.75311192  0.11696907  0.75343132  1
  O  O361  1  0.75514321  0.61372602  0.24788115  1
  O  O362  1  0.75581499  0.62854634  0.76324156  1
  O  O363  1  0.37843126  0.11775577  0.36247777  1
  O  O364  1  0.37490476  0.12772590  0.85896233  1
  O  O365  1  0.37119174  0.61408870  0.36874277  1
  O  O366  1  0.36975721  0.62985591  0.86015860  1
  O  O367  1  0.91112810  0.10067382  0.36575957  1
  O  O368  1  0.86920091  0.11509728  0.86921722  1
  O  O369  1  0.87630446  0.63271895  0.36753271  1
  O  O370  1  0.86707113  0.62316929  0.87063627  1
  O  O371  1  0.13322149  0.37428126  0.13129046  1
  O  O372  1  0.12944857  0.38269689  0.62917015  1
  O  O373  1  0.13690058  0.88101011  0.11218485  1
  O  O374  1  0.12891057  0.88001778  0.62989964  1
  O  O375  1  0.62552346  0.38456513  0.13296321  1
  O  O376  1  0.62747916  0.39439233  0.61728406  1
  O  O377  1  0.63269721  0.87982083  0.13394117  1
  O  O378  1  0.64014225  0.86737573  0.63280518  1
  O  O379  1  0.11903567  0.25513270  0.25699016  1
  O  O380  1  0.11248328  0.24711673  0.75090444  1
  O  O381  1  0.12503961  0.73945448  0.26223871  1
  O  O382  1  0.12992419  0.75922982  0.75560304  1
  O  O383  1  0.62513024  0.25782035  0.26105647  1
  O  O384  1  0.61523788  0.24296953  0.74681906  1
  O  O385  1  0.62223365  0.76161012  0.24916255  1
  O  O386  1  0.62007576  0.75878821  0.75292501  1
  O  O387  1  0.37421355  0.24414022  0.24627459  1
  O  O388  1  0.38586584  0.24589030  0.73536120  1
  O  O389  1  0.37170448  0.74376225  0.24140633  1
  O  O390  1  0.38048410  0.74316253  0.74352254  1
  O  O391  1  0.88626061  0.25746236  0.24501844  1
  O  O392  1  0.88595265  0.23962550  0.74636635  1
  O  O393  1  0.87459883  0.74360020  0.24389805  1
  O  O394  1  0.87019613  0.74269422  0.74130186  1
  O  O395  1  0.37525530  0.50000560  0.49245074  1
  O  O396  1  0.38692033  0.49245381  1.00422191  1
  O  O397  1  0.36650713  1.00929771  0.48326241  1
  O  O398  1  0.38354966  0.99500063  0.99885936  1
  O  O399  1  0.89011485  0.49750247  0.50212730  1
  O  O400  1  0.88158539  0.50710296  0.98987729  1
  O  O401  1  0.87453675  0.98305915  0.50579688  1
  O  O402  1  0.88028181  0.99393936  0.99432289  1
  O  O403  1  0.12227089  0.00789825  0.00007694  1
  O  O404  1  0.12966776  0.01279104  0.51540846  1
  O  O405  1  0.11634705  0.50717178  0.00105611  1
  O  O406  1  0.11530422  0.50567051  0.50612999  1
  O  O407  1  0.61259867  0.00429572  0.00456433  1
  O  O408  1  0.62987329  0.00936339  0.49219413  1
  O  O409  1  0.61674816  0.50936366  0.00517226  1
  O  O410  1  0.63334858  0.51215165  0.51157971  1
  O  O411  1  0.36905658  0.36892700  0.11604548  1
  O  O412  1  0.34883822  0.37237991  0.64729530  1
  O  O413  1  0.36401895  0.87158088  0.11742347  1
  O  O414  1  0.36366610  0.86408578  0.62754080  1
  O  O415  1  0.87426321  0.35927050  0.12549323  1
  O  O416  1  0.87493574  0.37310766  0.60874077  1
  O  O417  1  0.86824138  0.86418801  0.12107229  1
  O  O418  1  0.86562900  0.86744221  0.62285153  1
  O  O419  1  0.11464237  0.13815254  0.38714811  1
  O  O420  1  0.12733796  0.12626749  0.88595149  1
  O  O421  1  0.13318901  0.62824615  0.38065621  1
  O  O422  1  0.12971755  0.62907201  0.88499664  1
  O  O423  1  0.61906530  0.13175064  0.38956466  1
  O  O424  1  0.63435843  0.12254642  0.88618381  1
  O  O425  1  0.62242356  0.62471962  0.38725296  1
  O  O426  1  0.63041755  0.63075605  0.88117635  1
