# generated using pymatgen
data_V85Zn86O256
_symmetry_space_group_name_H-M   'P 1'
_cell_length_a   16.92023426
_cell_length_b   16.91466156
_cell_length_c   16.91997058
_cell_angle_alpha   90.06732562
_cell_angle_beta   89.95571329
_cell_angle_gamma   90.00897598
_symmetry_Int_Tables_number   1
_chemical_formula_structural   V85Zn86O256
_chemical_formula_sum   'V85 Zn86 O256'
_cell_volume   4842.49134245
_cell_formula_units_Z   1
loop_
 _symmetry_equiv_pos_site_id
 _symmetry_equiv_pos_as_xyz
  1  'x, y, z'
loop_
 _atom_site_type_symbol
 _atom_site_label
 _atom_site_symmetry_multiplicity
 _atom_site_fract_x
 _atom_site_fract_y
 _atom_site_fract_z
 _atom_site_occupancy
  V  V0  1  0.24927704  0.49616227  0.75544304  1
  V  V1  1  0.24192107  0.35120406  0.14384193  1
  V  V2  1  0.75419506  0.62511201  0.36423338  1
  V  V3  1  0.24807420  0.50396710  0.24737989  1
  V  V4  1  0.50236817  -0.00813871  0.49802499  1
  V  V5  1  0.12405611  0.49986642  0.62645634  1
  V  V6  1  0.24924515  0.62703828  0.37581260  1
  V  V7  1  0.38056864  0.74333353  0.62689674  1
  V  V8  1  0.74978351  0.37200318  0.11736277  1
  V  V9  1  0.62578631  0.87174755  0.75591742  1
  V  V10  1  0.12501217  -0.00284763  0.12126495  1
  V  V11  1  0.37629805  0.12297633  0.74996581  1
  V  V12  1  0.87738237  0.24998223  0.62663889  1
  V  V13  1  0.12441581  -0.00280028  0.62609334  1
  V  V14  1  0.87268737  0.12679852  0.75502810  1
  V  V15  1  0.60825914  0.12339307  0.00451588  1
  V  V16  1  -0.00891407  0.74815722  0.25600422  1
  V  V17  1  0.74882372  0.37513260  0.62208123  1
  V  V18  1  0.49638515  0.24851918  0.23945944  1
  V  V19  1  0.24744377  0.12592289  0.37673657  1
  V  V20  1  0.88320192  -0.00699495  0.36823531  1
  V  V21  1  -0.01108057  0.62374803  0.12639220  1
  V  V22  1  0.12126395  0.87238997  0.25548288  1
  V  V23  1  0.87776584  0.49940759  0.36371076  1
  V  V24  1  0.62725161  0.88375459  0.24984758  1
  V  V25  1  0.62973022  0.25338564  0.88152183  1
  V  V26  1  0.74934094  0.11467623  0.36893331  1
  V  V27  1  0.61189259  0.00147315  0.12093913  1
  V  V28  1  0.12587908  0.76387289  0.87198356  1
  V  V29  1  0.25026545  0.25325614  -0.00474977  1
  V  V30  1  0.62228844  0.75580414  0.37429432  1
  V  V31  1  0.25041334  -0.00252184  0.25014836  1
  V  V32  1  0.75049996  0.12322156  0.88766682  1
  V  V33  1  0.12358236  0.62542039  0.50031854  1
  V  V34  1  0.87411993  0.62792519  0.75866216  1
  V  V35  1  0.75120024  0.74923497  0.49928519  1
  V  V36  1  0.62781667  0.25040747  0.37417653  1
  V  V37  1  -0.00029066  0.12575791  0.62512389  1
  V  V38  1  0.37634107  0.25048185  0.62478161  1
  V  V39  1  0.49994608  0.50286342  0.50427189  1
  V  V40  1  -0.01841435  -0.00511079  0.00303671  1
  V  V41  1  0.74825281  0.50675438  0.75555206  1
  V  V42  1  0.62260061  0.62683649  0.50213661  1
  V  V43  1  0.24523679  -0.00562810  0.75215612  1
  V  V44  1  0.37929073  0.12737447  0.24073589  1
  V  V45  1  0.11098034  0.36974277  0.75615673  1
  V  V46  1  0.50229909  0.12291238  0.62326597  1
  V  V47  1  0.12515714  0.49564020  0.12673070  1
  V  V48  1  0.50024901  0.75654014  0.25251576  1
  V  V49  1  0.38588710  0.49438581  0.88137866  1
  V  V50  1  0.50470078  0.74307941  0.75100012  1
  V  V51  1  0.50359930  0.87338352  0.88207282  1
  V  V52  1  0.37863755  -0.00684442  0.37556198  1
  V  V53  1  0.37437194  0.75014424  0.11943338  1
  V  V54  1  0.37578157  0.50073201  0.37386038  1
  V  V55  1  -0.00301772  0.49578937  0.49827123  1
  V  V56  1  0.87722125  0.74858145  0.62643470  1
  V  V57  1  0.24963850  0.37442485  0.62661243  1
  V  V58  1  0.24730898  0.12434872  0.87428661  1
  V  V59  1  0.87278192  0.25055546  0.12603468  1
  V  V60  1  0.62317742  0.50427770  0.62502782  1
  V  V61  1  0.87704851  0.49235566  0.87369527  1
  V  V62  1  -0.00113335  0.48822300  -0.00463046  1
  V  V63  1  0.24026884  0.24957224  0.49953916  1
  V  V64  1  0.24857596  0.87178494  0.62991679  1
  V  V65  1  0.38208455  0.00005308  0.88277781  1
  V  V66  1  0.37359852  0.37364725  0.49803825  1
  V  V67  1  0.75642471  0.88022664  0.12244423  1
  V  V68  1  0.37765830  0.62897151  0.24949622  1
  V  V69  1  0.62630034  0.50218580  0.12132158  1
  V  V70  1  0.12043881  0.62636889  -0.00124385  1
  V  V71  1  0.25035275  0.75047006  0.50165875  1
  V  V72  1  0.75268545  0.00123491  0.75562987  1
  V  V73  1  0.00033167  0.12880395  0.13282838  1
  V  V74  1  0.75377841  0.75153124  -0.01092732  1
  V  V75  1  -0.01379732  0.88190213  0.87363346  1
  V  V76  1  0.62749754  0.63050337  -0.01153575  1
  V  V77  1  0.01088947  0.35971495  0.36185156  1
  V  V78  1  0.50095011  0.25278894  0.75536915  1
  V  V79  1  0.25040528  0.62499342  0.87723642  1
  V  V80  1  0.62096452  0.37665806  0.75531499  1
  V  V81  1  0.50259651  0.61983055  0.12064842  1
  V  V82  1  0.49829063  0.37270054  0.37200900  1
  V  V83  1  0.38260055  0.37392575  0.00729952  1
  V  V84  1  0.75388767  0.87863321  0.62427068  1
  Zn  Zn85  1  0.87164726  0.36261311  -0.01082476  1
  Zn  Zn86  1  0.38057725  0.62096416  0.74968742  1
  Zn  Zn87  1  0.75350862  0.50210355  0.24420607  1
  Zn  Zn88  1  0.62705850  0.37774714  0.24746841  1
  Zn  Zn89  1  0.00457415  0.75559703  0.75022705  1
  Zn  Zn90  1  0.62550472  0.12399642  0.49870730  1
  Zn  Zn91  1  0.24958873  0.75359893  0.00037547  1
  Zn  Zn92  1  0.37868982  0.88065305  0.00421163  1
  Zn  Zn93  1  0.11798420  0.75799625  0.38044128  1
  Zn  Zn94  1  -0.00145263  0.62505414  0.62773799  1
  Zn  Zn95  1  0.10627906  0.26066262  0.87907352  1
  Zn  Zn96  1  0.62676027  0.00088223  0.62444906  1
  Zn  Zn97  1  0.25029700  0.87318564  0.12291349  1
  Zn  Zn98  1  0.37884580  0.87115463  0.49771794  1
  Zn  Zn99  1  0.74983420  0.24818948  0.49773804  1
  Zn  Zn100  1  0.87325199  0.75038893  0.12213147  1
  Zn  Zn101  1  0.00096223  -0.00754209  0.49734919  1
  Zn  Zn102  1  0.88412039  0.87195315  0.49232849  1
  Zn  Zn103  1  0.11928177  0.12600563  0.49531016  1
  Zn  Zn104  1  0.87439966  0.37318083  0.49500368  1
  Zn  Zn105  1  0.87485979  0.12854453  0.25202611  1
  Zn  Zn106  1  0.12297735  0.12700757  0.00039175  1
  Zn  Zn107  1  0.19354358  0.18268237  0.18339952  1
  Zn  Zn108  1  0.18510420  0.18653752  0.68892041  1
  Zn  Zn109  1  0.18277231  0.68750224  0.18608668  1
  Zn  Zn110  1  0.18800985  0.68637044  0.69111766  1
  Zn  Zn111  1  0.68690222  0.18955138  0.18697664  1
  Zn  Zn112  1  0.68845355  0.18854288  0.68880839  1
  Zn  Zn113  1  0.68829462  0.69314533  0.18320999  1
  Zn  Zn114  1  0.68844945  0.68857662  0.68853437  1
  Zn  Zn115  1  0.29672513  0.30516884  0.30528431  1
  Zn  Zn116  1  0.31192560  0.31303034  0.81628592  1
  Zn  Zn117  1  0.30905599  0.81335782  0.31154492  1
  Zn  Zn118  1  0.31719641  0.81217001  0.81401644  1
  Zn  Zn119  1  0.81372648  0.31514765  0.30648426  1
  Zn  Zn120  1  0.80820612  0.31140125  0.80898123  1
  Zn  Zn121  1  0.80923272  0.81327934  0.30695458  1
  Zn  Zn122  1  0.81367161  0.81436919  0.81305998  1
  Zn  Zn123  1  0.18448459  0.43675585  0.43441132  1
  Zn  Zn124  1  0.18834277  0.43503213  0.94070950  1
  Zn  Zn125  1  0.18848699  0.93782148  0.44022372  1
  Zn  Zn126  1  0.19186880  0.93784309  0.94100727  1
  Zn  Zn127  1  0.68774617  0.43857914  0.43402836  1
  Zn  Zn128  1  0.68611322  0.44164633  0.93902597  1
  Zn  Zn129  1  0.68954954  0.93754138  0.43961041  1
  Zn  Zn130  1  0.68826475  0.93938896  0.94051797  1
  Zn  Zn131  1  0.31176669  0.06376652  0.06168303  1
  Zn  Zn132  1  0.31414318  0.06099748  0.56153773  1
  Zn  Zn133  1  0.31197644  0.56162251  0.06116946  1
  Zn  Zn134  1  0.31227081  0.56295466  0.56465760  1
  Zn  Zn135  1  0.80690951  0.06421408  0.06976499  1
  Zn  Zn136  1  0.81318285  0.06257802  0.55566918  1
  Zn  Zn137  1  0.80903858  0.56173464  0.05558325  1
  Zn  Zn138  1  0.81187280  0.56338186  0.56129134  1
  Zn  Zn139  1  0.43339202  0.43686776  0.18463022  1
  Zn  Zn140  1  0.43709577  0.43853138  0.68881564  1
  Zn  Zn141  1  0.43803527  0.93650457  0.18963885  1
  Zn  Zn142  1  0.43599369  0.93410901  0.68957637  1
  Zn  Zn143  1  0.93959166  0.43094441  0.18705240  1
  Zn  Zn144  1  0.93493029  0.43924732  0.68570633  1
  Zn  Zn145  1  0.93738759  0.93747224  0.19281077  1
  Zn  Zn146  1  0.93803241  0.94067555  0.69128132  1
  Zn  Zn147  1  0.06424495  0.06272959  0.31072386  1
  Zn  Zn148  1  0.03924601  0.09160212  0.83291032  1
  Zn  Zn149  1  0.06135772  0.56246247  0.31182666  1
  Zn  Zn150  1  0.06004687  0.56423288  0.81342269  1
  Zn  Zn151  1  0.56097679  0.06270351  0.31281051  1
  Zn  Zn152  1  0.56636183  0.06113301  0.81318897  1
  Zn  Zn153  1  0.56503547  0.56481887  0.31035439  1
  Zn  Zn154  1  0.56191425  0.56291661  0.81398897  1
  Zn  Zn155  1  0.43482888  0.18447232  0.43499419  1
  Zn  Zn156  1  0.43683021  0.19194619  0.93497840  1
  Zn  Zn157  1  0.43921834  0.68902771  0.43807564  1
  Zn  Zn158  1  0.44200693  0.68580801  0.93555618  1
  Zn  Zn159  1  0.93395806  0.18553532  0.44121077  1
  Zn  Zn160  1  0.93543735  0.18484007  0.94564351  1
  Zn  Zn161  1  0.93609597  0.68422939  0.43828420  1
  Zn  Zn162  1  0.93687771  0.68833460  0.93657253  1
  Zn  Zn163  1  0.06263330  0.30934349  0.06516551  1
  Zn  Zn164  1  0.05895831  0.31406080  0.56563120  1
  Zn  Zn165  1  0.05994638  0.81303241  0.06341501  1
  Zn  Zn166  1  0.06168639  0.81648488  0.56392851  1
  Zn  Zn167  1  0.56507470  0.31219928  0.06042315  1
  Zn  Zn168  1  0.56321193  0.31318289  0.56160647  1
  Zn  Zn169  1  0.56553207  0.80891713  0.06397771  1
  Zn  Zn170  1  0.56482450  0.81358573  0.56795929  1
  O  O171  1  0.11920163  0.11761853  0.12547258  1
  O  O172  1  0.11570737  0.11814805  0.62635959  1
  O  O173  1  0.11932907  0.61664877  0.11329637  1
  O  O174  1  0.12521785  0.61917128  0.61592580  1
  O  O175  1  0.63010443  0.11923664  0.11196113  1
  O  O176  1  0.61287171  0.12642564  0.62406279  1
  O  O177  1  0.61903226  0.62148877  0.12025322  1
  O  O178  1  0.63079159  0.61854793  0.61359609  1
  O  O179  1  0.38007546  0.38071137  0.37994272  1
  O  O180  1  0.36858394  0.38817817  0.88543045  1
  O  O181  1  0.37128004  0.88798381  0.37519197  1
  O  O182  1  0.38529693  0.88359954  0.87595329  1
  O  O183  1  0.88259443  0.38330987  0.37600187  1
  O  O184  1  0.87034900  0.38561787  0.87140355  1
  O  O185  1  0.86595746  0.88989875  0.37156671  1
  O  O186  1  0.88741242  0.87645724  0.87789975  1
  O  O187  1  0.25786394  0.00507412  0.37045851  1
  O  O188  1  0.26077739  0.00238042  0.86767691  1
  O  O189  1  0.25465056  0.50672220  0.36874700  1
  O  O190  1  0.25435315  0.50551166  0.87085336  1
  O  O191  1  0.75392949  0.01115418  0.37511951  1
  O  O192  1  0.74485902  0.00944189  0.86764991  1
  O  O193  1  0.75757399  0.50691252  0.37128445  1
  O  O194  1  0.75562848  0.49714028  0.86168330  1
  O  O195  1  0.24057865  0.50065510  0.13108836  1
  O  O196  1  0.24594623  0.49519716  0.63479581  1
  O  O197  1  0.24255653  1.00058138  0.13253218  1
  O  O198  1  0.24951738  0.99155722  0.63100394  1
  O  O199  1  0.74330420  0.49639938  0.12563857  1
  O  O200  1  0.74543392  0.49409209  0.63383127  1
  O  O201  1  0.73730875  0.98555019  0.11833261  1
  O  O202  1  0.74986154  0.99299188  0.62964567  1
  O  O203  1  0.00232089  0.37278471  0.26205464  1
  O  O204  1  0.01260111  0.37869797  0.74618699  1
  O  O205  1  0.00634356  0.85832826  0.24438175  1
  O  O206  1  -0.00115211  0.87849911  0.76863352  1
  O  O207  1  0.49608986  0.37029298  0.26006326  1
  O  O208  1  0.51204853  0.36864685  0.74442176  1
  O  O209  1  0.50836868  0.86284936  0.24743715  1
  O  O210  1  0.50901106  0.86769485  0.75518844  1
  O  O211  1  0.48715348  0.13287761  0.25674779  1
  O  O212  1  0.49731897  0.13194829  0.74349801  1
  O  O213  1  0.49735734  0.63648685  0.24395924  1
  O  O214  1  0.50087677  0.63750703  0.75257042  1
  O  O215  1  0.99926450  0.12127332  0.23688162  1
  O  O216  1  0.98294575  0.11123642  0.73395444  1
  O  O217  1  1.00894530  0.63765195  0.23904215  1
  O  O218  1  0.98946217  0.62807311  0.74740197  1
  O  O219  1  0.36778965  0.26752866  -0.01412629  1
  O  O220  1  0.37033801  0.25577942  0.50668653  1
  O  O221  1  0.37673889  0.74632925  0.01209137  1
  O  O222  1  0.37078394  0.75036348  0.50788921  1
  O  O223  1  0.87470723  0.24913888  0.01463319  1
  O  O224  1  0.87000296  0.25341090  0.51269722  1
  O  O225  1  0.85914990  0.74333390  0.00219987  1
  O  O226  1  0.86927423  0.74929245  0.50843768  1
  O  O227  1  0.13720713  0.24753511  0.50980900  1
  O  O228  1  0.13306081  0.24753805  0.99522653  1
  O  O229  1  0.12993591  0.74122494  0.50081161  1
  O  O230  1  0.12507325  0.74137422  0.99290660  1
  O  O231  1  0.62290069  0.24910061  0.48560944  1
  O  O232  1  0.62171187  0.23908771  0.99224887  1
  O  O233  1  0.62760316  0.74546901  0.49395632  1
  O  O234  1  0.63494930  0.73799214  1.00371462  1
  O  O235  1  0.50321055  0.25642573  0.14043799  1
  O  O236  1  0.49652003  0.24487590  0.63326406  1
  O  O237  1  0.49468362  0.74071470  0.13256967  1
  O  O238  1  0.49086199  0.75623438  0.63491390  1
  O  O239  1  0.99067160  0.24028224  0.12109002  1
  O  O240  1  0.99007727  0.24079329  0.62336867  1
  O  O241  1  0.99615134  0.74061380  0.13018979  1
  O  O242  1  0.98810060  0.75016750  0.62921171  1
  O  O243  1  -0.00399235  0.26102873  0.38055005  1
  O  O244  1  0.01281789  0.20022809  0.86836418  1
  O  O245  1  0.00032671  0.74117807  0.36034185  1
  O  O246  1  0.00577174  0.76584964  0.87864607  1
  O  O247  1  0.50408697  0.25752976  0.37036999  1
  O  O248  1  0.51068050  0.24639694  0.86171912  1
  O  O249  1  0.51030202  0.74657025  0.36653874  1
  O  O250  1  0.49397175  0.75993247  0.86300005  1
  O  O251  1  0.25112600  0.13301382  0.49482457  1
  O  O252  1  0.25334784  0.13330019  0.99002383  1
  O  O253  1  0.24293940  0.62994476  0.49730136  1
  O  O254  1  0.24155976  0.62484903  0.99013344  1
  O  O255  1  0.74545433  0.12833578  0.48573856  1
  O  O256  1  0.74335416  0.12137424  0.98990528  1
  O  O257  1  0.73952019  0.62913846  0.49152288  1
  O  O258  1  0.73833791  0.63808934  1.00364947  1
  O  O259  1  0.25307299  0.36672280  0.00906916  1
  O  O260  1  0.25349278  0.36920477  0.50472996  1
  O  O261  1  0.25876585  0.87093178  0.00431145  1
  O  O262  1  0.25234745  0.86540504  0.50834699  1
  O  O263  1  0.75303714  0.38163852  0.01184095  1
  O  O264  1  0.74899582  0.37729388  0.51225210  1
  O  O265  1  0.74043334  0.86318662  0.01120569  1
  O  O266  1  0.75300559  0.86725043  0.50939107  1
  O  O267  1  0.13591462  0.50655328  0.24019898  1
  O  O268  1  0.13119523  0.49333865  0.74735252  1
  O  O269  1  0.12756403  0.99238096  0.24055851  1
  O  O270  1  0.14195096  1.00573657  0.73830315  1
  O  O271  1  0.62523373  0.50035587  0.23584862  1
  O  O272  1  0.62933070  0.49616396  0.74688534  1
  O  O273  1  0.61971699  0.98918846  0.24521240  1
  O  O274  1  0.63536896  0.99329185  0.74546271  1
  O  O275  1  0.37355566  0.00720790  0.25741947  1
  O  O276  1  0.36728232  0.00545792  0.75530695  1
  O  O277  1  0.37663748  0.51440033  0.25604333  1
  O  O278  1  0.36825512  0.49938218  0.76170967  1
  O  O279  1  0.87509246  0.00537089  0.26307257  1
  O  O280  1  0.86017460  0.00945646  0.74551836  1
  O  O281  1  0.87722639  0.49965792  0.26014150  1
  O  O282  1  0.86753850  0.50648601  0.75378549  1
  O  O283  1  0.11050035  0.37488535  0.37677674  1
  O  O284  1  0.12518025  0.37666045  0.86173770  1
  O  O285  1  0.12974503  0.87674448  0.36071768  1
  O  O286  1  0.12173647  0.86644066  0.88092245  1
  O  O287  1  0.61648650  0.36937583  0.37136244  1
  O  O288  1  0.62965973  0.36797731  0.86788264  1
  O  O289  1  0.63471667  0.86357240  0.36702209  1
  O  O290  1  0.61930505  0.88151516  0.86374071  1
  O  O291  1  0.37416109  0.11844918  0.14205088  1
  O  O292  1  0.38551429  0.12952357  0.62957136  1
  O  O293  1  0.38286221  0.62924510  0.12864499  1
  O  O294  1  0.36951848  0.63792774  0.62956269  1
  O  O295  1  0.87904982  0.13259813  0.12807400  1
  O  O296  1  0.87713905  0.13147263  0.62939797  1
  O  O297  1  0.88659306  0.62076684  0.12184990  1
  O  O298  1  0.87404530  0.63313338  0.63350041  1
  O  O299  1  0.25932962  0.24509911  0.10186500  1
  O  O300  1  0.25755898  0.25397556  0.62048297  1
  O  O301  1  0.26093593  0.74655207  0.12437107  1
  O  O302  1  0.25475699  0.75466165  0.62298014  1
  O  O303  1  0.75920406  0.25749937  0.12587360  1
  O  O304  1  0.75231152  0.25936183  0.62241837  1
  O  O305  1  0.75200772  0.76149990  0.11689297  1
  O  O306  1  0.76000419  0.75635772  0.62136377  1
  O  O307  1  0.25669271  0.24001774  0.38920781  1
  O  O308  1  0.24586424  0.24083052  0.87858410  1
  O  O309  1  0.24717926  0.74372682  0.38262178  1
  O  O310  1  0.24424875  0.74170459  0.87555932  1
  O  O311  1  0.74198580  0.24720336  0.37485885  1
  O  O312  1  0.73605299  0.24064895  0.86824126  1
  O  O313  1  0.74557287  0.74320222  0.37921304  1
  O  O314  1  0.74959100  0.75810581  0.88969479  1
  O  O315  1  0.00220921  0.10739840  0.01333368  1
  O  O316  1  0.00010033  0.11819628  0.51205599  1
  O  O317  1  0.00561756  0.61813841  0.00572177  1
  O  O318  1  0.00752173  0.61485769  0.50203427  1
  O  O319  1  0.50931386  0.12824895  -0.00175642  1
  O  O320  1  0.49962246  0.11671026  0.50834822  1
  O  O321  1  0.51441866  0.63200843  0.00848303  1
  O  O322  1  0.51264710  0.61700710  0.49327373  1
  O  O323  1  0.49587502  0.38137859  0.49007721  1
  O  O324  1  0.48193581  0.37370693  1.00849997  1
  O  O325  1  0.49910377  0.88731097  0.50719844  1
  O  O326  1  0.50201331  0.86748926  0.98596482  1
  O  O327  1  0.99949504  0.38656461  0.49604861  1
  O  O328  1  0.99736754  0.38544005  1.00271035  1
  O  O329  1  0.99782513  0.87751117  0.49796650  1
  O  O330  1  1.00232771  0.88823335  0.99466905  1
  O  O331  1  0.49803995  0.49337371  0.38265093  1
  O  O332  1  0.48455774  0.50070100  0.87329172  1
  O  O333  1  0.49190035  1.00513228  0.38586187  1
  O  O334  1  0.49178355  0.98977298  0.86456435  1
  O  O335  1  0.99377399  0.49676393  0.38043431  1
  O  O336  1  0.99063140  0.50324114  0.88374057  1
  O  O337  1  0.98661398  1.00616437  0.37538811  1
  O  O338  1  1.00329158  0.99265013  0.89165016  1
  O  O339  1  0.00490072  0.00086693  0.11854178  1
  O  O340  1  0.01042289  0.00248886  0.62471994  1
  O  O341  1  0.00706793  0.50404269  0.11987099  1
  O  O342  1  0.00525667  0.50156701  0.61633681  1
  O  O343  1  0.51191652  -0.00398175  0.12556921  1
  O  O344  1  0.49979352  0.00743360  0.62065323  1
  O  O345  1  0.50446468  0.51332496  0.12882853  1
  O  O346  1  0.50344201  0.49614146  0.61145340  1
  O  O347  1  0.27986430  0.40241831  0.24300342  1
  O  O348  1  0.24719300  0.38487398  0.74740472  1
  O  O349  1  0.24229023  0.88087788  0.24511175  1
  O  O350  1  0.25598729  0.88250481  0.74363638  1
  O  O351  1  0.74720310  0.38006271  0.23533216  1
  O  O352  1  0.73859247  0.38171797  0.73985125  1
  O  O353  1  0.73851108  0.86884631  0.23412936  1
  O  O354  1  0.74535983  0.88159585  0.74682171  1
  O  O355  1  0.26062276  0.11839558  0.25751014  1
  O  O356  1  0.25771517  0.11963177  0.75482525  1
  O  O357  1  0.25590885  0.62023927  0.25396083  1
  O  O358  1  0.24990602  0.61301698  0.76201953  1
  O  O359  1  0.74972212  0.12987130  0.26529791  1
  O  O360  1  0.75188497  0.11811326  0.75701007  1
  O  O361  1  0.74494394  0.62615829  0.26085550  1
  O  O362  1  0.75750720  0.61657372  0.74647073  1
  O  O363  1  0.36551590  0.11427426  0.36999330  1
  O  O364  1  0.36936017  0.11901148  0.86909413  1
  O  O365  1  0.36940236  0.62111389  0.37095089  1
  O  O366  1  0.36708647  0.61329588  0.87718074  1
  O  O367  1  0.86374320  0.11827593  0.37416711  1
  O  O368  1  0.86286265  0.13020567  0.86354492  1
  O  O369  1  0.86445771  0.61420645  0.38076578  1
  O  O370  1  0.87730432  0.61564400  0.86410934  1
  O  O371  1  0.13408750  0.38660099  0.11963189  1
  O  O372  1  0.13099022  0.38085193  0.63456878  1
  O  O373  1  0.12587920  0.88058865  0.13441778  1
  O  O374  1  0.13918961  0.88071752  0.62604994  1
  O  O375  1  0.63075762  0.38443266  0.12239667  1
  O  O376  1  0.62986115  0.38256356  0.63083590  1
  O  O377  1  0.62885183  0.88127361  0.13090450  1
  O  O378  1  0.63909833  0.87492004  0.63531106  1
  O  O379  1  0.20269141  0.28777057  0.22512701  1
  O  O380  1  0.13020571  0.26754665  0.75054632  1
  O  O381  1  0.11662397  0.75668763  0.25189138  1
  O  O382  1  0.12138542  0.74158575  0.76613681  1
  O  O383  1  0.61504051  0.25183745  0.25971847  1
  O  O384  1  0.61941518  0.25835426  0.75584476  1
  O  O385  1  0.61835919  0.75735920  0.25593384  1
  O  O386  1  0.61843770  0.75918082  0.74591356  1
  O  O387  1  0.38005696  0.23498502  0.25587135  1
  O  O388  1  0.38318555  0.24720358  0.74704717  1
  O  O389  1  0.38187184  0.74760467  0.24327211  1
  O  O390  1  0.38347679  0.74609996  0.74378764  1
  O  O391  1  0.87422951  0.24795270  0.23340554  1
  O  O392  1  0.86563999  0.24057103  0.73712537  1
  O  O393  1  0.88760352  0.75070708  0.24635987  1
  O  O394  1  0.87527861  0.74312404  0.74524890  1
  O  O395  1  0.38161374  0.49683925  0.49497181  1
  O  O396  1  0.36908591  0.48934473  0.99016937  1
  O  O397  1  0.38233864  0.99701134  0.49264138  1
  O  O398  1  0.37523652  1.00200911  0.98686494  1
  O  O399  1  0.88315796  0.49840032  0.49322156  1
  O  O400  1  0.88145697  0.49932264  0.98877087  1
  O  O401  1  0.87450874  0.99645370  0.48425631  1
  O  O402  1  0.88344470  1.00034567  1.00608663  1
  O  O403  1  0.12531305  0.00070035  0.01420869  1
  O  O404  1  0.12950367  0.00436326  0.51457684  1
  O  O405  1  0.11750990  0.50593501  0.00431024  1
  O  O406  1  0.11936565  0.50587930  0.50569592  1
  O  O407  1  0.62281390  0.01449820  0.00447295  1
  O  O408  1  0.61735339  0.00195930  0.50331638  1
  O  O409  1  0.63000252  0.51512200  0.01083510  1
  O  O410  1  0.61860758  0.50728462  0.50221582  1
  O  O411  1  0.36119108  0.37901223  0.11286986  1
  O  O412  1  0.36857683  0.37164696  0.61939717  1
  O  O413  1  0.37651335  0.86453358  0.12422303  1
  O  O414  1  0.36473333  0.86434447  0.62436502  1
  O  O415  1  0.87012844  0.36556341  0.12129821  1
  O  O416  1  0.86560643  0.36849977  0.62581312  1
  O  O417  1  0.85917609  0.87732435  0.12896670  1
  O  O418  1  0.86533310  0.86779862  0.63001500  1
  O  O419  1  0.14094742  0.11896772  0.37596982  1
  O  O420  1  0.14447589  0.10926295  0.87909880  1
  O  O421  1  0.13012861  0.62374092  0.38798196  1
  O  O422  1  0.12977565  0.62858943  0.88512841  1
  O  O423  1  0.63377896  0.13129019  0.37422204  1
  O  O424  1  0.62853591  0.13084219  0.88539914  1
  O  O425  1  0.63205659  0.63524397  0.38029341  1
  O  O426  1  0.62406539  0.62145095  0.88973005  1
