# generated using pymatgen
data_V85Zn86O256
_symmetry_space_group_name_H-M   'P 1'
_cell_length_a   17.00376859
_cell_length_b   16.98358875
_cell_length_c   16.99674594
_cell_angle_alpha   89.98072687
_cell_angle_beta   89.87914714
_cell_angle_gamma   90.03029808
_symmetry_Int_Tables_number   1
_chemical_formula_structural   V85Zn86O256
_chemical_formula_sum   'V85 Zn86 O256'
_cell_volume   4908.39361257
_cell_formula_units_Z   1
loop_
 _symmetry_equiv_pos_site_id
 _symmetry_equiv_pos_as_xyz
  1  'x, y, z'
loop_
 _atom_site_type_symbol
 _atom_site_label
 _atom_site_symmetry_multiplicity
 _atom_site_fract_x
 _atom_site_fract_y
 _atom_site_fract_z
 _atom_site_occupancy
  V  V0  1  0.75076607  0.87347791  0.62263860  1
  V  V1  1  0.37963142  0.00597171  0.35487345  1
  V  V2  1  0.12694598  0.12311815  0.49506132  1
  V  V3  1  0.74847715  0.62724636  0.87606370  1
  V  V4  1  0.86652058  0.49639062  0.86952755  1
  V  V5  1  0.75106028  0.62296712  0.37441958  1
  V  V6  1  0.37334632  0.50496624  0.37265182  1
  V  V7  1  -0.00339700  -0.01956152  0.50233010  1
  V  V8  1  0.62301600  -0.00054328  0.12073498  1
  V  V9  1  0.25848516  0.00290394  0.75554012  1
  V  V10  1  0.49331444  -0.00092001  -0.00917303  1
  V  V11  1  0.26958982  0.75534410  0.50492314  1
  V  V12  1  0.49077235  -0.00198190  0.50374673  1
  V  V13  1  0.87326403  0.75339150  0.11179966  1
  V  V14  1  0.00437752  0.49951246  0.49846780  1
  V  V15  1  0.57182099  0.54650934  0.16198957  1
  V  V16  1  0.49559361  0.36954201  0.86492828  1
  V  V17  1  0.00730277  0.62755043  0.11982370  1
  V  V18  1  0.87651947  0.49913578  0.37319525  1
  V  V19  1  0.75303590  0.11838507  0.87413171  1
  V  V20  1  0.74977306  0.37840252  0.63113725  1
  V  V21  1  0.87818029  0.11602625  0.75263046  1
  V  V22  1  0.37536616  0.37799099  -0.00184155  1
  V  V23  1  0.50226672  0.49650843  -0.00602956  1
  V  V24  1  0.24623744  0.12680251  0.87619602  1
  V  V25  1  0.62668783  -0.00203933  0.62598364  1
  V  V26  1  0.12580149  0.38042556  0.24825279  1
  V  V27  1  0.75279579  0.87489415  0.11527550  1
  V  V28  1  0.87803976  0.24515668  0.12848281  1
  V  V29  1  0.11536961  0.88107350  0.27310212  1
  V  V30  1  0.62600654  0.50212516  0.63694174  1
  V  V31  1  0.75272089  0.01099581  0.25188089  1
  V  V32  1  0.62291863  0.37131563  0.24670121  1
  V  V33  1  0.37181977  0.24410034  0.12564970  1
  V  V34  1  0.75011630  0.49777520  0.24636615  1
  V  V35  1  0.87672803  0.62896662  0.24573333  1
  V  V36  1  0.24720115  0.50872409  0.25002466  1
  V  V37  1  0.00270968  0.37242124  0.87352884  1
  V  V38  1  0.13055455  0.63647309  0.50132044  1
  V  V39  1  0.49494481  0.23790592  0.24952027  1
  V  V40  1  0.49316649  0.87217740  0.37797587  1
  V  V41  1  0.00439766  0.12555335  0.62409210  1
  V  V42  1  0.13039838  0.49855515  0.62559514  1
  V  V43  1  0.12234797  0.74585106  0.88168685  1
  V  V44  1  0.62679080  0.24679842  0.37542562  1
  V  V45  1  0.62575788  0.62364308  -0.00171253  1
  V  V46  1  0.62474492  0.87041775  0.24567899  1
  V  V47  1  0.62420606  0.62269971  0.50460053  1
  V  V48  1  0.87369853  0.37632177  0.00098611  1
  V  V49  1  0.87512409  0.37403273  0.49932233  1
  V  V50  1  0.49489868  0.63902494  0.63049962  1
  V  V51  1  0.87607615  0.24894165  0.62444897  1
  V  V52  1  0.61801954  0.86303014  0.75011417  1
  V  V53  1  0.87888920  0.75852527  0.62293132  1
  V  V54  1  0.23024891  0.88663033  0.12407042  1
  V  V55  1  0.49032106  0.86193196  0.87498964  1
  V  V56  1  0.38302760  0.24566312  0.63275582  1
  V  V57  1  0.26399330  0.50055804  0.75332366  1
  V  V58  1  0.00307882  0.36884659  0.37254689  1
  V  V59  1  0.00818411  0.50458754  -0.00322605  1
  V  V60  1  0.37514450  0.37501610  0.50091495  1
  V  V61  1  -0.01420568  -0.01219270  -0.00123449  1
  V  V62  1  0.75114620  0.24407932  0.49569226  1
  V  V63  1  0.25349507  0.63740803  0.37118855  1
  V  V64  1  0.62437970  0.75118012  0.37092683  1
  V  V65  1  0.49880466  0.37220376  0.37517652  1
  V  V66  1  0.86947010  0.61863134  0.74591607  1
  V  V67  1  0.25014549  0.62225710  0.88542278  1
  V  V68  1  0.26427114  0.87286285  0.62573660  1
  V  V69  1  0.23798277  0.25366243  -0.00332776  1
  V  V70  1  0.00225368  0.75140118  0.75343886  1
  V  V71  1  0.62889139  0.11670912  0.49657674  1
  V  V72  1  0.62196070  0.12777316  -0.00144577  1
  V  V73  1  0.12411124  0.87651297  0.75572116  1
  V  V74  1  0.00334873  0.24987782  0.75026508  1
  V  V75  1  0.36295329  0.88033354  -0.00193953  1
  V  V76  1  0.12845080  0.37077094  0.75180838  1
  V  V77  1  0.00205150  0.62197419  0.62658360  1
  V  V78  1  0.75779505  0.74651271  0.49924081  1
  V  V79  1  0.12772133  -0.00000450  0.62681838  1
  V  V80  1  0.37795676  0.64468337  0.75848108  1
  V  V81  1  0.25283120  0.24765274  0.49855669  1
  V  V82  1  0.11282344  0.11801180  0.00944759  1
  V  V83  1  0.74463299  0.37857993  0.12172517  1
  V  V84  1  0.62092820  0.24600729  0.86144345  1
  Zn  Zn85  1  0.74853455  0.25026228  -0.00271020  1
  Zn  Zn86  1  0.45993790  0.69354116  0.20309202  1
  Zn  Zn87  1  0.01574179  0.23219734  0.23388226  1
  Zn  Zn88  1  0.38704510  0.12745892  0.76787896  1
  Zn  Zn89  1  0.61938390  0.74605812  0.87740621  1
  Zn  Zn90  1  0.12995019  0.24886502  0.37065091  1
  Zn  Zn91  1  0.49696272  0.50114794  0.50538500  1
  Zn  Zn92  1  0.24971883  0.38050990  0.12406814  1
  Zn  Zn93  1  0.62570225  0.37402963  0.75023346  1
  Zn  Zn94  1  0.35750522  0.75670720  0.12896882  1
  Zn  Zn95  1  0.49164419  0.11457484  0.12852815  1
  Zn  Zn96  1  0.24070174  0.01108146  0.24038654  1
  Zn  Zn97  1  0.50681933  0.12803657  0.63507925  1
  Zn  Zn98  1  0.24000959  0.74961017  0.00220136  1
  Zn  Zn99  1  0.86489727  0.87402898  -0.02581867  1
  Zn  Zn100  1  0.13294092  0.50933201  0.11905006  1
  Zn  Zn101  1  0.26125465  0.12856062  0.36695633  1
  Zn  Zn102  1  0.88398540  -0.00583974  0.37848695  1
  Zn  Zn103  1  0.75843697  -0.00983605  0.75342795  1
  Zn  Zn104  1  0.25424950  0.37433775  0.62719351  1
  Zn  Zn105  1  -0.00062988  0.76355338  0.25935414  1
  Zn  Zn106  1  0.87709989  0.12766081  0.26749078  1
  Zn  Zn107  1  0.19182089  0.18797686  0.18671726  1
  Zn  Zn108  1  0.19348426  0.18859436  0.68545637  1
  Zn  Zn109  1  0.18471444  0.70006704  0.19301594  1
  Zn  Zn110  1  0.19390063  0.68771009  0.68864639  1
  Zn  Zn111  1  0.68725743  0.18935392  0.18181933  1
  Zn  Zn112  1  0.69250504  0.18373430  0.68484712  1
  Zn  Zn113  1  0.69371115  0.69230997  0.18661126  1
  Zn  Zn114  1  0.68905159  0.68663788  0.68934608  1
  Zn  Zn115  1  0.31198275  0.31452567  0.31132453  1
  Zn  Zn116  1  0.31162383  0.31198476  0.81604374  1
  Zn  Zn117  1  0.31011928  0.81697341  0.30456542  1
  Zn  Zn118  1  0.30760918  0.81576642  0.81988041  1
  Zn  Zn119  1  0.81208190  0.31221801  0.31154606  1
  Zn  Zn120  1  0.81189152  0.30471993  0.81205926  1
  Zn  Zn121  1  0.81549932  0.81705143  0.30513317  1
  Zn  Zn122  1  0.80566038  0.80231627  0.80459823  1
  Zn  Zn123  1  0.19043026  0.44020468  0.43621608  1
  Zn  Zn124  1  0.18854783  0.43765775  0.93357096  1
  Zn  Zn125  1  0.19653679  0.93887723  0.43835469  1
  Zn  Zn126  1  0.17893512  0.94346067  0.93542301  1
  Zn  Zn127  1  0.68779957  0.43523429  0.44036256  1
  Zn  Zn128  1  0.68268339  0.43864479  0.93622338  1
  Zn  Zn129  1  0.72504449  0.91694717  0.41846373  1
  Zn  Zn130  1  0.68329409  0.93656441  0.93323016  1
  Zn  Zn131  1  0.30906703  0.06403804  0.05991437  1
  Zn  Zn132  1  0.31268655  0.06404290  0.56431641  1
  Zn  Zn133  1  0.32651857  0.56904774  0.07235556  1
  Zn  Zn134  1  0.31604971  0.56629692  0.56685297  1
  Zn  Zn135  1  0.81213631  0.06151053  0.05978810  1
  Zn  Zn136  1  0.81593565  0.06156583  0.56223475  1
  Zn  Zn137  1  0.81281918  0.56142898  0.05976842  1
  Zn  Zn138  1  0.81289363  0.56015439  0.56337980  1
  Zn  Zn139  1  0.42818746  0.42748743  0.19182055  1
  Zn  Zn140  1  0.44114275  0.43879803  0.68491955  1
  Zn  Zn141  1  0.44845364  0.90279695  0.17486668  1
  Zn  Zn142  1  0.44062290  0.94109309  0.69313778  1
  Zn  Zn143  1  0.93975998  0.43963602  0.18500049  1
  Zn  Zn144  1  0.93913862  0.43644116  0.68647357  1
  Zn  Zn145  1  0.94237031  0.94350719  0.18213665  1
  Zn  Zn146  1  0.94285926  0.93564107  0.81382034  1
  Zn  Zn147  1  0.05934486  0.06003437  0.31512814  1
  Zn  Zn148  1  0.06899617  0.06793484  0.82133061  1
  Zn  Zn149  1  0.05205601  0.59436096  0.32631710  1
  Zn  Zn150  1  0.06509274  0.56073338  0.81191877  1
  Zn  Zn151  1  0.56834682  0.05787657  0.31440288  1
  Zn  Zn152  1  0.56393269  0.05621450  0.80985604  1
  Zn  Zn153  1  0.56388173  0.55748310  0.32939064  1
  Zn  Zn154  1  0.55467399  0.56137137  0.81498764  1
  Zn  Zn155  1  0.44255320  0.18270878  0.44166968  1
  Zn  Zn156  1  0.43490588  0.18955687  0.94046944  1
  Zn  Zn157  1  0.44072673  0.68688613  0.43620306  1
  Zn  Zn158  1  0.42579079  0.68133701  0.97047118  1
  Zn  Zn159  1  0.93787252  0.17773237  0.43222841  1
  Zn  Zn160  1  0.93584004  0.19092919  0.93623920  1
  Zn  Zn161  1  0.94149921  0.69236276  0.43718085  1
  Zn  Zn162  1  0.93537000  0.68631051  0.93476139  1
  Zn  Zn163  1  0.06205998  0.32080573  0.06515496  1
  Zn  Zn164  1  0.06608809  0.31175692  0.56154465  1
  Zn  Zn165  1  0.05359138  0.81618010  0.06299440  1
  Zn  Zn166  1  0.07079851  0.81214708  0.57252633  1
  Zn  Zn167  1  0.55947363  0.30973883  0.06176657  1
  Zn  Zn168  1  0.56355879  0.31280252  0.56245650  1
  Zn  Zn169  1  0.55681181  0.80816536  0.06020832  1
  Zn  Zn170  1  0.56642528  0.81316047  0.55685528  1
  O  O171  1  0.12481684  0.13539195  0.10676110  1
  O  O172  1  0.12727003  0.11887840  0.61665523  1
  O  O173  1  0.10986333  0.62792893  0.13073568  1
  O  O174  1  0.12439454  0.61633091  0.62196432  1
  O  O175  1  0.62170837  0.11765954  0.11434555  1
  O  O176  1  0.62733064  0.11494788  0.61854570  1
  O  O177  1  0.63337270  0.61998413  0.11768947  1
  O  O178  1  0.62123279  0.61924619  0.62151419  1
  O  O179  1  0.37837368  0.38328952  0.38251594  1
  O  O180  1  0.38565970  0.36690792  0.88393859  1
  O  O181  1  0.39010551  0.88227725  0.36905412  1
  O  O182  1  0.38018329  0.87992424  0.88047641  1
  O  O183  1  0.88311169  0.38027782  0.37791163  1
  O  O184  1  0.87804620  0.37971769  0.87882885  1
  O  O185  1  0.83400262  0.89197115  0.38369022  1
  O  O186  1  0.86108245  0.87758057  0.86184238  1
  O  O187  1  0.27433266  -0.00343405  0.37483882  1
  O  O188  1  0.24226154  0.01138332  0.86558064  1
  O  O189  1  0.25839108  0.50981530  0.37054754  1
  O  O190  1  0.24288817  0.51035321  0.86343742  1
  O  O191  1  0.72589845  0.00894855  0.34873336  1
  O  O192  1  0.73991468  0.01458213  0.86892094  1
  O  O193  1  0.75383341  0.50339029  0.36829292  1
  O  O194  1  0.76204083  0.50261789  0.87495535  1
  O  O195  1  0.25290320  0.50574905  0.13468343  1
  O  O196  1  0.24522204  0.49839533  0.63369901  1
  O  O197  1  0.24727527  0.99094775  0.12342365  1
  O  O198  1  0.24283512  0.99635493  0.63074058  1
  O  O199  1  0.75556143  0.48686252  0.13027756  1
  O  O200  1  0.74008107  0.48998695  0.61913474  1
  O  O201  1  0.74213058  0.99523900  0.12870362  1
  O  O202  1  0.74587062  0.98837922  0.62519080  1
  O  O203  1  0.01200549  0.38105803  0.25758588  1
  O  O204  1  0.00815299  0.37166969  0.75477747  1
  O  O205  1  0.00841490  0.88124491  0.25420661  1
  O  O206  1  0.01071017  0.86313432  0.74783093  1
  O  O207  1  0.50584062  0.36656004  0.25661001  1
  O  O208  1  0.50172708  0.37650276  0.76162935  1
  O  O209  1  0.52105627  0.88822644  0.26626966  1
  O  O210  1  0.50663906  0.88083192  0.76289370  1
  O  O211  1  0.50727264  0.13542836  0.24835270  1
  O  O212  1  0.49671073  0.11731008  0.74740104  1
  O  O213  1  0.51743379  0.60390964  0.23567763  1
  O  O214  1  0.48468829  0.62395188  0.74791871  1
  O  O215  1  0.99157880  0.12715311  0.25927168  1
  O  O216  1  0.99877230  0.13177585  0.74613108  1
  O  O217  1  0.98141735  0.60868376  0.23265618  1
  O  O218  1  0.99405579  0.62714952  0.74282516  1
  O  O219  1  0.36704568  0.26052437  0.00721440  1
  O  O220  1  0.37161141  0.25561508  0.50546038  1
  O  O221  1  0.36072665  0.77223520  -0.00609322  1
  O  O222  1  0.36775267  0.74919653  0.50238459  1
  O  O223  1  0.87273939  0.26416907  0.00532201  1
  O  O224  1  0.86926493  0.25490963  0.50415896  1
  O  O225  1  0.87723327  0.75414896  0.00809150  1
  O  O226  1  0.87111180  0.73945288  0.51037614  1
  O  O227  1  0.13686702  0.24305414  0.49991741  1
  O  O228  1  0.13667003  0.25683078  1.00350537  1
  O  O229  1  0.13180366  0.73816004  0.50844776  1
  O  O230  1  0.11632142  0.75508584  0.98375663  1
  O  O231  1  0.63258473  0.24262870  0.49683806  1
  O  O232  1  0.62461585  0.23712541  0.99492955  1
  O  O233  1  0.63394284  0.73697284  0.49385051  1
  O  O234  1  0.61489171  0.72863491  1.00081034  1
  O  O235  1  0.49147918  0.24757806  0.13383454  1
  O  O236  1  0.48635336  0.24970228  0.62074059  1
  O  O237  1  0.48674260  0.79003620  0.14404801  1
  O  O238  1  0.50757588  0.73734032  0.62056944  1
  O  O239  1  0.98251351  0.26426872  0.12639082  1
  O  O240  1  0.99659334  0.24610070  0.63019071  1
  O  O241  1  0.98995585  0.74300887  0.12813247  1
  O  O242  1  0.99617552  0.74250674  0.63406918  1
  O  O243  1  0.00153989  0.26427703  0.37728341  1
  O  O244  1  -0.00626842  0.26611087  0.86689673  1
  O  O245  1  0.01025395  0.70139780  0.35428734  1
  O  O246  1  0.00580741  0.73833895  0.85972091  1
  O  O247  1  0.50394882  0.25341160  0.36856577  1
  O  O248  1  0.50991777  0.25754093  0.88128149  1
  O  O249  1  0.51423246  0.75729922  0.38126306  1
  O  O250  1  0.49706440  0.76086177  0.88602899  1
  O  O251  1  0.24609000  0.13203855  0.49619340  1
  O  O252  1  0.23952586  0.13688911  0.99684443  1
  O  O253  1  0.24966129  0.63798398  0.49983559  1
  O  O254  1  0.25591818  0.62346156  0.98770249  1
  O  O255  1  0.74234493  0.13398477  0.50796599  1
  O  O256  1  0.74093623  0.12615865  0.99134828  1
  O  O257  1  0.74440317  0.62785472  0.49559651  1
  O  O258  1  0.73999661  0.61321216  0.98777020  1
  O  O259  1  0.25618546  0.36953931  -0.00163895  1
  O  O260  1  0.26182700  0.36892239  0.50042987  1
  O  O261  1  0.24800098  0.88233102  0.00509668  1
  O  O262  1  0.24823959  0.86152165  0.50939731  1
  O  O263  1  0.75578766  0.37618543  0.00537792  1
  O  O264  1  0.75597406  0.36812338  0.50893610  1
  O  O265  1  0.74927310  0.88238564  0.01095175  1
  O  O266  1  0.73873287  0.85994066  0.51704919  1
  O  O267  1  0.13857718  0.49878301  0.25129976  1
  O  O268  1  0.13071460  0.49193120  0.73921948  1
  O  O269  1  0.12608319  0.98691730  0.25823509  1
  O  O270  1  0.13005295  0.99431017  0.74429758  1
  O  O271  1  0.62795175  0.49462038  0.24474912  1
  O  O272  1  0.62320224  0.49973919  0.73936087  1
  O  O273  1  0.62935203  0.99760149  0.23328933  1
  O  O274  1  0.62934062  0.98862233  0.73660820  1
  O  O275  1  0.38374965  -0.00403744  0.25675692  1
  O  O276  1  0.36029276  0.00683059  0.74588776  1
  O  O277  1  0.36212544  0.49431294  0.26157115  1
  O  O278  1  0.36497366  0.49917790  0.74849550  1
  O  O279  1  0.85879304  -0.00149981  0.24748325  1
  O  O280  1  0.87925247  0.01376570  0.74584922  1
  O  O281  1  0.86770762  0.50329905  0.25443717  1
  O  O282  1  0.88228641  0.50692394  0.75759296  1
  O  O283  1  0.11824310  0.37665142  0.36957858  1
  O  O284  1  0.11406133  0.38204784  0.86346252  1
  O  O285  1  0.12880049  0.87513736  0.37109988  1
  O  O286  1  0.13078285  0.86561280  0.86121312  1
  O  O287  1  0.61881254  0.36827346  0.37038872  1
  O  O288  1  0.61971402  0.36360491  0.87186596  1
  O  O289  1  0.62849794  0.86436639  0.36720018  1
  O  O290  1  0.61794773  0.86807529  0.86691508  1
  O  O291  1  0.37623748  0.13936629  0.11623081  1
  O  O292  1  0.37655085  0.14057735  0.62371927  1
  O  O293  1  0.39801927  0.65144089  0.09455606  1
  O  O294  1  0.38413286  0.62223671  0.64104643  1
  O  O295  1  0.86886797  0.14594966  0.11676769  1
  O  O296  1  0.88282711  0.13153031  0.63200933  1
  O  O297  1  0.87548047  0.63418557  0.12815521  1
  O  O298  1  0.88136771  0.62611989  0.63145776  1
  O  O299  1  0.25593713  0.25564575  0.11295654  1
  O  O300  1  0.26127721  0.25300578  0.61299771  1
  O  O301  1  0.23983650  0.76754249  0.11764042  1
  O  O302  1  0.25015766  0.75809467  0.61457990  1
  O  O303  1  0.75902358  0.26267426  0.12059524  1
  O  O304  1  0.75479805  0.25648953  0.61392249  1
  O  O305  1  0.76033306  0.76232856  0.12696876  1
  O  O306  1  0.75932194  0.75014587  0.62045271  1
  O  O307  1  0.25274873  0.25013302  0.38750679  1
  O  O308  1  0.24955376  0.24905258  0.89091419  1
  O  O309  1  0.25740164  0.74388493  0.38907562  1
  O  O310  1  0.23819486  0.74152860  0.87733975  1
  O  O311  1  0.74456385  0.25772102  0.38889193  1
  O  O312  1  0.73944559  0.24000524  0.87677056  1
  O  O313  1  0.74174453  0.74087962  0.37772013  1
  O  O314  1  0.74346268  0.73064265  0.87107476  1
  O  O315  1  0.01236960  0.13187643  -0.00598148  1
  O  O316  1  0.01295456  0.12766408  0.50959451  1
  O  O317  1  -0.00861099  0.61561060  0.00694679  1
  O  O318  1  0.01238022  0.61742304  0.50839372  1
  O  O319  1  0.50583487  0.11644164  0.00038476  1
  O  O320  1  0.51170912  0.11517259  0.50750417  1
  O  O321  1  0.50898761  0.60439756  -0.01224815  1
  O  O322  1  0.50865229  0.62325132  0.50803173  1
  O  O323  1  0.48930006  0.37505361  0.49470086  1
  O  O324  1  0.49439114  0.37784530  0.99249149  1
  O  O325  1  0.51182408  0.88595729  0.48744512  1
  O  O326  1  0.48861138  0.88166784  0.99207820  1
  O  O327  1  0.99681863  0.38056723  0.49282392  1
  O  O328  1  0.99272204  0.38207738  0.99079421  1
  O  O329  1  1.00653651  0.88213325  0.51068485  1
  O  O330  1  0.98862297  0.88370713  0.99504522  1
  O  O331  1  0.48972190  0.49154167  0.38212272  1
  O  O332  1  0.50482580  0.48291197  0.88398560  1
  O  O333  1  0.49389563  0.99429814  0.38213907  1
  O  O334  1  0.51041554  0.98905254  0.88892667  1
  O  O335  1  0.99575674  0.49576280  0.38158645  1
  O  O336  1  0.99093115  0.49233541  0.87829249  1
  O  O337  1  1.00313875  0.99772663  0.39978767  1
  O  O338  1  1.00185319  1.00315437  0.88595051  1
  O  O339  1  -0.00647389  0.00319925  0.09929562  1
  O  O340  1  0.02005796  0.00856356  0.61610538  1
  O  O341  1  -0.00114541  0.50815726  0.11119280  1
  O  O342  1  0.01001882  0.50190262  0.61858171  1
  O  O343  1  0.50855689  -0.00527404  0.11355557  1
  O  O344  1  0.51036547  -0.00315375  0.61777133  1
  O  O345  1  0.49971925  0.48674840  0.11660571  1
  O  O346  1  0.51045144  0.50855363  0.62307052  1
  O  O347  1  0.23957054  0.38551156  0.25136075  1
  O  O348  1  0.24391729  0.38247846  0.75151333  1
  O  O349  1  0.23650101  0.88351859  0.23773610  1
  O  O350  1  0.24461426  0.88379065  0.74599618  1
  O  O351  1  0.74254901  0.37923158  0.24325499  1
  O  O352  1  0.75000320  0.36730220  0.73442144  1
  O  O353  1  0.73808529  0.88523777  0.23691537  1
  O  O354  1  0.73868381  0.87130858  0.73640737  1
  O  O355  1  0.24814000  0.12239279  0.25508180  1
  O  O356  1  0.24785495  0.11961435  0.75947982  1
  O  O357  1  0.24117743  0.62325651  0.26230925  1
  O  O358  1  0.26345227  0.61933039  0.75447498  1
  O  O359  1  0.75360274  0.11365714  0.23776423  1
  O  O360  1  0.76219730  0.12297394  0.75478335  1
  O  O361  1  0.75957054  0.61847215  0.25171531  1
  O  O362  1  0.76330356  0.62392929  0.75386122  1
  O  O363  1  0.38256714  0.10914368  0.37527850  1
  O  O364  1  0.35534602  0.13463676  0.87952955  1
  O  O365  1  0.36886886  0.61324898  0.38212734  1
  O  O366  1  0.36662367  0.63170150  0.86497278  1
  O  O367  1  0.86857626  0.10888684  0.38128394  1
  O  O368  1  0.86460865  0.13486233  0.86504902  1
  O  O369  1  0.86711231  0.61733463  0.36548659  1
  O  O370  1  0.86766634  0.61636151  0.86744813  1
  O  O371  1  0.12815599  0.38673873  0.13424145  1
  O  O372  1  0.12974080  0.38309127  0.63034705  1
  O  O373  1  0.12997103  0.88170745  0.11850258  1
  O  O374  1  0.13636759  0.88288598  0.63735107  1
  O  O375  1  0.63403694  0.36667176  0.13124506  1
  O  O376  1  0.63127513  0.38336726  0.62553758  1
  O  O377  1  0.63186798  0.88071576  0.12774418  1
  O  O378  1  0.62892985  0.87892103  0.63087745  1
  O  O379  1  0.12604626  0.26420533  0.25147970  1
  O  O380  1  0.12326721  0.26463291  0.74156805  1
  O  O381  1  0.11923655  0.77655079  0.24586024  1
  O  O382  1  0.11958783  0.75615498  0.75240584  1
  O  O383  1  0.61970529  0.25228418  0.25592043  1
  O  O384  1  0.62828674  0.24804172  0.75887076  1
  O  O385  1  0.62986918  0.75710762  0.25850761  1
  O  O386  1  0.62381294  0.75928105  0.75080119  1
  O  O387  1  0.38445553  0.25765623  0.24072387  1
  O  O388  1  0.36677922  0.24970506  0.73446270  1
  O  O389  1  0.36734915  0.74345899  0.24546787  1
  O  O390  1  0.36988942  0.74229834  0.75165605  1
  O  O391  1  0.87111165  0.24959710  0.23605668  1
  O  O392  1  0.88297440  0.24314721  0.74159900  1
  O  O393  1  0.87720844  0.74204492  0.24254025  1
  O  O394  1  0.88411892  0.73729692  0.74156362  1
  O  O395  1  0.37307428  0.49118696  0.49486657  1
  O  O396  1  0.38401056  0.48442994  1.00606794  1
  O  O397  1  0.38950709  1.00343268  0.50196479  1
  O  O398  1  0.38297494  0.99384573  1.00223576  1
  O  O399  1  0.88120014  0.49283783  0.49371237  1
  O  O400  1  0.88172713  0.48982460  0.99100672  1
  O  O401  1  0.89606748  0.99716404  0.51381428  1
  O  O402  1  0.88169749  0.99905624  0.99349340  1
  O  O403  1  0.11092879  0.01354724  -0.00268577  1
  O  O404  1  0.12606009  0.00580932  0.50753218  1
  O  O405  1  0.11150815  0.49672063  -0.00138664  1
  O  O406  1  0.12698923  0.50443661  0.51244477  1
  O  O407  1  0.61994871  0.00820390  0.00608077  1
  O  O408  1  0.62273119  0.00671483  0.51063374  1
  O  O409  1  0.61503094  0.50538358  0.00459569  1
  O  O410  1  0.62517825  0.51224153  0.50485725  1
  O  O411  1  0.37020938  0.36370510  0.11643604  1
  O  O412  1  0.37627347  0.36633254  0.61745871  1
  O  O413  1  0.35393469  0.87897867  0.11251208  1
  O  O414  1  0.36269180  0.88222949  0.63159112  1
  O  O415  1  0.86783964  0.37204229  0.11652538  1
  O  O416  1  0.86935439  0.37067401  0.61884423  1
  O  O417  1  0.86684408  0.86727544  0.12629364  1
  O  O418  1  0.86548536  0.85847229  0.63130385  1
  O  O419  1  0.12837053  0.12728300  0.38851558  1
  O  O420  1  0.13763721  0.13217592  0.88846982  1
  O  O421  1  0.14535447  0.61343624  0.39343291  1
  O  O422  1  0.13677356  0.63395432  0.86519901  1
  O  O423  1  0.61981857  0.13190269  0.38886315  1
  O  O424  1  0.62912767  0.13016661  0.88012675  1
  O  O425  1  0.63103584  0.62978561  0.38426426  1
  O  O426  1  0.63194347  0.62026593  0.87941704  1
