# generated using pymatgen
data_V85Zn86O256
_symmetry_space_group_name_H-M   'P 1'
_cell_length_a   16.92593244
_cell_length_b   16.94445084
_cell_length_c   16.92889818
_cell_angle_alpha   89.96236097
_cell_angle_beta   89.97101468
_cell_angle_gamma   89.99430563
_symmetry_Int_Tables_number   1
_chemical_formula_structural   V85Zn86O256
_chemical_formula_sum   'V85 Zn86 O256'
_cell_volume   4855.21697226
_cell_formula_units_Z   1
loop_
 _symmetry_equiv_pos_site_id
 _symmetry_equiv_pos_as_xyz
  1  'x, y, z'
loop_
 _atom_site_type_symbol
 _atom_site_label
 _atom_site_symmetry_multiplicity
 _atom_site_fract_x
 _atom_site_fract_y
 _atom_site_fract_z
 _atom_site_occupancy
  V  V0  1  0.00673945  0.12079655  0.12780465  1
  V  V1  1  0.86940225  0.50000375  0.87463694  1
  V  V2  1  0.75317058  0.24814824  -0.00099696  1
  V  V3  1  0.12276832  0.62864562  -0.01512939  1
  V  V4  1  0.00008954  0.36952936  0.37485671  1
  V  V5  1  0.87916290  0.74529800  0.62607125  1
  V  V6  1  0.87387104  0.87482678  0.49991287  1
  V  V7  1  0.87850318  -0.00072806  0.37524164  1
  V  V8  1  0.61289763  0.62627581  0.00612205  1
  V  V9  1  0.49605127  0.75272177  0.25495327  1
  V  V10  1  0.62156809  0.87279544  0.26233401  1
  V  V11  1  -0.00066324  0.50032598  -0.00296216  1
  V  V12  1  0.74933281  0.62551942  0.87309343  1
  V  V13  1  0.50300916  0.62974399  0.61812919  1
  V  V14  1  0.36920866  0.12741062  0.75299061  1
  V  V15  1  0.00010508  0.37028818  0.87902256  1
  V  V16  1  0.23999114  0.24888859  0.49803077  1
  V  V17  1  0.62494970  0.37720784  0.25227810  1
  V  V18  1  0.24936145  0.00187728  0.75910812  1
  V  V19  1  0.50292800  0.76130626  0.75281386  1
  V  V20  1  0.38173555  0.49676075  0.88841626  1
  V  V21  1  0.24716851  0.50512321  0.25269022  1
  V  V22  1  0.12073122  0.36820891  0.24916848  1
  V  V23  1  0.37628711  0.25190211  0.12223828  1
  V  V24  1  0.88163243  0.12987402  0.25109346  1
  V  V25  1  -0.00907156  0.24579845  0.74609302  1
  V  V26  1  -0.00119394  0.74746412  0.75848236  1
  V  V27  1  0.24753823  0.12096069  0.37883092  1
  V  V28  1  0.37591983  0.62391843  0.74938959  1
  V  V29  1  0.25715279  0.24877845  -0.00443438  1
  V  V30  1  0.12548272  0.00884122  0.61771492  1
  V  V31  1  0.37512489  0.11507101  0.25238777  1
  V  V32  1  0.62912825  -0.00175803  0.62712011  1
  V  V33  1  0.74973064  0.36730287  0.62509422  1
  V  V34  1  0.37550167  0.25365342  0.61417361  1
  V  V35  1  0.87888231  0.37235316  0.50400755  1
  V  V36  1  0.01116684  0.87189858  0.37641607  1
  V  V37  1  0.62746144  0.24913838  0.87225122  1
  V  V38  1  0.75069011  -0.00046859  0.25105804  1
  V  V39  1  0.39198689  -0.00005172  0.87781559  1
  V  V40  1  0.88203166  0.50202506  0.37986405  1
  V  V41  1  0.87494993  0.10711445  0.74342902  1
  V  V42  1  0.49685509  0.25037266  0.25142978  1
  V  V43  1  0.75072790  0.74798273  0.00139439  1
  V  V44  1  0.62563324  0.25271929  0.37836470  1
  V  V45  1  0.25450525  0.49593366  0.74848380  1
  V  V46  1  0.49924124  0.50152770  0.49993187  1
  V  V47  1  0.75120180  0.12676466  0.37663412  1
  V  V48  1  0.24156277  -0.00079101  0.24765056  1
  V  V49  1  0.01297610  0.74759727  0.25282653  1
  V  V50  1  0.74717953  0.50329806  0.75240209  1
  V  V51  1  0.25477606  0.37677765  0.11908779  1
  V  V52  1  0.36938268  0.50264522  0.37872153  1
  V  V53  1  0.13243822  0.11902042  0.00149388  1
  V  V54  1  0.50127794  0.12432338  0.12240364  1
  V  V55  1  0.38842166  0.87787246  -0.00219367  1
  V  V56  1  0.74961727  0.50282584  0.24926503  1
  V  V57  1  0.24746012  0.87431214  0.62243974  1
  V  V58  1  0.24603100  0.88003009  0.11940712  1
  V  V59  1  0.61066890  0.50437514  0.12493247  1
  V  V60  1  0.75018761  0.37548280  0.12672715  1
  V  V61  1  0.49133673  -0.00552734  0.49276018  1
  V  V62  1  0.12935536  0.24333274  0.87444609  1
  V  V63  1  0.37064359  0.75231108  0.62121331  1
  V  V64  1  -0.00138957  0.00126266  -0.00273889  1
  V  V65  1  0.87337424  0.88035254  -0.00799669  1
  V  V66  1  0.49884404  0.25180242  0.74916736  1
  V  V67  1  0.12462352  0.50020583  0.12221811  1
  V  V68  1  0.75162713  0.87556393  0.12767097  1
  V  V69  1  0.61504874  -0.00220678  0.12602481  1
  V  V70  1  0.00030489  0.62591557  0.12256611  1
  V  V71  1  0.37777690  0.74929875  0.12063313  1
  V  V72  1  0.10521277  0.61538092  0.49737107  1
  V  V73  1  0.87603348  0.62777115  0.25018246  1
  V  V74  1  0.74108869  0.63027074  0.38102404  1
  V  V75  1  0.37820033  0.62322621  0.24483850  1
  V  V76  1  0.62425747  0.11770950  -0.00045724  1
  V  V77  1  0.12556715  0.87086232  0.75792655  1
  V  V78  1  0.88229550  0.25075392  0.12740469  1
  V  V79  1  0.24613194  0.75287570  -0.01060904  1
  V  V80  1  0.76087279  0.11008870  0.87334668  1
  V  V81  1  0.49279978  0.37539787  0.38168674  1
  V  V82  1  0.23795634  0.73882522  0.48586840  1
  V  V83  1  0.25165978  0.37956046  0.61558035  1
  V  V84  1  0.62575026  0.50554132  0.62112087  1
  Zn  Zn85  1  0.49113847  0.37174239  0.88908686  1
  Zn  Zn86  1  0.62168386  0.37621637  0.74751290  1
  Zn  Zn87  1  0.75155626  0.24877985  0.50508344  1
  Zn  Zn88  1  -0.00006871  0.87996081  0.87534948  1
  Zn  Zn89  1  0.87747279  0.75252443  0.12596746  1
  Zn  Zn90  1  0.12407061  0.87523268  0.24341479  1
  Zn  Zn91  1  0.62138119  0.12272908  0.49971198  1
  Zn  Zn92  1  0.00661790  0.00771158  0.49501232  1
  Zn  Zn93  1  0.60924915  0.74819035  0.38998549  1
  Zn  Zn94  1  0.12784738  0.37071813  0.74749521  1
  Zn  Zn95  1  0.24697361  0.62679179  0.86872424  1
  Zn  Zn96  1  0.92785331  0.58496626  0.69613197  1
  Zn  Zn97  1  0.87080586  0.37631846  -0.00029844  1
  Zn  Zn98  1  0.63142130  0.89147263  0.76663082  1
  Zn  Zn99  1  0.74041596  0.74997852  0.50853871  1
  Zn  Zn100  1  0.61848991  0.75571713  0.87849917  1
  Zn  Zn101  1  -0.00110524  0.13353277  0.61331477  1
  Zn  Zn102  1  0.75405619  0.87924838  0.63699580  1
  Zn  Zn103  1  0.37138994  0.87478027  0.48531337  1
  Zn  Zn104  1  0.11852434  0.24447714  0.37466163  1
  Zn  Zn105  1  0.10780519  0.50242936  0.62386429  1
  Zn  Zn106  1  0.50007633  0.12456273  0.62096894  1
  Zn  Zn107  1  0.19030456  0.18750961  0.18647704  1
  Zn  Zn108  1  0.18942968  0.18946038  0.68825263  1
  Zn  Zn109  1  0.19075934  0.68554625  0.17850807  1
  Zn  Zn110  1  0.18161698  0.68454640  0.68220968  1
  Zn  Zn111  1  0.68953942  0.18836328  0.18970186  1
  Zn  Zn112  1  0.68861817  0.17865530  0.68868586  1
  Zn  Zn113  1  0.68476539  0.68920524  0.18943057  1
  Zn  Zn114  1  0.68914069  0.69155309  0.68605829  1
  Zn  Zn115  1  0.31011682  0.31367989  0.31126925  1
  Zn  Zn116  1  0.31424129  0.31638005  0.81270675  1
  Zn  Zn117  1  0.30431834  0.80855272  0.30850680  1
  Zn  Zn118  1  0.31730943  0.81691223  0.81147316  1
  Zn  Zn119  1  0.81461197  0.31294157  0.31382777  1
  Zn  Zn120  1  0.81013582  0.31206960  0.81244633  1
  Zn  Zn121  1  0.81680401  0.81074650  0.31428444  1
  Zn  Zn122  1  0.80924716  0.81354265  0.81084412  1
  Zn  Zn123  1  0.18286977  0.44145136  0.43925053  1
  Zn  Zn124  1  0.18985659  0.43677419  0.93360772  1
  Zn  Zn125  1  0.19577527  0.93505922  0.43455689  1
  Zn  Zn126  1  0.18987479  0.94041744  0.93755526  1
  Zn  Zn127  1  0.68841306  0.44197985  0.43965912  1
  Zn  Zn128  1  0.65722011  0.42614316  0.95067950  1
  Zn  Zn129  1  0.68746805  0.93829428  0.44419677  1
  Zn  Zn130  1  0.68125587  0.93260157  0.93795877  1
  Zn  Zn131  1  0.31664140  0.06110974  0.06217047  1
  Zn  Zn132  1  0.31233098  0.06550494  0.56453707  1
  Zn  Zn133  1  0.30966438  0.56731515  0.06122988  1
  Zn  Zn134  1  0.31246049  0.56416518  0.56108625  1
  Zn  Zn135  1  0.81331539  0.06066538  0.06430187  1
  Zn  Zn136  1  0.81513534  0.06164653  0.56061000  1
  Zn  Zn137  1  0.81025388  0.56223943  0.06236078  1
  Zn  Zn138  1  0.80995400  0.55867923  0.55768035  1
  Zn  Zn139  1  0.43455866  0.43457608  0.18982698  1
  Zn  Zn140  1  0.43738215  0.43487574  0.68822395  1
  Zn  Zn141  1  0.43683185  0.93592134  0.31402650  1
  Zn  Zn142  1  0.43718083  0.94121227  0.68028875  1
  Zn  Zn143  1  0.93837454  0.43909669  0.18897800  1
  Zn  Zn144  1  0.93357734  0.42156660  0.69208623  1
  Zn  Zn145  1  0.94020605  0.93909477  0.18598250  1
  Zn  Zn146  1  0.94357562  0.93266725  0.68290734  1
  Zn  Zn147  1  0.06511662  0.06194907  0.31340775  1
  Zn  Zn148  1  0.06387115  0.06237102  0.81307575  1
  Zn  Zn149  1  0.06560636  0.56299062  0.31784584  1
  Zn  Zn150  1  0.05935418  0.55008383  0.80016355  1
  Zn  Zn151  1  0.56508357  0.06495332  0.31305844  1
  Zn  Zn152  1  0.56264599  0.07046557  0.80878432  1
  Zn  Zn153  1  0.55804689  0.56469139  0.30930599  1
  Zn  Zn154  1  0.56211975  0.56754526  0.81272596  1
  Zn  Zn155  1  0.43417407  0.18225788  0.43749952  1
  Zn  Zn156  1  0.43862200  0.18242352  0.93525072  1
  Zn  Zn157  1  0.42818662  0.68542071  0.43676005  1
  Zn  Zn158  1  0.43273687  0.68584451  0.93447431  1
  Zn  Zn159  1  0.93872065  0.19096875  0.44025385  1
  Zn  Zn160  1  0.93789006  0.18339674  0.93742261  1
  Zn  Zn161  1  0.93668570  0.69069039  0.43713540  1
  Zn  Zn162  1  0.93308076  0.68968895  0.93332021  1
  Zn  Zn163  1  0.06617650  0.30919343  0.06158700  1
  Zn  Zn164  1  0.06348892  0.31837401  0.56327953  1
  Zn  Zn165  1  0.06274324  0.81077936  0.06056157  1
  Zn  Zn166  1  0.06241966  0.81061322  0.56504691  1
  Zn  Zn167  1  0.56339067  0.31107549  0.06211651  1
  Zn  Zn168  1  0.56312958  0.31539738  0.56206285  1
  Zn  Zn169  1  0.56234588  0.81023294  0.06943508  1
  Zn  Zn170  1  0.56302767  0.81917002  0.56226659  1
  O  O171  1  0.11361842  0.13488164  0.11769360  1
  O  O172  1  0.12602735  0.11105818  0.63061170  1
  O  O173  1  0.11871837  0.61749495  0.11386785  1
  O  O174  1  0.13088342  0.61793713  0.60706702  1
  O  O175  1  0.62482345  0.11925569  0.11937144  1
  O  O176  1  0.62279752  0.11611848  0.61961745  1
  O  O177  1  0.62642384  0.61902523  0.11693478  1
  O  O178  1  0.61716857  0.61410003  0.62911567  1
  O  O179  1  0.38403643  0.38733098  0.36594076  1
  O  O180  1  0.37620098  0.39031850  0.87668341  1
  O  O181  1  0.36574926  0.87494873  0.37278452  1
  O  O182  1  0.37464031  0.89019203  0.88095949  1
  O  O183  1  0.88062139  0.38359351  0.37767730  1
  O  O184  1  0.88116051  0.37951757  0.87751151  1
  O  O185  1  0.88386450  0.87989682  0.37949894  1
  O  O186  1  0.87397255  0.87290671  0.88991212  1
  O  O187  1  0.24856184  0.00900577  0.36402030  1
  O  O188  1  0.25714106  -0.00156039  0.86128669  1
  O  O189  1  0.25758854  0.49095653  0.36460726  1
  O  O190  1  0.26311942  0.50064585  0.86736966  1
  O  O191  1  0.75566738  0.00835688  0.37058118  1
  O  O192  1  0.74781446  0.01310364  0.88234893  1
  O  O193  1  0.75632941  0.51049254  0.36838191  1
  O  O194  1  0.74764166  0.50509289  0.86848130  1
  O  O195  1  0.24532610  0.49314851  0.12787847  1
  O  O196  1  0.25837328  0.49078026  0.63083542  1
  O  O197  1  0.25831450  0.99042201  0.13237178  1
  O  O198  1  0.24358212  0.99409889  0.63229416  1
  O  O199  1  0.74573834  0.49427308  0.13311358  1
  O  O200  1  0.74125175  0.49686767  0.63066386  1
  O  O201  1  0.74337079  0.99418530  0.13284606  1
  O  O202  1  0.73371089  0.99962463  0.61438689  1
  O  O203  1  0.01030709  0.38060472  0.25676859  1
  O  O204  1  0.00146481  0.35814709  0.76377944  1
  O  O205  1  0.00237799  0.86551342  0.25338984  1
  O  O206  1  0.00869971  0.86853231  0.75341855  1
  O  O207  1  0.50563524  0.37005607  0.26092008  1
  O  O208  1  0.50134179  0.36221366  0.75510945  1
  O  O209  1  0.50968788  0.86749888  0.25199209  1
  O  O210  1  0.49765942  0.86215787  0.74260655  1
  O  O211  1  0.49382505  0.13129458  0.24582838  1
  O  O212  1  0.48818549  0.13723197  0.74753423  1
  O  O213  1  0.48527937  0.63062952  0.24783127  1
  O  O214  1  0.49045390  0.62931524  0.73756253  1
  O  O215  1  0.99251621  0.12101667  0.24212556  1
  O  O216  1  0.98917270  0.13116573  0.75155081  1
  O  O217  1  0.99497069  0.62920764  0.24688604  1
  O  O218  1  1.00167282  0.64371993  0.76333289  1
  O  O219  1  0.36512276  0.24429006  0.00284198  1
  O  O220  1  0.36789574  0.24759143  0.51053287  1
  O  O221  1  0.36992685  0.75511807  0.00280400  1
  O  O222  1  0.36419581  0.75038239  0.50967723  1
  O  O223  1  0.86591813  0.24884420  0.00646715  1
  O  O224  1  0.86788062  0.26727376  0.49161248  1
  O  O225  1  0.86469913  0.75638262  0.00478156  1
  O  O226  1  0.87426121  0.75686673  0.51061688  1
  O  O227  1  0.13642595  0.25334395  0.49857007  1
  O  O228  1  0.13450420  0.24107199  0.99443952  1
  O  O229  1  0.13311625  0.74004670  0.50581340  1
  O  O230  1  0.13226654  0.74076154  0.99919544  1
  O  O231  1  0.62651815  0.24986184  0.48793406  1
  O  O232  1  0.63852832  0.23542039  0.99568005  1
  O  O233  1  0.62694298  0.75305284  0.50053502  1
  O  O234  1  0.63383680  0.74119493  1.00604767  1
  O  O235  1  0.49734881  0.24622962  0.12993500  1
  O  O236  1  0.49289611  0.25132540  0.63047507  1
  O  O237  1  0.48531055  0.75477509  0.13711416  1
  O  O238  1  0.49124410  0.74513343  0.62977252  1
  O  O239  1  0.98739672  0.24285373  0.11792794  1
  O  O240  1  1.00719752  0.25027506  0.64267331  1
  O  O241  1  0.99775701  0.74283001  0.13237942  1
  O  O242  1  0.98744988  0.75465530  0.63597620  1
  O  O243  1  -0.00022016  0.26461106  0.37180671  1
  O  O244  1  0.00685146  0.25257769  0.87179597  1
  O  O245  1  -0.00560686  0.75921530  0.36384163  1
  O  O246  1  -0.00648091  0.75959962  0.86305777  1
  O  O247  1  0.50396461  0.25765987  0.37318470  1
  O  O248  1  0.50941803  0.25013305  0.86910740  1
  O  O249  1  0.49468449  0.74185957  0.36112562  1
  O  O250  1  0.49478110  0.74319133  0.85495341  1
  O  O251  1  0.25520995  0.13389686  0.48986438  1
  O  O252  1  0.24263393  0.13467418  1.00856620  1
  O  O253  1  0.25055978  0.63788266  0.49985329  1
  O  O254  1  0.23941237  0.63400743  0.99586055  1
  O  O255  1  0.75167972  0.12839203  0.48673082  1
  O  O256  1  0.74951187  0.12891797  0.99113146  1
  O  O257  1  0.75081603  0.62479025  0.48339511  1
  O  O258  1  0.74462124  0.63476528  0.99739639  1
  O  O259  1  0.24245355  0.36625435  0.01209082  1
  O  O260  1  0.24814836  0.36886716  0.50911259  1
  O  O261  1  0.25528117  0.86985582  0.00117903  1
  O  O262  1  0.24810897  0.86194558  0.50795757  1
  O  O263  1  0.74735870  0.36353879  0.00737711  1
  O  O264  1  0.75475297  0.37653710  0.50930558  1
  O  O265  1  0.75481433  0.86937217  0.00862002  1
  O  O266  1  0.76520390  0.87244547  0.49843323  1
  O  O267  1  0.13144546  0.49513192  0.24394800  1
  O  O268  1  0.14804946  0.49582713  0.75389895  1
  O  O269  1  0.13808234  1.00024836  0.24525629  1
  O  O270  1  0.13288153  0.99474850  0.74337861  1
  O  O271  1  0.62985103  0.49812945  0.24406112  1
  O  O272  1  0.63175156  0.49903547  0.74391349  1
  O  O273  1  0.63111641  0.99250841  0.24590124  1
  O  O274  1  0.61560972  1.00518768  0.73263392  1
  O  O275  1  0.37089101  0.01231931  0.24951568  1
  O  O276  1  0.37164315  0.00650645  0.75624271  1
  O  O277  1  0.36768240  0.50606899  0.25341463  1
  O  O278  1  0.37020970  0.50746081  0.75201373  1
  O  O279  1  0.87021694  0.00951419  0.25421936  1
  O  O280  1  0.88372586  0.00909171  0.74903086  1
  O  O281  1  0.87024677  0.51099517  0.25533406  1
  O  O282  1  0.86014859  0.50179539  0.75512718  1
  O  O283  1  0.11590371  0.37680336  0.36673519  1
  O  O284  1  0.11726127  0.36356815  0.87392886  1
  O  O285  1  0.11413748  0.87942777  0.37045401  1
  O  O286  1  0.12708537  0.87941241  0.86126563  1
  O  O287  1  0.61936558  0.37063498  0.37149088  1
  O  O288  1  0.64322179  0.35311961  0.86180193  1
  O  O289  1  0.63432731  0.87086632  0.36428220  1
  O  O290  1  0.61703590  0.86887677  0.87725397  1
  O  O291  1  0.38181317  0.13173457  0.13156226  1
  O  O292  1  0.37599090  0.13614262  0.63424789  1
  O  O293  1  0.36861622  0.63614130  0.13115392  1
  O  O294  1  0.38125768  0.63304340  0.63018146  1
  O  O295  1  0.88232910  0.13079067  0.13218003  1
  O  O296  1  0.87587649  0.12249383  0.63926022  1
  O  O297  1  0.88152664  0.62457724  0.13368218  1
  O  O298  1  0.86848932  0.63796377  0.61871007  1
  O  O299  1  0.25624551  0.25764009  0.11773328  1
  O  O300  1  0.25499773  0.25617930  0.61724805  1
  O  O301  1  0.25733436  0.75477896  0.11161986  1
  O  O302  1  0.25577526  0.75757540  0.62377196  1
  O  O303  1  0.75960020  0.25189811  0.11903197  1
  O  O304  1  0.73995869  0.26351183  0.62594992  1
  O  O305  1  0.75092879  0.75884512  0.12028007  1
  O  O306  1  0.76380843  0.75466014  0.62666079  1
  O  O307  1  0.24894730  0.24703681  0.38355319  1
  O  O308  1  0.24304275  0.25669786  0.88421406  1
  O  O309  1  0.24458547  0.74884198  0.38767275  1
  O  O310  1  0.25796360  0.74849061  0.88505040  1
  O  O311  1  0.74108592  0.24427999  0.37329505  1
  O  O312  1  0.74880069  0.23858345  0.88252612  1
  O  O313  1  0.75239809  0.73496124  0.37401585  1
  O  O314  1  0.74808432  0.74145017  0.88524413  1
  O  O315  1  0.00605306  0.11950586  0.00778807  1
  O  O316  1  -0.00167570  0.12187126  0.50118807  1
  O  O317  1  0.00463179  0.62283481  0.00092514  1
  O  O318  1  0.00521106  0.62620210  0.50138857  1
  O  O319  1  0.51359024  0.13050292  0.00726930  1
  O  O320  1  0.50045422  0.11430308  0.49988189  1
  O  O321  1  0.51429333  0.63340634  -0.00122362  1
  O  O322  1  0.49409990  0.61994654  0.51150739  1
  O  O323  1  0.50139998  0.38258182  0.48835277  1
  O  O324  1  0.54931652  0.38589978  0.98365938  1
  O  O325  1  0.49232117  0.88969795  0.50209865  1
  O  O326  1  0.48743617  0.87084274  1.00712939  1
  O  O327  1  0.99176151  0.37435887  0.49166004  1
  O  O328  1  0.99942194  0.37618786  0.99037425  1
  O  O329  1  0.99340990  0.87505705  0.49158556  1
  O  O330  1  0.99166440  0.88252437  1.00268090  1
  O  O331  1  0.49514235  0.49506877  0.38112264  1
  O  O332  1  0.48468314  0.50112095  0.86760416  1
  O  O333  1  0.50240622  1.00231169  0.38574605  1
  O  O334  1  0.49054231  1.00425621  0.87177715  1
  O  O335  1  0.98610774  0.49208538  0.36779816  1
  O  O336  1  0.99368257  0.48862853  0.87739530  1
  O  O337  1  0.99515283  0.99097864  0.37286491  1
  O  O338  1  1.00543690  0.99964597  0.89121855  1
  O  O339  1  -0.00071724  0.01154904  0.11569048  1
  O  O340  1  0.01818490  -0.00008828  0.62374035  1
  O  O341  1  0.00365454  0.50525433  0.11610594  1
  O  O342  1  0.00738320  0.50526002  0.68148661  1
  O  O343  1  0.51472283  0.00838553  0.13050899  1
  O  O344  1  0.50694275  0.00347165  0.61314864  1
  O  O345  1  0.51169596  0.49475397  0.13046925  1
  O  O346  1  0.50429325  0.50545028  0.61890148  1
  O  O347  1  0.24433056  0.38501034  0.23852572  1
  O  O348  1  0.25163565  0.38019663  0.73887218  1
  O  O349  1  0.24663780  0.88205041  0.23822521  1
  O  O350  1  0.24556208  0.88111590  0.74281146  1
  O  O351  1  0.74503654  0.38194178  0.24802956  1
  O  O352  1  0.75040004  0.38365181  0.74062048  1
  O  O353  1  0.74652739  0.87726014  0.24428395  1
  O  O354  1  0.74337849  0.87605860  0.74994908  1
  O  O355  1  0.25749217  0.11786681  0.25063338  1
  O  O356  1  0.26143967  0.11799345  0.74587787  1
  O  O357  1  0.25639090  0.61142620  0.24261877  1
  O  O358  1  0.26147868  0.62008261  0.74697038  1
  O  O359  1  0.75703539  0.12128078  0.25939996  1
  O  O360  1  0.76484914  0.12583914  0.76119837  1
  O  O361  1  0.75862507  0.62268841  0.25545140  1
  O  O362  1  0.74130702  0.61840310  0.76204494  1
  O  O363  1  0.36176811  0.13365774  0.36203460  1
  O  O364  1  0.37596746  0.11181478  0.86772043  1
  O  O365  1  0.37514616  0.61021547  0.36426035  1
  O  O366  1  0.37208888  0.61575350  0.86464042  1
  O  O367  1  0.87015442  0.12328594  0.36666053  1
  O  O368  1  0.86650081  0.12307284  0.86773933  1
  O  O369  1  0.86862968  0.61869825  0.36912354  1
  O  O370  1  0.85872622  0.61654774  0.88186775  1
  O  O371  1  0.12932696  0.38072656  0.13064625  1
  O  O372  1  0.13475952  0.38193819  0.62852487  1
  O  O373  1  0.14049932  0.86970773  0.12195627  1
  O  O374  1  0.13366420  0.88203395  0.63371799  1
  O  O375  1  0.63257495  0.38107746  0.13516939  1
  O  O376  1  0.62992176  0.38777494  0.62643889  1
  O  O377  1  0.63473048  0.88132092  0.13197542  1
  O  O378  1  0.62557772  0.89042649  0.62932071  1
  O  O379  1  0.13283505  0.26559295  0.25050193  1
  O  O380  1  0.11718878  0.24652352  0.75987357  1
  O  O381  1  0.11595868  0.74663715  0.24483511  1
  O  O382  1  0.11113698  0.75799081  0.74230208  1
  O  O383  1  0.61875469  0.25436815  0.26051805  1
  O  O384  1  0.61563142  0.24274986  0.75624200  1
  O  O385  1  0.61287348  0.75721170  0.25031117  1
  O  O386  1  0.60752314  0.74680404  0.74803462  1
  O  O387  1  0.37980497  0.24430763  0.24242346  1
  O  O388  1  0.37927374  0.24395550  0.74694854  1
  O  O389  1  0.37483086  0.74190282  0.24145640  1
  O  O390  1  0.38073956  0.74465673  0.73978269  1
  O  O391  1  0.87019273  0.23864587  0.24159096  1
  O  O392  1  0.88839666  0.24277763  0.75715031  1
  O  O393  1  0.88234001  0.73781268  0.24837369  1
  O  O394  1  0.88736191  0.75453013  0.74071359  1
  O  O395  1  0.38618593  0.50386899  0.49138802  1
  O  O396  1  0.37418379  0.50764117  0.98722859  1
  O  O397  1  0.38706877  0.99936851  0.50563624  1
  O  O398  1  0.37356344  0.99510186  0.98550048  1
  O  O399  1  0.86984938  0.48853575  0.48911123  1
  O  O400  1  0.88104905  0.49713189  0.99432841  1
  O  O401  1  0.87918757  0.99210437  0.49228031  1
  O  O402  1  0.88424655  0.99197119  1.00609854  1
  O  O403  1  0.12265262  0.01337266  -0.00116504  1
  O  O404  1  0.13077874  -0.00584949  0.51536813  1
  O  O405  1  0.11871962  0.50519413  0.00217482  1
  O  O406  1  0.11898175  0.50844521  0.50526700  1
  O  O407  1  0.63352367  0.01097893  0.01103724  1
  O  O408  1  0.61344950  0.00027210  0.50662919  1
  O  O409  1  0.63525269  0.52023114  0.01245294  1
  O  O410  1  0.61103458  0.49958968  0.50647966  1
  O  O411  1  0.36594857  0.36718633  0.12730590  1
  O  O412  1  0.36723172  0.36349366  0.62915281  1
  O  O413  1  0.36072424  0.86316000  0.11120559  1
  O  O414  1  0.36193624  0.86885048  0.62393886  1
  O  O415  1  0.87021325  0.36666007  0.12527332  1
  O  O416  1  0.86445389  0.37780142  0.61587911  1
  O  O417  1  0.86341663  0.87559910  0.12143362  1
  O  O418  1  0.87541018  0.86866732  0.61575593  1
  O  O419  1  0.14106207  0.13009133  0.36561821  1
  O  O420  1  0.12253653  0.13556770  0.88473530  1
  O  O421  1  0.12382917  0.62021855  0.39529242  1
  O  O422  1  0.12517230  0.61551902  0.88296421  1
  O  O423  1  0.63414661  0.13474508  0.37475824  1
  O  O424  1  0.63597975  0.13022666  0.87992922  1
  O  O425  1  0.63834043  0.62716396  0.36573939  1
  O  O426  1  0.63127143  0.62948859  0.88862763  1
