# generated using pymatgen
data_V85Zn86O256
_symmetry_space_group_name_H-M   'P 1'
_cell_length_a   16.93897173
_cell_length_b   16.93577607
_cell_length_c   16.93150642
_cell_angle_alpha   89.96952636
_cell_angle_beta   90.01118910
_cell_angle_gamma   89.96131833
_symmetry_Int_Tables_number   1
_chemical_formula_structural   V85Zn86O256
_chemical_formula_sum   'V85 Zn86 O256'
_cell_volume   4857.21778848
_cell_formula_units_Z   1
loop_
 _symmetry_equiv_pos_site_id
 _symmetry_equiv_pos_as_xyz
  1  'x, y, z'
loop_
 _atom_site_type_symbol
 _atom_site_label
 _atom_site_symmetry_multiplicity
 _atom_site_fract_x
 _atom_site_fract_y
 _atom_site_fract_z
 _atom_site_occupancy
  V  V0  1  0.75336658  0.75106931  0.50152222  1
  V  V1  1  0.24493834  0.25216610  0.49717983  1
  V  V2  1  0.12529986  0.62863463  0.50172801  1
  V  V3  1  0.62939342  0.62203520  -0.00324834  1
  V  V4  1  0.25029979  0.49640047  0.74860802  1
  V  V5  1  0.12450682  0.87307004  0.24696903  1
  V  V6  1  -0.00189749  0.64152648  0.63374376  1
  V  V7  1  0.74807367  0.00417066  0.74919288  1
  V  V8  1  0.12131438  0.74627569  0.87251539  1
  V  V9  1  0.50331026  0.24443695  0.25174067  1
  V  V10  1  0.25472212  -0.00285258  0.25498065  1
  V  V11  1  0.37467631  0.49819119  0.87656343  1
  V  V12  1  0.38806381  -0.00179990  0.87710330  1
  V  V13  1  0.87956271  0.62354350  0.23308294  1
  V  V14  1  0.24392586  0.12797201  0.37226726  1
  V  V15  1  0.49772413  0.75624793  0.75843364  1
  V  V16  1  0.12518722  0.00391613  0.62403255  1
  V  V17  1  0.11739264  0.87159762  0.75050999  1
  V  V18  1  0.25269629  0.87750466  0.11768445  1
  V  V19  1  0.61405842  0.00137851  0.11720231  1
  V  V20  1  -0.00281243  0.49997920  0.01476599  1
  V  V21  1  0.37203073  0.62745870  0.75171242  1
  V  V22  1  0.25164351  0.87604793  0.62449952  1
  V  V23  1  0.75277983  0.00142357  0.24667794  1
  V  V24  1  0.75284085  0.87374692  0.62674589  1
  V  V25  1  0.62286821  0.75126107  0.37459944  1
  V  V26  1  0.00013350  -0.00237139  -0.00374660  1
  V  V27  1  0.61439568  0.26132040  0.87943073  1
  V  V28  1  0.12253952  0.62470221  0.01058907  1
  V  V29  1  0.12750918  0.00088867  0.12347885  1
  V  V30  1  0.87277437  0.00089754  0.87496698  1
  V  V31  1  0.49601391  0.37295984  0.38039725  1
  V  V32  1  0.37568049  0.37297068  -0.00243024  1
  V  V33  1  0.73993520  0.39152159  0.63030546  1
  V  V34  1  0.87497222  0.01162007  0.36996916  1
  V  V35  1  0.49869691  0.49597851  0.00117308  1
  V  V36  1  -0.00040722  0.50385187  0.50521833  1
  V  V37  1  0.12622388  0.37605698  0.74904911  1
  V  V38  1  0.36765562  0.24112576  0.62945051  1
  V  V39  1  0.75038858  0.35598516  0.12336193  1
  V  V40  1  0.25637356  0.12398809  0.87246786  1
  V  V41  1  -0.00408316  0.74412281  0.23521967  1
  V  V42  1  0.39392649  0.87477773  -0.00518369  1
  V  V43  1  0.50451065  0.61681882  0.62065445  1
  V  V44  1  0.12988275  0.12479186  -0.00052425  1
  V  V45  1  0.87416046  0.64477617  0.75290874  1
  V  V46  1  0.73487242  0.12794141  0.37553657  1
  V  V47  1  0.87014377  0.36353111  0.00096158  1
  V  V48  1  0.25307881  0.50325217  0.25293419  1
  V  V49  1  0.62594025  0.36725979  0.25916571  1
  V  V50  1  0.37851984  0.24313180  0.12580632  1
  V  V51  1  0.50292227  0.62465977  0.13959326  1
  V  V52  1  0.87892786  0.50206854  0.37265728  1
  V  V53  1  0.50818692  0.12894971  0.63203449  1
  V  V54  1  -0.01526332  0.13025627  0.12527617  1
  V  V55  1  0.37907971  0.75405515  0.62396021  1
  V  V56  1  -0.00000488  0.37617449  0.87647865  1
  V  V57  1  0.37208058  0.38029439  0.50742345  1
  V  V58  1  0.87229409  0.12730299  0.74988706  1
  V  V59  1  0.75238855  0.49467351  0.24890546  1
  V  V60  1  0.25655271  0.00383640  0.74978405  1
  V  V61  1  0.38134459  0.74900556  0.13030296  1
  V  V62  1  0.75216774  0.62584881  0.37456847  1
  V  V63  1  0.87308211  0.50178116  0.86712442  1
  V  V64  1  -0.00298624  0.87592555  0.37106049  1
  V  V65  1  0.49155599  0.87320221  0.37693956  1
  V  V66  1  0.62009041  0.87978231  0.75390367  1
  V  V67  1  0.63344717  0.74831661  0.87516554  1
  V  V68  1  0.87245065  0.87476730  0.50000795  1
  V  V69  1  0.49972583  0.01251811  0.49087420  1
  V  V70  1  0.12249484  0.74909579  0.37344727  1
  V  V71  1  0.37818581  0.11979245  0.25267652  1
  V  V72  1  0.24848321  0.37511608  0.12676301  1
  V  V73  1  0.87239221  0.86659851  0.00493546  1
  V  V74  1  0.62400135  0.49559302  0.12962057  1
  V  V75  1  0.62299297  0.87125501  0.25017282  1
  V  V76  1  -0.00066217  0.00234869  0.49885306  1
  V  V77  1  0.86949594  0.25113440  0.62380963  1
  V  V78  1  0.12703977  0.24914526  0.87261827  1
  V  V79  1  0.73481372  0.24734579  0.49786820  1
  V  V80  1  0.87139835  0.37672030  0.50015420  1
  V  V81  1  0.12576655  0.49834075  0.62819827  1
  V  V82  1  0.01175284  0.36658302  0.37991534  1
  V  V83  1  -0.00156993  0.25086350  0.74851709  1
  V  V84  1  0.74704978  0.13589776  0.88646305  1
  Zn  Zn85  1  0.49653580  0.25743026  0.75239000  1
  Zn  Zn86  1  0.70926822  0.56313183  0.80907301  1
  Zn  Zn87  1  -0.00185975  0.12696943  0.62318779  1
  Zn  Zn88  1  0.25265996  0.62689245  0.37536093  1
  Zn  Zn89  1  0.00072489  0.23804793  0.25455059  1
  Zn  Zn90  1  0.24856395  0.62598089  0.87881305  1
  Zn  Zn91  1  0.38053715  0.62805802  0.25844857  1
  Zn  Zn92  1  0.62652270  0.00533835  0.61951291  1
  Zn  Zn93  1  0.61245575  0.12894757  0.00434470  1
  Zn  Zn94  1  0.62921169  0.61351385  0.51100877  1
  Zn  Zn95  1  0.37549204  0.50597645  0.38346609  1
  Zn  Zn96  1  0.13177780  0.36562166  0.25850608  1
  Zn  Zn97  1  0.25093285  0.75325554  0.49902537  1
  Zn  Zn98  1  0.25054391  0.24931855  0.00074608  1
  Zn  Zn99  1  0.37421850  0.88123751  0.49710308  1
  Zn  Zn100  1  0.75084031  0.86797998  0.12691898  1
  Zn  Zn101  1  0.61752621  0.39213326  0.75360963  1
  Zn  Zn102  1  0.75971991  0.73519129  0.00511599  1
  Zn  Zn103  1  -0.00487234  0.86828530  0.86914269  1
  Zn  Zn104  1  0.25238096  0.74853540  -0.00180271  1
  Zn  Zn105  1  0.12138209  0.13065888  0.49284115  1
  Zn  Zn106  1  0.12055898  0.49984531  0.13210244  1
  Zn  Zn107  1  0.18433790  0.18990691  0.18902341  1
  Zn  Zn108  1  0.18799148  0.18591163  0.68620336  1
  Zn  Zn109  1  0.19125558  0.68839979  0.18636869  1
  Zn  Zn110  1  0.18872769  0.68813931  0.68945454  1
  Zn  Zn111  1  0.68647657  0.17997968  0.19052220  1
  Zn  Zn112  1  0.68577688  0.19534037  0.69249742  1
  Zn  Zn113  1  0.69220899  0.68668097  0.18644061  1
  Zn  Zn114  1  0.68523480  0.69321264  0.68395231  1
  Zn  Zn115  1  0.31368045  0.31075836  0.31483427  1
  Zn  Zn116  1  0.31297165  0.31422398  0.81165063  1
  Zn  Zn117  1  0.31086183  0.80916795  0.31080028  1
  Zn  Zn118  1  0.30743416  0.81561233  0.81419203  1
  Zn  Zn119  1  0.81811650  0.30295318  0.31126463  1
  Zn  Zn120  1  0.80739394  0.31643297  0.81169961  1
  Zn  Zn121  1  0.81422925  0.81281319  0.31022218  1
  Zn  Zn122  1  0.80823274  0.81572124  0.81828332  1
  Zn  Zn123  1  0.19378837  0.44182765  0.44312989  1
  Zn  Zn124  1  0.18740038  0.43936920  0.94019296  1
  Zn  Zn125  1  0.18664355  0.93879359  0.43604726  1
  Zn  Zn126  1  0.19063299  0.93630933  0.93483175  1
  Zn  Zn127  1  0.68759961  0.43540597  0.43951653  1
  Zn  Zn128  1  0.68990363  0.43523152  0.94282648  1
  Zn  Zn129  1  0.68256533  0.94126438  0.43808388  1
  Zn  Zn130  1  0.68743672  0.93758099  0.93492754  1
  Zn  Zn131  1  0.43468023  0.06118034  0.06562030  1
  Zn  Zn132  1  0.31672413  0.06482621  0.55689925  1
  Zn  Zn133  1  0.31062644  0.56384761  0.06656906  1
  Zn  Zn134  1  0.31111342  0.56617693  0.56635235  1
  Zn  Zn135  1  0.80794758  0.05509298  0.06170709  1
  Zn  Zn136  1  0.80950920  0.06394614  0.55972547  1
  Zn  Zn137  1  0.81053840  0.54915994  0.06095654  1
  Zn  Zn138  1  0.81712856  0.56971544  0.56587364  1
  Zn  Zn139  1  0.43618142  0.43488669  0.19063797  1
  Zn  Zn140  1  0.43678901  0.43449993  0.68647321  1
  Zn  Zn141  1  0.43722017  0.93008342  0.19324796  1
  Zn  Zn142  1  0.43930788  0.94369276  0.68573288  1
  Zn  Zn143  1  0.92671082  0.39878707  0.20187267  1
  Zn  Zn144  1  0.93679722  0.43967894  0.68708137  1
  Zn  Zn145  1  0.93861943  0.93990116  0.18479803  1
  Zn  Zn146  1  0.93496080  0.93822343  0.68550039  1
  Zn  Zn147  1  0.06361634  0.06352285  0.30723569  1
  Zn  Zn148  1  0.06344487  0.06257161  0.81013992  1
  Zn  Zn149  1  0.06297013  0.55898298  0.31047137  1
  Zn  Zn150  1  0.05869163  0.56486699  0.81690434  1
  Zn  Zn151  1  0.56197024  0.05731829  0.30850377  1
  Zn  Zn152  1  0.56548557  0.07079123  0.81111635  1
  Zn  Zn153  1  0.57598607  0.54672475  0.34250076  1
  Zn  Zn154  1  0.54713747  0.56326337  0.81135864  1
  Zn  Zn155  1  0.43175295  0.18913093  0.43492614  1
  Zn  Zn156  1  0.43773335  0.18779394  0.93617020  1
  Zn  Zn157  1  0.43806235  0.69093831  0.44002333  1
  Zn  Zn158  1  0.44072850  0.68546637  0.94176365  1
  Zn  Zn159  1  0.93199890  0.18818756  0.44047829  1
  Zn  Zn160  1  0.94046600  0.18515002  0.93710940  1
  Zn  Zn161  1  0.93815535  0.68856452  0.43533396  1
  Zn  Zn162  1  0.94372162  0.68373653  0.93697579  1
  Zn  Zn163  1  0.06341423  0.31139432  0.06234392  1
  Zn  Zn164  1  0.06190865  0.31416577  0.56334006  1
  Zn  Zn165  1  0.06286433  0.81236466  0.05725799  1
  Zn  Zn166  1  0.06280666  0.81751871  0.56082955  1
  Zn  Zn167  1  0.56241554  0.30937083  0.06366840  1
  Zn  Zn168  1  0.55766276  0.31662606  0.56657800  1
  Zn  Zn169  1  0.56953969  0.80671153  0.06734962  1
  Zn  Zn170  1  0.56474190  0.81442677  0.56150447  1
  O  O171  1  0.12419267  0.11668488  0.11424309  1
  O  O172  1  0.12161769  0.11252433  0.62358838  1
  O  O173  1  0.12714043  0.62283858  0.11449069  1
  O  O174  1  0.11463186  0.62115673  0.62362017  1
  O  O175  1  0.62868568  0.10553204  0.12399460  1
  O  O176  1  0.61199498  0.12995682  0.62581510  1
  O  O177  1  0.61860820  0.61565692  0.12122046  1
  O  O178  1  0.61034626  0.62794069  0.62690445  1
  O  O179  1  0.37857687  0.37275260  0.38991423  1
  O  O180  1  0.36938867  0.38067530  0.88947842  1
  O  O181  1  0.38729216  0.86642524  0.37536005  1
  O  O182  1  0.37152114  0.88058573  0.88816241  1
  O  O183  1  0.88243423  0.38259982  0.38819793  1
  O  O184  1  0.87810258  0.38438512  0.87845137  1
  O  O185  1  0.88000390  0.88502246  0.38023245  1
  O  O186  1  0.87729325  0.88434923  0.88134561  1
  O  O187  1  0.24727051  0.00309308  0.36158844  1
  O  O188  1  0.25583686  0.00545564  0.86712668  1
  O  O189  1  0.25350481  0.50415659  0.36837341  1
  O  O190  1  0.25953093  0.50173508  0.87029273  1
  O  O191  1  0.75502916  0.00948798  0.37200118  1
  O  O192  1  0.75231646  0.01136134  0.86789908  1
  O  O193  1  0.76575329  0.50058187  0.36867727  1
  O  O194  1  0.76861110  0.50051827  0.88463662  1
  O  O195  1  0.24839049  0.49117460  0.13285545  1
  O  O196  1  0.23792730  0.50753802  0.63602202  1
  O  O197  1  0.24428979  0.98651551  0.13675871  1
  O  O198  1  0.24512159  0.99749488  0.62970771  1
  O  O199  1  0.74140340  0.48939733  0.13379164  1
  O  O200  1  0.75292993  0.48942568  0.61687367  1
  O  O201  1  0.74282429  0.99276592  0.13376780  1
  O  O202  1  0.74677211  0.99622018  0.63080064  1
  O  O203  1  0.01401711  0.39411655  0.27754330  1
  O  O204  1  0.00454153  0.37054904  0.75586419  1
  O  O205  1  0.00430629  0.86868301  0.25292290  1
  O  O206  1  0.01319121  0.88302227  0.74922007  1
  O  O207  1  0.50625146  0.36353995  0.25333517  1
  O  O208  1  0.50642449  0.36912355  0.73955225  1
  O  O209  1  0.51044782  0.88020520  0.26420665  1
  O  O210  1  0.50943374  0.86970245  0.74331638  1
  O  O211  1  0.49133093  0.13114433  0.25671003  1
  O  O212  1  0.49976424  0.13301790  0.73514741  1
  O  O213  1  0.50170297  0.61478671  0.24047568  1
  O  O214  1  0.48962756  0.63738635  0.74085047  1
  O  O215  1  0.99837064  0.11960257  0.23065168  1
  O  O216  1  0.99139483  0.13235469  0.74798840  1
  O  O217  1  0.99183876  0.63182463  0.25399357  1
  O  O218  1  0.99240672  0.62555988  0.74036069  1
  O  O219  1  0.37354931  0.25765327  0.00668053  1
  O  O220  1  0.36393829  0.25440172  0.50804635  1
  O  O221  1  0.37514583  0.75929191  0.00650970  1
  O  O222  1  0.37216574  0.75713323  0.51372141  1
  O  O223  1  0.87961011  0.26497036  -0.00934698  1
  O  O224  1  0.86716413  0.25905785  0.50710316  1
  O  O225  1  0.87687695  0.76270630  -0.00957847  1
  O  O226  1  0.86335194  0.75859870  0.49191625  1
  O  O227  1  0.13961139  0.24782567  0.51249074  1
  O  O228  1  0.12691884  0.24136295  0.99108262  1
  O  O229  1  0.12370771  0.74566897  0.49237097  1
  O  O230  1  0.12655224  0.74110940  0.99366109  1
  O  O231  1  0.63643147  0.25611597  0.50228157  1
  O  O232  1  0.62180416  0.24813829  0.98663411  1
  O  O233  1  0.63686598  0.74857801  0.49147892  1
  O  O234  1  0.62091239  0.73835285  0.98972884  1
  O  O235  1  0.48583405  0.25611311  0.13422391  1
  O  O236  1  0.48894578  0.23798138  0.61847274  1
  O  O237  1  0.49440011  0.73756169  0.12208209  1
  O  O238  1  0.49315262  0.74971359  0.63479409  1
  O  O239  1  1.00115218  0.23081789  0.11522536  1
  O  O240  1  0.98619140  0.25140324  0.62832534  1
  O  O241  1  1.00360648  0.75359711  0.13652702  1
  O  O242  1  1.00427367  0.74001040  0.62343622  1
  O  O243  1  -0.00247463  0.26392341  0.38188176  1
  O  O244  1  0.00666836  0.25494731  0.86762605  1
  O  O245  1  0.00915209  0.75580809  0.36940811  1
  O  O246  1  0.01538870  0.75230930  0.87752793  1
  O  O247  1  0.49152927  0.25936625  0.36333130  1
  O  O248  1  0.51047550  0.25025640  0.87198184  1
  O  O249  1  0.51202877  0.75970360  0.38252648  1
  O  O250  1  0.50678200  0.74422809  0.86253660  1
  O  O251  1  0.24903628  0.13011379  0.48894459  1
  O  O252  1  0.23573649  0.12463844  0.98907211  1
  O  O253  1  0.23519603  0.63043099  0.50360686  1
  O  O254  1  0.23964713  0.62574267  0.99917594  1
  O  O255  1  0.75187054  0.13255163  0.48648739  1
  O  O256  1  0.74652086  0.12015822  0.98735145  1
  O  O257  1  0.75085463  0.63459671  0.49533018  1
  O  O258  1  0.73381298  0.61740051  1.00538205  1
  O  O259  1  0.25774190  0.37381785  0.00791099  1
  O  O260  1  0.26127890  0.36582480  0.49824313  1
  O  O261  1  0.25659509  0.87434960  0.00831687  1
  O  O262  1  0.25015156  0.87719698  0.51255759  1
  O  O263  1  0.75835972  0.37393823  0.00996184  1
  O  O264  1  0.75587547  0.36903128  0.50438375  1
  O  O265  1  0.76683066  0.87768908  -0.00265710  1
  O  O266  1  0.75153611  0.87223789  0.50660966  1
  O  O267  1  0.13877612  0.49638808  0.25010456  1
  O  O268  1  0.12977895  0.49848141  0.74698536  1
  O  O269  1  0.13018595  0.99113918  0.24259374  1
  O  O270  1  0.13307697  0.99456564  0.74242791  1
  O  O271  1  0.63286010  0.48726805  0.25036341  1
  O  O272  1  0.62759356  0.50547704  0.76209408  1
  O  O273  1  0.63235132  0.99131262  0.24244218  1
  O  O274  1  0.62984736  0.99508736  0.74754516  1
  O  O275  1  0.36606356  0.00629928  0.24370438  1
  O  O276  1  0.36194919  -0.00793472  0.75746676  1
  O  O277  1  0.36240198  0.50143090  0.24924154  1
  O  O278  1  0.36732547  0.50220714  0.75717125  1
  O  O279  1  0.86544425  -0.00721615  0.25783869  1
  O  O280  1  0.86954168  0.00723944  0.75542763  1
  O  O281  1  0.87424705  0.50094689  0.25799884  1
  O  O282  1  0.87894569  0.50442001  0.76366337  1
  O  O283  1  0.11316828  0.37711867  0.39044769  1
  O  O284  1  0.12057389  0.36983219  0.87024672  1
  O  O285  1  0.11768476  0.86876224  0.36883895  1
  O  O286  1  0.12419391  0.86900298  0.86574276  1
  O  O287  1  0.61768144  0.36946054  0.36375434  1
  O  O288  1  0.63176708  0.36336780  0.87599562  1
  O  O289  1  0.62025585  0.86854030  0.36945524  1
  O  O290  1  0.62955740  0.86810009  0.86214132  1
  O  O291  1  0.37382114  0.13242235  0.13718058  1
  O  O292  1  0.38312034  0.13653957  0.62187972  1
  O  O293  1  0.38522163  0.63324146  0.12387417  1
  O  O294  1  0.37884462  0.63713592  0.63128315  1
  O  O295  1  0.88665792  0.11968237  0.11528024  1
  O  O296  1  0.87363676  0.13521880  0.62916116  1
  O  O297  1  0.87194625  0.61535704  0.13425889  1
  O  O298  1  0.88855509  0.62614384  0.63866445  1
  O  O299  1  0.26179419  0.25584509  0.12440954  1
  O  O300  1  0.26171825  0.24173005  0.61771042  1
  O  O301  1  0.25825249  0.76181970  0.12283248  1
  O  O302  1  0.25763272  0.76024775  0.62655313  1
  O  O303  1  0.74694668  0.25656330  0.13048228  1
  O  O304  1  0.75722319  0.25609780  0.61768106  1
  O  O305  1  0.74269338  0.75550692  0.11551077  1
  O  O306  1  0.74763141  0.76067692  0.61423775  1
  O  O307  1  0.25130408  0.24091962  0.38369766  1
  O  O308  1  0.24567933  0.24104443  0.87396296  1
  O  O309  1  0.23525095  0.75021969  0.37689635  1
  O  O310  1  0.23835578  0.74885692  0.87788612  1
  O  O311  1  0.75540592  0.23575826  0.38017724  1
  O  O312  1  0.74525041  0.23918107  0.87272973  1
  O  O313  1  0.74530906  0.74842544  0.38164070  1
  O  O314  1  0.73785204  0.74919756  0.88187836  1
  O  O315  1  0.00931996  0.11669649  0.00337090  1
  O  O316  1  0.00067291  0.11493433  0.50015818  1
  O  O317  1  0.00800217  0.61244508  -0.00042780  1
  O  O318  1  0.00704850  0.62479280  0.51141045  1
  O  O319  1  0.49971582  0.12031418  -0.00188979  1
  O  O320  1  0.49566381  0.11690703  0.50298407  1
  O  O321  1  0.50885897  0.61264340  0.00784767  1
  O  O322  1  0.50126329  0.63435733  0.51836297  1
  O  O323  1  0.48528971  0.36856547  0.49330001  1
  O  O324  1  0.49091406  0.38771922  1.00872764  1
  O  O325  1  0.49937322  0.88331153  0.49267182  1
  O  O326  1  0.49189198  0.86847844  1.00072899  1
  O  O327  1  0.99200966  0.38221900  0.49643552  1
  O  O328  1  0.99378210  0.37995112  0.99368105  1
  O  O329  1  0.99510319  0.88587317  0.49395816  1
  O  O330  1  0.99107632  0.88218805  0.99617340  1
  O  O331  1  0.48721050  0.47657953  0.36064745  1
  O  O332  1  0.48274994  0.50278700  0.88594999  1
  O  O333  1  0.50228664  0.99377849  0.38537199  1
  O  O334  1  0.48617093  1.00551359  0.86207401  1
  O  O335  1  0.99228910  0.49906362  0.38722249  1
  O  O336  1  0.99071219  0.49329876  0.88161933  1
  O  O337  1  0.99349808  0.99769674  0.37837087  1
  O  O338  1  0.99499513  1.00197216  0.88472145  1
  O  O339  1  0.00568203  0.00655863  0.11223946  1
  O  O340  1  0.00668028  0.00073229  0.61558660  1
  O  O341  1  0.00011955  0.48505213  0.11519072  1
  O  O342  1  0.00574430  0.51094701  0.62238188  1
  O  O343  1  0.51036287  -0.00371078  0.13020284  1
  O  O344  1  0.50102699  0.01704235  0.61892734  1
  O  O345  1  0.50428544  0.50342801  0.12064459  1
  O  O346  1  0.48884669  0.51930751  0.62673755  1
  O  O347  1  0.25079342  0.38042576  0.24426667  1
  O  O348  1  0.24309076  0.38835394  0.75368716  1
  O  O349  1  0.24489806  0.87920533  0.24409707  1
  O  O350  1  0.24029238  0.88288753  0.73979934  1
  O  O351  1  0.74247537  0.37470460  0.24737920  1
  O  O352  1  0.74811184  0.37625095  0.73279256  1
  O  O353  1  0.74313259  0.88590844  0.25277452  1
  O  O354  1  0.74558839  0.88236244  0.74391399  1
  O  O355  1  0.25443103  0.11602420  0.25300758  1
  O  O356  1  0.24372210  0.11461501  0.75898510  1
  O  O357  1  0.25410720  0.61766972  0.25154688  1
  O  O358  1  0.25476362  0.61478708  0.75324957  1
  O  O359  1  0.74904606  0.11445206  0.26280337  1
  O  O360  1  0.75462815  0.12240702  0.75689493  1
  O  O361  1  0.75978638  0.61594913  0.25557205  1
  O  O362  1  0.76846023  0.63453587  0.74273256  1
  O  O363  1  0.36186689  0.12757545  0.36062453  1
  O  O364  1  0.36154160  0.11659518  0.88054424  1
  O  O365  1  0.37245058  0.62503350  0.37651980  1
  O  O366  1  0.37310155  0.61798932  0.87011184  1
  O  O367  1  0.87044619  0.11441893  0.37581927  1
  O  O368  1  0.86419431  0.12212667  0.87215441  1
  O  O369  1  0.87098593  0.61634198  0.37186431  1
  O  O370  1  0.88273841  0.61676745  0.86131477  1
  O  O371  1  0.13988640  0.37474596  0.12220041  1
  O  O372  1  0.11720097  0.39094785  0.63165656  1
  O  O373  1  0.13319595  0.87903353  0.12601337  1
  O  O374  1  0.13062742  0.88514996  0.62946812  1
  O  O375  1  0.63051391  0.37705629  0.13441351  1
  O  O376  1  0.63781019  0.37798078  0.62130486  1
  O  O377  1  0.62439242  0.88387156  0.13356746  1
  O  O378  1  0.63567486  0.87648151  0.63571181  1
  O  O379  1  0.11382475  0.25385494  0.24649859  1
  O  O380  1  0.11988177  0.25595912  0.75120164  1
  O  O381  1  0.11874505  0.75307889  0.25563280  1
  O  O382  1  0.12981258  0.76011707  0.75699767  1
  O  O383  1  0.61199983  0.25232449  0.24343946  1
  O  O384  1  0.62412648  0.25428012  0.76714758  1
  O  O385  1  0.63198062  0.76553746  0.25546012  1
  O  O386  1  0.61830172  0.75733520  0.75691254  1
  O  O387  1  0.38079854  0.24225590  0.24341377  1
  O  O388  1  0.37261405  0.25552670  0.73270373  1
  O  O389  1  0.37340166  0.74931913  0.23469611  1
  O  O390  1  0.37977464  0.75119397  0.74475527  1
  O  O391  1  0.90033905  0.28896527  0.24022433  1
  O  O392  1  0.87675150  0.24833854  0.74247450  1
  O  O393  1  0.88424565  0.73707310  0.25470415  1
  O  O394  1  0.87970105  0.74308274  0.76004665  1
  O  O395  1  0.36565725  0.48466269  0.50494360  1
  O  O396  1  0.37861355  0.49475216  0.99615852  1
  O  O397  1  0.39288108  0.99654980  0.50463248  1
  O  O398  1  0.37948962  0.98355641  0.99358346  1
  O  O399  1  0.87947287  0.49604758  0.49558814  1
  O  O400  1  0.88365257  0.49469611  0.98889743  1
  O  O401  1  0.88169410  0.99632143  0.49251103  1
  O  O402  1  0.88255920  0.99300826  0.99335831  1
  O  O403  1  0.11836461  0.00420981  0.00093252  1
  O  O404  1  0.11632490  0.00091125  0.50667900  1
  O  O405  1  0.11503038  0.50659394  0.00172590  1
  O  O406  1  0.12158975  0.50974149  0.51041815  1
  O  O407  1  0.62801451  -0.00499192  0.01526553  1
  O  O408  1  0.60670954  -0.00284342  0.50415789  1
  O  O409  1  0.61566681  0.50172394  0.00495843  1
  O  O410  1  0.61944117  0.52024831  0.45067162  1
  O  O411  1  0.36571068  0.36959622  0.11701683  1
  O  O412  1  0.37789748  0.36106034  0.61213692  1
  O  O413  1  0.37261981  0.86972241  0.11453960  1
  O  O414  1  0.36679740  0.87102829  0.62722108  1
  O  O415  1  0.86135598  0.38381155  0.11002348  1
  O  O416  1  0.86813908  0.37225635  0.61607455  1
  O  O417  1  0.87573045  0.87969957  0.10773211  1
  O  O418  1  0.86142737  0.88091148  0.61797057  1
  O  O419  1  0.13772108  0.11934366  0.37417710  1
  O  O420  1  0.13115176  0.12891747  0.87916010  1
  O  O421  1  0.12205829  0.63240284  0.38577090  1
  O  O422  1  0.12579182  0.63097243  0.88310567  1
  O  O423  1  0.63662151  0.12138010  0.37336063  1
  O  O424  1  0.63551440  0.13435764  0.87710406  1
  O  O425  1  0.63619080  0.64532927  0.35832873  1
  O  O426  1  0.62505017  0.63027424  0.88075939  1
