# generated using pymatgen
data_V85Zn86O256
_symmetry_space_group_name_H-M   'P 1'
_cell_length_a   16.90789625
_cell_length_b   16.91430126
_cell_length_c   16.90489510
_cell_angle_alpha   90.05103270
_cell_angle_beta   90.05220136
_cell_angle_gamma   90.00133790
_symmetry_Int_Tables_number   1
_chemical_formula_structural   V85Zn86O256
_chemical_formula_sum   'V85 Zn86 O256'
_cell_volume   4834.54673833
_cell_formula_units_Z   1
loop_
 _symmetry_equiv_pos_site_id
 _symmetry_equiv_pos_as_xyz
  1  'x, y, z'
loop_
 _atom_site_type_symbol
 _atom_site_label
 _atom_site_symmetry_multiplicity
 _atom_site_fract_x
 _atom_site_fract_y
 _atom_site_fract_z
 _atom_site_occupancy
  V  V0  1  0.62429748  0.62542370  0.49840011  1
  V  V1  1  0.61826989  0.87622416  0.25206428  1
  V  V2  1  0.26132795  0.75524763  0.50273884  1
  V  V3  1  0.00036930  0.50046815  0.00115746  1
  V  V4  1  0.61833175  0.75587283  0.37656779  1
  V  V5  1  0.74764862  0.13787072  0.38140848  1
  V  V6  1  -0.00359190  0.63849636  0.12661285  1
  V  V7  1  0.75322253  0.50139777  0.25106546  1
  V  V8  1  0.25083437  0.62523973  0.37538034  1
  V  V9  1  0.87887976  0.11874528  0.74869040  1
  V  V10  1  0.62686671  0.36957408  0.25395277  1
  V  V11  1  0.87601009  0.13033158  0.24602309  1
  V  V12  1  -0.00015864  0.24732597  0.74704133  1
  V  V13  1  0.74748211  0.00154378  0.25446587  1
  V  V14  1  0.75307856  0.24790432  0.00665792  1
  V  V15  1  0.62156818  0.75242232  0.86328704  1
  V  V16  1  0.74267440  0.87488288  0.63001317  1
  V  V17  1  0.88061080  0.50302984  0.38121996  1
  V  V18  1  0.75533386  0.12038492  0.87689334  1
  V  V19  1  0.87696068  0.62423076  0.74890250  1
  V  V20  1  0.36723777  0.74806132  0.11744558  1
  V  V21  1  0.37392377  0.12168139  0.24487920  1
  V  V22  1  0.24691581  0.11907374  0.87322666  1
  V  V23  1  0.00311505  0.37788364  0.38368941  1
  V  V24  1  0.50030756  0.62579272  0.12359361  1
  V  V25  1  0.49835986  -0.01264277  0.49608167  1
  V  V26  1  0.37620468  0.25766432  0.12554350  1
  V  V27  1  0.74518930  -0.00443057  0.75490332  1
  V  V28  1  0.37076494  0.49552642  0.86297820  1
  V  V29  1  0.87911729  0.75908748  0.62111290  1
  V  V30  1  0.62460079  0.13630101  0.49693216  1
  V  V31  1  0.00360597  0.75130249  0.75067367  1
  V  V32  1  -0.00182025  0.61655609  0.62139428  1
  V  V33  1  0.13333623  0.50180923  0.62737222  1
  V  V34  1  0.75678915  0.74993581  0.00351331  1
  V  V35  1  0.11644795  0.87369829  0.24810081  1
  V  V36  1  0.24808709  0.24907110  0.50111587  1
  V  V37  1  0.37803406  0.25043901  0.63288351  1
  V  V38  1  0.12931110  0.37823066  0.75098843  1
  V  V39  1  0.37448472  0.62479056  0.24918862  1
  V  V40  1  0.74942160  0.62541277  0.87528875  1
  V  V41  1  0.12594173  0.00486932  0.12886440  1
  V  V42  1  0.87442762  0.49769436  0.87594967  1
  V  V43  1  0.75254089  0.75845812  0.49917977  1
  V  V44  1  0.50214230  0.87384336  0.86235782  1
  V  V45  1  0.50452101  0.24152382  0.24767207  1
  V  V46  1  0.25336119  0.49475665  0.24737763  1
  V  V47  1  0.13246299  0.87893074  0.75040872  1
  V  V48  1  0.13288312  0.63251750  -0.00104338  1
  V  V49  1  0.37417369  0.11771514  0.75049874  1
  V  V50  1  0.37212962  0.87463211  -0.00255722  1
  V  V51  1  0.61586786  0.00175795  0.12616239  1
  V  V52  1  0.87688565  0.37029727  0.00892360  1
  V  V53  1  0.25188441  0.12175328  0.37200833  1
  V  V54  1  0.24890868  0.87825723  0.12766961  1
  V  V55  1  0.61965745  0.24671489  0.87244506  1
  V  V56  1  0.61968421  0.36752564  0.74956581  1
  V  V57  1  0.13003704  0.49644963  0.12287300  1
  V  V58  1  0.26115575  0.87799637  0.62366980  1
  V  V59  1  0.49919792  0.63730909  0.63212633  1
  V  V60  1  0.61614872  0.12540135  0.00434920  1
  V  V61  1  0.37359836  -0.01280241  0.37430724  1
  V  V62  1  0.87536886  0.24326088  0.61631167  1
  V  V63  1  0.12520628  0.00282561  0.62821665  1
  V  V64  1  -0.00187133  -0.01274134  0.50306302  1
  V  V65  1  0.75130954  0.36828318  0.61682912  1
  V  V66  1  0.37502853  0.37492934  0.49989001  1
  V  V67  1  0.87288468  -0.00431081  0.38093586  1
  V  V68  1  -0.00643451  0.88059671  0.87352017  1
  V  V69  1  0.12269799  0.62292476  0.49955425  1
  V  V70  1  0.49751823  0.75148624  0.25107524  1
  V  V71  1  0.62328344  0.49837815  0.62509695  1
  V  V72  1  0.24796117  0.25810456  0.00298221  1
  V  V73  1  0.11617996  0.12334818  0.50066254  1
  V  V74  1  0.87848883  0.63813605  0.24824444  1
  V  V75  1  0.37061686  0.63862334  0.74672884  1
  V  V76  1  0.62542578  0.49909725  0.12547677  1
  V  V77  1  0.12614204  0.37357761  0.24919448  1
  V  V78  1  0.75618616  0.87323652  0.12677717  1
  V  V79  1  0.11842663  0.75059856  0.37125419  1
  V  V80  1  0.62468726  0.62662265  -0.00067889  1
  V  V81  1  -0.00821622  0.00429471  -0.00056469  1
  V  V82  1  0.50285708  0.36887735  0.37567137  1
  V  V83  1  0.50118909  0.12638686  0.62855428  1
  V  V84  1  0.75096740  0.49667304  0.74964021  1
  Zn  Zn85  1  -0.00928462  0.86896183  0.37151365  1
  Zn  Zn86  1  0.00048791  0.37320103  0.87485884  1
  Zn  Zn87  1  0.12240993  0.24754297  0.37288559  1
  Zn  Zn88  1  0.49866807  0.37198422  0.87522077  1
  Zn  Zn89  1  0.87495007  0.87558657  -0.00018497  1
  Zn  Zn90  1  0.49910684  0.50004042  0.49867580  1
  Zn  Zn91  1  0.12479462  0.25170679  0.87433768  1
  Zn  Zn92  1  0.49654362  -0.00010360  0.00063483  1
  Zn  Zn93  1  0.87644983  0.37543716  0.50007402  1
  Zn  Zn94  1  0.37673454  0.49920021  0.37498644  1
  Zn  Zn95  1  0.37688479  0.37949347  0.00159716  1
  Zn  Zn96  1  0.25043515  0.62728221  0.87021964  1
  Zn  Zn97  1  0.62289415  -0.00233264  0.62597351  1
  Zn  Zn98  1  0.75083582  0.62745228  0.37412831  1
  Zn  Zn99  1  0.13273589  0.75764977  0.88035217  1
  Zn  Zn100  1  0.49928085  0.49692330  -0.00432951  1
  Zn  Zn101  1  -0.00298082  0.13385761  0.12086519  1
  Zn  Zn102  1  0.25295438  0.37950553  0.62808280  1
  Zn  Zn103  1  -0.01035440  0.25954012  0.24466719  1
  Zn  Zn104  1  0.12418583  0.12673685  0.00114940  1
  Zn  Zn105  1  0.37325245  -0.00200894  0.87419397  1
  Zn  Zn106  1  0.75527990  0.36901880  0.13029851  1
  Zn  Zn107  1  0.18973207  0.18753127  0.18640198  1
  Zn  Zn108  1  0.18780596  0.18718726  0.68714148  1
  Zn  Zn109  1  0.18638951  0.68696438  0.18617711  1
  Zn  Zn110  1  0.19001279  0.69260719  0.68645765  1
  Zn  Zn111  1  0.68887780  0.18533075  0.18831084  1
  Zn  Zn112  1  0.69033396  0.18427153  0.68619545  1
  Zn  Zn113  1  0.68935063  0.68845052  0.18809426  1
  Zn  Zn114  1  0.68975565  0.68612271  0.68592471  1
  Zn  Zn115  1  0.31322935  0.31011226  0.31408101  1
  Zn  Zn116  1  0.30921279  0.30884662  0.81272289  1
  Zn  Zn117  1  0.30399772  0.81096417  0.30735625  1
  Zn  Zn118  1  0.31011634  0.80975222  0.81388116  1
  Zn  Zn119  1  0.81251327  0.31413198  0.31848739  1
  Zn  Zn120  1  0.81090074  0.30905570  0.81327544  1
  Zn  Zn121  1  0.80654145  0.81493417  0.31414573  1
  Zn  Zn122  1  0.81298168  0.81071260  0.81238619  1
  Zn  Zn123  1  0.18840129  0.44010547  0.43795662  1
  Zn  Zn124  1  0.19093743  0.44014886  0.93313133  1
  Zn  Zn125  1  0.18786201  0.93675327  0.43640798  1
  Zn  Zn126  1  0.18539318  0.93857196  0.94319116  1
  Zn  Zn127  1  0.68871617  0.43734656  0.43548059  1
  Zn  Zn128  1  0.68797704  0.43447329  0.93899926  1
  Zn  Zn129  1  0.68459075  0.94047460  0.43969182  1
  Zn  Zn130  1  0.68521257  0.93693020  0.93810293  1
  Zn  Zn131  1  0.31031062  0.06283549  0.06065436  1
  Zn  Zn132  1  0.31227679  0.06036829  0.55936941  1
  Zn  Zn133  1  0.31439731  0.55744618  0.05941741  1
  Zn  Zn134  1  0.31404408  0.56546315  0.56353722  1
  Zn  Zn135  1  0.80737332  0.05837247  0.06475875  1
  Zn  Zn136  1  0.81175945  0.06064410  0.56376304  1
  Zn  Zn137  1  0.81354824  0.56237072  0.06537234  1
  Zn  Zn138  1  0.80942061  0.56507132  0.56179074  1
  Zn  Zn139  1  0.44095231  0.43583840  0.18752841  1
  Zn  Zn140  1  0.43946739  0.43985655  0.68826792  1
  Zn  Zn141  1  0.43490963  0.93701667  0.18904217  1
  Zn  Zn142  1  0.43807564  0.94085908  0.68641354  1
  Zn  Zn143  1  0.94108636  0.44369210  0.18951115  1
  Zn  Zn144  1  0.94060379  0.43378362  0.68599891  1
  Zn  Zn145  1  0.93777430  0.94420593  0.18866692  1
  Zn  Zn146  1  0.93858111  0.94008585  0.68745141  1
  Zn  Zn147  1  0.06059859  0.05876998  0.31368961  1
  Zn  Zn148  1  0.06278857  0.06210706  0.81295735  1
  Zn  Zn149  1  0.06150749  0.56260565  0.31049597  1
  Zn  Zn150  1  0.06323062  0.56113902  0.81302336  1
  Zn  Zn151  1  0.55965068  0.06216623  0.31841173  1
  Zn  Zn152  1  0.56280612  0.05987580  0.81319619  1
  Zn  Zn153  1  0.56152495  0.56020437  0.31379308  1
  Zn  Zn154  1  0.55962212  0.56003524  0.81209398  1
  Zn  Zn155  1  0.43817283  0.18626114  0.43753154  1
  Zn  Zn156  1  0.43542568  0.18917675  0.93712077  1
  Zn  Zn157  1  0.43956483  0.68673672  0.43816093  1
  Zn  Zn158  1  0.43737050  0.68785240  0.93360737  1
  Zn  Zn159  1  0.93903002  0.18745583  0.43082429  1
  Zn  Zn160  1  0.93797262  0.18824870  0.93421913  1
  Zn  Zn161  1  0.93765632  0.68683757  0.43849920  1
  Zn  Zn162  1  0.94163775  0.68946063  0.93644828  1
  Zn  Zn163  1  0.06157579  0.31108230  0.06619974  1
  Zn  Zn164  1  0.06144324  0.31153748  0.56558944  1
  Zn  Zn165  1  0.06028599  0.81649964  0.06163852  1
  Zn  Zn166  1  0.06872841  0.81053101  0.56283788  1
  Zn  Zn167  1  0.56076698  0.31247466  0.06423863  1
  Zn  Zn168  1  0.56022125  0.31083193  0.56417144  1
  Zn  Zn169  1  0.56167842  0.81265806  0.05905133  1
  Zn  Zn170  1  0.56276912  0.81379746  0.56468380  1
  O  O171  1  0.12463327  0.11688067  0.12449158  1
  O  O172  1  0.13408382  0.11340566  0.61484809  1
  O  O173  1  0.11767986  0.61754134  0.11705893  1
  O  O174  1  0.11883793  0.62134073  0.62007875  1
  O  O175  1  0.63122264  0.11495911  0.11639172  1
  O  O176  1  0.61824181  0.12300456  0.61586830  1
  O  O177  1  0.62121358  0.61970924  0.12031286  1
  O  O178  1  0.61805310  0.61874636  0.62059516  1
  O  O179  1  0.38209863  0.37494451  0.38372295  1
  O  O180  1  0.37618926  0.38518451  0.86848628  1
  O  O181  1  0.36792101  0.88840470  0.36699200  1
  O  O182  1  0.38289327  0.87487798  0.88018022  1
  O  O183  1  0.88348816  0.38367375  0.37747470  1
  O  O184  1  0.87389129  0.38300323  0.88407208  1
  O  O185  1  0.87228467  0.88958149  0.37081134  1
  O  O186  1  0.88968471  0.87154748  0.87400881  1
  O  O187  1  0.26432317  0.00742176  0.38278800  1
  O  O188  1  0.25095280  0.01522296  0.88146468  1
  O  O189  1  0.25267309  0.50859295  0.36753211  1
  O  O190  1  0.26574415  0.50820295  0.87564945  1
  O  O191  1  0.75452833  0.00645303  0.37247549  1
  O  O192  1  0.74689453  0.00732985  0.86957281  1
  O  O193  1  0.75547664  0.50317153  0.36442103  1
  O  O194  1  0.75418259  0.50603935  0.87062576  1
  O  O195  1  0.24184513  0.50474809  0.13382874  1
  O  O196  1  0.23749353  0.50056248  0.62175961  1
  O  O197  1  0.23988013  0.99136464  0.12054807  1
  O  O198  1  0.24013042  0.98739150  0.61321873  1
  O  O199  1  0.74421844  0.49812790  0.13665113  1
  O  O200  1  0.74052046  0.49530745  0.62911417  1
  O  O201  1  0.73832257  0.99238205  0.13412248  1
  O  O202  1  0.74966621  0.98955762  0.63185025  1
  O  O203  1  0.00991907  0.37962159  0.25884659  1
  O  O204  1  0.00926503  0.36725732  0.75114027  1
  O  O205  1  0.01117842  0.87616719  0.24943285  1
  O  O206  1  0.00805864  0.87237818  0.75497734  1
  O  O207  1  0.50760675  0.36618870  0.25622309  1
  O  O208  1  0.51639439  0.37598467  0.74900062  1
  O  O209  1  0.51091650  0.86811530  0.24520242  1
  O  O210  1  0.49685782  0.87782671  0.76295630  1
  O  O211  1  0.49264719  0.13540204  0.25807496  1
  O  O212  1  0.49382370  0.11915744  0.73726246  1
  O  O213  1  0.49484662  0.62999439  0.24423003  1
  O  O214  1  0.49542227  0.62264533  0.73707795  1
  O  O215  1  0.98245233  0.12420568  0.25501271  1
  O  O216  1  0.98917612  0.13111774  0.75497033  1
  O  O217  1  0.99258611  0.62079612  0.23806445  1
  O  O218  1  0.99647207  0.63096532  0.74329166  1
  O  O219  1  0.36748403  0.25026125  0.00828092  1
  O  O220  1  0.36948682  0.25799221  0.50701149  1
  O  O221  1  0.37955723  0.75504848  0.01067900  1
  O  O222  1  0.36028938  0.74757734  0.49469284  1
  O  O223  1  0.86713117  0.25940793  -0.00639181  1
  O  O224  1  0.88259495  0.24860113  0.51271697  1
  O  O225  1  0.86098937  0.75059246  -0.00525051  1
  O  O226  1  0.86434468  0.74455126  0.50789521  1
  O  O227  1  0.13150243  0.24189412  0.50058585  1
  O  O228  1  0.13712612  0.25048793  0.99875493  1
  O  O229  1  0.13380926  0.74009516  0.49400023  1
  O  O230  1  0.12020098  0.73526390  1.00164798  1
  O  O231  1  0.62188343  0.23557647  0.50171839  1
  O  O232  1  0.63214409  0.24289181  0.99540713  1
  O  O233  1  0.62847575  0.74584610  0.49389173  1
  O  O234  1  0.63427845  0.74273404  0.99316050  1
  O  O235  1  0.49141077  0.24928105  0.13587714  1
  O  O236  1  0.48977326  0.23951601  0.62037080  1
  O  O237  1  0.49327844  0.74395513  0.13077938  1
  O  O238  1  0.50471445  0.73588357  0.62403404  1
  O  O239  1  1.00169060  0.24652427  0.13322156  1
  O  O240  1  0.99027369  0.25328882  0.63711358  1
  O  O241  1  1.00052210  0.73777913  0.12094674  1
  O  O242  1  0.99427955  0.74379470  0.62860417  1
  O  O243  1  0.00300741  0.26075015  0.36597666  1
  O  O244  1  0.00214221  0.25268746  0.86198292  1
  O  O245  1  0.01331580  0.75200730  0.38055206  1
  O  O246  1  0.00759883  0.75816892  0.86822953  1
  O  O247  1  0.49473601  0.26134868  0.36644977  1
  O  O248  1  0.51519075  0.24881088  0.87655052  1
  O  O249  1  0.51077718  0.74703750  0.36986823  1
  O  O250  1  0.50769505  0.76274898  0.87802936  1
  O  O251  1  0.24408562  0.13098361  0.49102156  1
  O  O252  1  0.24970542  0.13438999  0.98903430  1
  O  O253  1  0.24557751  0.63529117  0.49698520  1
  O  O254  1  0.23415660  0.62214727  1.00410129  1
  O  O255  1  0.73328111  0.11698412  0.49605593  1
  O  O256  1  0.74549976  0.12902716  0.99395876  1
  O  O257  1  0.73718820  0.63702136  0.50244358  1
  O  O258  1  0.74496777  0.63046649  0.99684178  1
  O  O259  1  0.25521054  0.36173182  -0.00603235  1
  O  O260  1  0.25684065  0.36705867  0.50129888  1
  O  O261  1  0.26189932  0.87653007  0.00889167  1
  O  O262  1  0.24505829  0.86264902  0.50657296  1
  O  O263  1  0.75757411  0.36576919  0.00308931  1
  O  O264  1  0.75058071  0.37825815  0.51285427  1
  O  O265  1  0.75116337  0.86840808  0.00769045  1
  O  O266  1  0.74532290  0.86449623  0.50807698  1
  O  O267  1  0.13247950  0.49443715  0.24280938  1
  O  O268  1  0.11972833  0.49208708  0.74039799  1
  O  O269  1  0.12008671  0.99219651  0.23826497  1
  O  O270  1  0.12124454  0.99384068  0.73809133  1
  O  O271  1  0.63307408  0.49437134  0.24601554  1
  O  O272  1  0.63140803  0.49337223  0.74285133  1
  O  O273  1  0.62600760  0.99429105  0.24762146  1
  O  O274  1  0.64026820  1.00628024  0.74523986  1
  O  O275  1  0.38322818  0.00819595  0.26403712  1
  O  O276  1  0.37296102  0.01376138  0.75063952  1
  O  O277  1  0.36870640  0.50505361  0.24848449  1
  O  O278  1  0.37804923  0.50757842  0.75854795  1
  O  O279  1  0.86723984  0.00898114  0.25939664  1
  O  O280  1  0.86650840  0.01203465  0.74405480  1
  O  O281  1  0.86811453  0.50668736  0.25846744  1
  O  O282  1  0.87201077  0.50335451  0.75465880  1
  O  O283  1  0.11931519  0.37730930  0.36825042  1
  O  O284  1  0.12284305  0.37532328  0.86592754  1
  O  O285  1  0.12625486  0.86816429  0.36469528  1
  O  O286  1  0.11939164  0.87819030  0.86601597  1
  O  O287  1  0.61956781  0.37776176  0.36321782  1
  O  O288  1  0.62837067  0.36544266  0.86609764  1
  O  O289  1  0.62897595  0.86761686  0.36561057  1
  O  O290  1  0.61118201  0.86738569  0.88040237  1
  O  O291  1  0.36774516  0.13040914  0.14007926  1
  O  O292  1  0.37954507  0.12980879  0.62941754  1
  O  O293  1  0.37875417  0.63138192  0.12780230  1
  O  O294  1  0.38986538  0.61859444  0.63379944  1
  O  O295  1  0.87008670  0.11812861  0.14353575  1
  O  O296  1  0.86800837  0.13329785  0.63490921  1
  O  O297  1  0.88570025  0.62026332  0.13372766  1
  O  O298  1  0.88151565  0.63147413  0.62805077  1
  O  O299  1  0.25773136  0.24508346  0.11021502  1
  O  O300  1  0.25756593  0.24946814  0.61323653  1
  O  O301  1  0.25988351  0.75638330  0.12777148  1
  O  O302  1  0.24657568  0.76087973  0.61071981  1
  O  O303  1  0.74771661  0.24960166  0.11139629  1
  O  O304  1  0.76101970  0.25790073  0.63025084  1
  O  O305  1  0.74294245  0.76002462  0.11592213  1
  O  O306  1  0.75741952  0.75535829  0.61999994  1
  O  O307  1  0.24893723  0.24297515  0.38695019  1
  O  O308  1  0.25051795  0.24112199  0.88710551  1
  O  O309  1  0.24141228  0.74578159  0.38398280  1
  O  O310  1  0.24400463  0.74093260  0.87100896  1
  O  O311  1  0.75363120  0.23767769  0.38083485  1
  O  O312  1  0.74136560  0.24171636  0.88456213  1
  O  O313  1  0.73874081  0.74878491  0.38346134  1
  O  O314  1  0.74384898  0.74444495  0.88137222  1
  O  O315  1  0.00251589  0.11905175  -0.00110824  1
  O  O316  1  0.01339332  0.11865296  0.49205780  1
  O  O317  1  0.00588282  0.61846187  0.00695797  1
  O  O318  1  0.00959195  0.63078257  0.51000464  1
  O  O319  1  0.51286640  0.12322046  -0.00451942  1
  O  O320  1  0.50838436  0.11983193  0.50554515  1
  O  O321  1  0.50855308  0.62477856  0.00572917  1
  O  O322  1  0.50872922  0.62284471  0.50985005  1
  O  O323  1  0.49424073  0.37453720  0.49297870  1
  O  O324  1  0.49683019  0.37670759  0.99559058  1
  O  O325  1  0.50065616  0.88819510  0.50372968  1
  O  O326  1  0.48680355  0.87565937  0.99565149  1
  O  O327  1  1.00117606  0.37365676  0.48785082  1
  O  O328  1  0.99437529  0.38294510  0.99802449  1
  O  O329  1  1.00527782  0.88380154  0.49654549  1
  O  O330  1  0.99710105  0.88206511  0.99195290  1
  O  O331  1  0.49781745  0.48602534  0.37639386  1
  O  O332  1  0.48814920  0.49660437  0.87454458  1
  O  O333  1  0.48919628  1.00025092  0.38659053  1
  O  O334  1  0.49928189  0.98703010  0.87806970  1
  O  O335  1  0.99156022  0.49372475  0.37156877  1
  O  O336  1  0.99404437  0.50043165  0.88743812  1
  O  O337  1  0.99065584  0.99594292  0.38344956  1
  O  O338  1  1.00527229  0.99255809  0.88521437  1
  O  O339  1  0.00587333  0.00662268  0.11786994  1
  O  O340  1  0.01028444  -0.00359704  0.61541318  1
  O  O341  1  0.00754180  0.50736058  0.11466335  1
  O  O342  1  0.00632792  0.51228063  0.62674863  1
  O  O343  1  0.51192478  -0.00409702  0.12473964  1
  O  O344  1  0.49911236  0.00732688  0.61289847  1
  O  O345  1  0.50886407  0.50740256  0.12503728  1
  O  O346  1  0.51348460  0.50442453  0.62242765  1
  O  O347  1  0.24521503  0.38820319  0.25795033  1
  O  O348  1  0.23465011  0.36661871  0.74503624  1
  O  O349  1  0.23860826  0.87377493  0.23514120  1
  O  O350  1  0.24050215  0.87164925  0.73923418  1
  O  O351  1  0.74480988  0.38048725  0.25061475  1
  O  O352  1  0.74366600  0.37970505  0.74056405  1
  O  O353  1  0.73755967  0.87946507  0.24431697  1
  O  O354  1  0.75699027  0.88388267  0.74405467  1
  O  O355  1  0.25721065  0.13060605  0.26405093  1
  O  O356  1  0.25675987  0.13242846  0.76482309  1
  O  O357  1  0.25407572  0.61614228  0.25433345  1
  O  O358  1  0.26668787  0.62656531  0.74189004  1
  O  O359  1  0.75482605  0.12059485  0.26084804  1
  O  O360  1  0.75670949  0.11770713  0.75820024  1
  O  O361  1  0.75701896  0.61747619  0.25082262  1
  O  O362  1  0.75743913  0.61736011  0.75359817  1
  O  O363  1  0.36898110  0.12029648  0.36764315  1
  O  O364  1  0.36797071  0.12485875  0.86738472  1
  O  O365  1  0.37053144  0.62278753  0.36786344  1
  O  O366  1  0.37907491  0.61858779  0.85925472  1
  O  O367  1  0.86610970  0.11602974  0.37100760  1
  O  O368  1  0.86203709  0.12974511  0.86622871  1
  O  O369  1  0.87471770  0.61956469  0.36776413  1
  O  O370  1  0.87034403  0.61883331  0.87004461  1
  O  O371  1  0.12215301  0.38918513  0.13224226  1
  O  O372  1  0.12439883  0.38637414  0.62892294  1
  O  O373  1  0.13040116  0.87941529  0.12887144  1
  O  O374  1  0.13160770  0.88259510  0.63176916  1
  O  O375  1  0.62689961  0.38166696  0.13717072  1
  O  O376  1  0.63075867  0.37923548  0.62920990  1
  O  O377  1  0.63115533  0.88055898  0.13135698  1
  O  O378  1  0.63798485  0.87462694  0.62675293  1
  O  O379  1  0.13364316  0.26704032  0.25054810  1
  O  O380  1  0.11588742  0.25562937  0.74717069  1
  O  O381  1  0.13041621  0.75704883  0.25968508  1
  O  O382  1  0.11757006  0.76099456  0.74613526  1
  O  O383  1  0.61769364  0.25696439  0.24547995  1
  O  O384  1  0.63394546  0.25606588  0.75866785  1
  O  O385  1  0.62085865  0.75638958  0.25758408  1
  O  O386  1  0.63180089  0.74567545  0.76391285  1
  O  O387  1  0.38043608  0.24351967  0.24417555  1
  O  O388  1  0.37074956  0.24151320  0.73786622  1
  O  O389  1  0.37804782  0.74490170  0.24218672  1
  O  O390  1  0.37857552  0.73720709  0.74915076  1
  O  O391  1  0.86945162  0.23444069  0.25544962  1
  O  O392  1  0.88038877  0.24202977  0.74406881  1
  O  O393  1  0.86791137  0.73734620  0.25614818  1
  O  O394  1  0.88179499  0.74295315  0.74185250  1
  O  O395  1  0.37560028  0.48665962  0.50145349  1
  O  O396  1  0.37795353  0.49964139  0.98543208  1
  O  O397  1  0.38711773  1.00529121  0.48738272  1
  O  O398  1  0.37764997  0.99139792  0.99862495  1
  O  O399  1  0.86770498  0.50206574  0.48536098  1
  O  O400  1  0.88200705  0.49540844  0.99607628  1
  O  O401  1  0.88606648  1.00638569  0.49424334  1
  O  O402  1  0.88664213  0.99810470  1.00562947  1
  O  O403  1  0.11414179  0.00042608  0.01257954  1
  O  O404  1  0.11747554  0.00465166  0.50430848  1
  O  O405  1  0.11967291  0.50523402  0.00574600  1
  O  O406  1  0.12982863  0.51551859  0.50610549  1
  O  O407  1  0.62456908  0.00753607  0.00947622  1
  O  O408  1  0.61038763  0.00595965  0.50136696  1
  O  O409  1  0.62692458  0.50755302  0.00762743  1
  O  O410  1  0.62630495  0.50878730  0.50641253  1
  O  O411  1  0.37553716  0.36189340  0.12696270  1
  O  O412  1  0.37584110  0.36809253  0.62027125  1
  O  O413  1  0.36778330  0.86869567  0.12085319  1
  O  O414  1  0.36090571  0.88044546  0.62766769  1
  O  O415  1  0.87475022  0.38370224  0.11308430  1
  O  O416  1  0.86802053  0.36836610  0.62199768  1
  O  O417  1  0.85969274  0.88067301  0.12818636  1
  O  O418  1  0.86873471  0.86276106  0.62888921  1
  O  O419  1  0.13370997  0.12390109  0.38015190  1
  O  O420  1  0.13659891  0.12869718  0.87536929  1
  O  O421  1  0.12947551  0.63014215  0.38052776  1
  O  O422  1  0.12394736  0.62157181  0.89087851  1
  O  O423  1  0.63081480  0.12226144  0.38811205  1
  O  O424  1  0.63389326  0.12921023  0.88145646  1
  O  O425  1  0.62541854  0.63129764  0.38374176  1
  O  O426  1  0.62909334  0.62971995  0.88018335  1
