# generated using pymatgen
data_V85Zn86O256
_symmetry_space_group_name_H-M   'P 1'
_cell_length_a   16.93907050
_cell_length_b   16.95535587
_cell_length_c   16.94999240
_cell_angle_alpha   89.95131575
_cell_angle_beta   89.98082173
_cell_angle_gamma   89.95328795
_symmetry_Int_Tables_number   1
_chemical_formula_structural   V85Zn86O256
_chemical_formula_sum   'V85 Zn86 O256'
_cell_volume   4868.16923665
_cell_formula_units_Z   1
loop_
 _symmetry_equiv_pos_site_id
 _symmetry_equiv_pos_as_xyz
  1  'x, y, z'
loop_
 _atom_site_type_symbol
 _atom_site_label
 _atom_site_symmetry_multiplicity
 _atom_site_fract_x
 _atom_site_fract_y
 _atom_site_fract_z
 _atom_site_occupancy
  V  V0  1  0.12640977  0.12117159  -0.00092951  1
  V  V1  1  0.62488891  0.87385754  0.74844271  1
  V  V2  1  0.50965276  0.37029326  0.88039576  1
  V  V3  1  0.25199411  0.12733596  0.87860386  1
  V  V4  1  0.87886531  0.62599734  0.73822446  1
  V  V5  1  0.74933377  0.62444353  0.87404499  1
  V  V6  1  0.24133506  0.00296639  0.74083870  1
  V  V7  1  0.12689723  0.74927513  0.88888071  1
  V  V8  1  -0.00344418  0.00110525  -0.00035342  1
  V  V9  1  0.24777234  0.50309808  0.27517364  1
  V  V10  1  0.00290942  0.50810381  0.50653992  1
  V  V11  1  0.37505398  0.00024709  0.87336383  1
  V  V12  1  0.37781136  -0.00399717  0.37295783  1
  V  V13  1  0.75128571  0.49654912  0.24885268  1
  V  V14  1  0.36879606  0.49198542  0.86448674  1
  V  V15  1  0.14092185  0.34953639  0.23150322  1
  V  V16  1  0.87218022  0.87676360  -0.00272019  1
  V  V17  1  0.24756789  0.87229970  0.12140912  1
  V  V18  1  -0.00026314  0.37379466  0.86818594  1
  V  V19  1  0.74977058  0.75043822  0.49856596  1
  V  V20  1  0.74836906  0.49987066  0.74775634  1
  V  V21  1  0.14661965  0.38021492  0.74557401  1
  V  V22  1  0.25669213  0.25647631  0.50436091  1
  V  V23  1  0.00460059  0.62912299  0.11810281  1
  V  V24  1  0.62774154  0.12379959  0.49689974  1
  V  V25  1  0.62501329  0.00175685  0.12851805  1
  V  V26  1  0.12303574  -0.00157323  0.12745072  1
  V  V27  1  0.12391223  0.12569915  0.51905401  1
  V  V28  1  0.36779967  0.63485291  0.75094537  1
  V  V29  1  0.37204131  0.87666871  0.00168573  1
  V  V30  1  0.50220181  0.00182809  0.00098530  1
  V  V31  1  0.50023341  0.12574456  0.62331566  1
  V  V32  1  0.75452673  0.25096256  0.50019177  1
  V  V33  1  0.87680039  0.62326177  0.24682775  1
  V  V34  1  0.62485412  -0.00283750  0.62495811  1
  V  V35  1  0.62258181  0.62498145  0.49503907  1
  V  V36  1  0.75750504  0.12127444  0.37446321  1
  V  V37  1  0.62323760  0.75008001  0.87390041  1
  V  V38  1  0.75301354  -0.00081032  0.75208850  1
  V  V39  1  0.75164120  0.37034447  0.12600938  1
  V  V40  1  0.49851854  0.62357371  0.12684522  1
  V  V41  1  0.74754489  0.62951578  0.37183913  1
  V  V42  1  0.51033427  0.24896574  0.75484313  1
  V  V43  1  0.48887165  0.38022252  0.37593812  1
  V  V44  1  0.36864849  0.62377698  0.25709172  1
  V  V45  1  0.62208742  0.36805523  0.24899687  1
  V  V46  1  0.51248488  0.75261029  0.25463136  1
  V  V47  1  0.37044700  0.74842488  0.12560790  1
  V  V48  1  0.49820810  0.86921815  0.87424190  1
  V  V49  1  0.00709146  0.50386525  -0.00238639  1
  V  V50  1  0.62326584  0.49597238  0.12394450  1
  V  V51  1  0.87996602  0.37477756  0.00073233  1
  V  V52  1  0.01409285  -0.00750205  0.50089083  1
  V  V53  1  0.37849200  0.26624066  0.62175440  1
  V  V54  1  0.48875590  0.49266005  0.00270826  1
  V  V55  1  0.12039521  0.87802183  0.26124650  1
  V  V56  1  0.25419130  0.12300974  0.37636973  1
  V  V57  1  -0.00205272  0.75447102  0.26007115  1
  V  V58  1  0.12165728  0.24869265  0.37789540  1
  V  V59  1  0.13774838  0.26212785  0.88739188  1
  V  V60  1  0.88227200  0.12913720  0.74402982  1
  V  V61  1  0.87605701  0.50218194  0.87416307  1
  V  V62  1  0.74696419  0.13537207  0.87422305  1
  V  V63  1  0.87800669  0.49549985  0.37257219  1
  V  V64  1  0.61992626  0.62292205  -0.00164937  1
  V  V65  1  0.89192616  0.25218696  0.12749989  1
  V  V66  1  0.13685949  0.74154525  0.37655832  1
  V  V67  1  0.48240311  0.24436976  0.25001855  1
  V  V68  1  0.51445242  0.87134869  0.36952320  1
  V  V69  1  0.87478715  0.75081163  0.12378978  1
  V  V70  1  0.25291890  0.00208337  0.25160981  1
  V  V71  1  0.62467839  0.49987301  0.62107378  1
  V  V72  1  0.13412959  0.50622850  0.12641183  1
  V  V73  1  0.25718090  0.74291537  0.51574378  1
  V  V74  1  0.00581633  0.36978856  0.36847146  1
  V  V75  1  0.00710135  0.74876249  0.73997634  1
  V  V76  1  0.74168630  0.87475672  0.12722927  1
  V  V77  1  0.88355680  0.12698501  0.25125610  1
  V  V78  1  0.50033863  -0.00326676  0.49717072  1
  V  V79  1  0.87722949  0.88303831  0.48730152  1
  V  V80  1  0.75465793  -0.00189671  0.25210777  1
  V  V81  1  0.48717678  0.12632691  0.12969387  1
  V  V82  1  0.37726469  0.12642593  0.74738864  1
  V  V83  1  0.74832116  0.74902770  -0.00086839  1
  V  V84  1  0.62355804  0.13768156  -0.00076674  1
  Zn  Zn85  1  0.24103194  0.62450302  0.88645201  1
  Zn  Zn86  1  0.62402861  0.24884226  0.37229390  1
  Zn  Zn87  1  0.87917225  0.75076849  0.61885994  1
  Zn  Zn88  1  0.38106774  0.86261225  0.50355473  1
  Zn  Zn89  1  0.24980168  0.87618601  0.62151426  1
  Zn  Zn90  1  0.75405336  0.87187969  0.62411006  1
  Zn  Zn91  1  0.00386962  0.12828016  0.13025455  1
  Zn  Zn92  1  0.75225239  0.37388833  0.62125222  1
  Zn  Zn93  1  0.11870599  0.63068361  0.51517402  1
  Zn  Zn94  1  0.28735006  0.31539073  0.06532789  1
  Zn  Zn95  1  0.12081381  0.88011492  0.74465938  1
  Zn  Zn96  1  0.48312794  0.48241512  0.50620053  1
  Zn  Zn97  1  0.13361134  0.50881077  0.64076733  1
  Zn  Zn98  1  0.62880215  0.37233317  0.75044890  1
  Zn  Zn99  1  0.88015003  0.37212404  0.49974256  1
  Zn  Zn100  1  0.87591563  0.00302177  0.87304903  1
  Zn  Zn101  1  0.49417120  0.75251915  0.73580665  1
  Zn  Zn102  1  0.01249969  0.24749033  0.74190112  1
  Zn  Zn103  1  0.49292556  0.62505138  0.62570073  1
  Zn  Zn104  1  -0.00019014  0.87555854  0.86954706  1
  Zn  Zn105  1  0.74976220  0.25347004  -0.00284850  1
  Zn  Zn106  1  0.88762555  0.25028251  0.62002472  1
  Zn  Zn107  1  0.18752634  0.18219300  0.19036515  1
  Zn  Zn108  1  0.19236030  0.19750831  0.69206060  1
  Zn  Zn109  1  0.18653279  0.68795800  0.18987975  1
  Zn  Zn110  1  0.18795368  0.68152519  0.69303884  1
  Zn  Zn111  1  0.68790234  0.18773145  0.18550765  1
  Zn  Zn112  1  0.69106910  0.18442411  0.68378672  1
  Zn  Zn113  1  0.68760677  0.68398080  0.18532938  1
  Zn  Zn114  1  0.68467456  0.68750981  0.68257955  1
  Zn  Zn115  1  0.30799483  0.31432310  0.31655063  1
  Zn  Zn116  1  0.32185531  0.31100160  0.81543679  1
  Zn  Zn117  1  0.31785027  0.81442502  0.31293737  1
  Zn  Zn118  1  0.30663054  0.81433254  0.81312086  1
  Zn  Zn119  1  0.81477244  0.30762243  0.31395436  1
  Zn  Zn120  1  0.81365837  0.31312678  0.81071227  1
  Zn  Zn121  1  0.81050565  0.81338298  0.31152613  1
  Zn  Zn122  1  0.81489556  0.81065314  0.81074886  1
  Zn  Zn123  1  0.20622311  0.45693758  0.47499213  1
  Zn  Zn124  1  0.18728952  0.43943263  0.93938368  1
  Zn  Zn125  1  0.18879174  0.93280362  0.44211762  1
  Zn  Zn126  1  0.18509620  0.93435313  0.93148065  1
  Zn  Zn127  1  0.68518084  0.43684942  0.43431502  1
  Zn  Zn128  1  0.68551710  0.43629545  0.93905872  1
  Zn  Zn129  1  0.69126870  0.93673256  0.43505265  1
  Zn  Zn130  1  0.68589379  0.94245424  0.93712822  1
  Zn  Zn131  1  0.31079382  0.06316382  0.06163565  1
  Zn  Zn132  1  0.31735328  0.06506825  0.55945322  1
  Zn  Zn133  1  0.31025670  0.56176128  0.06057777  1
  Zn  Zn134  1  0.30665882  0.55809656  0.57062017  1
  Zn  Zn135  1  0.81258983  0.06686558  0.06390316  1
  Zn  Zn136  1  0.81639804  0.05801321  0.56506312  1
  Zn  Zn137  1  0.81442819  0.56073356  0.06093914  1
  Zn  Zn138  1  0.81291995  0.55973855  0.55836833  1
  Zn  Zn139  1  0.42362475  0.43537311  0.19118849  1
  Zn  Zn140  1  0.44432262  0.43894932  0.69153455  1
  Zn  Zn141  1  0.43750174  0.93649476  0.19020476  1
  Zn  Zn142  1  0.43217443  0.93489771  0.68453488  1
  Zn  Zn143  1  0.94958840  0.43461757  0.18739862  1
  Zn  Zn144  1  0.93548300  0.43379131  0.68284010  1
  Zn  Zn145  1  0.93519399  0.93806538  0.18692696  1
  Zn  Zn146  1  0.93869828  0.93596236  0.67611847  1
  Zn  Zn147  1  0.06196868  0.06118624  0.32413015  1
  Zn  Zn148  1  0.06175727  0.06406728  0.81720098  1
  Zn  Zn149  1  0.06305250  0.56230006  0.31162228  1
  Zn  Zn150  1  0.06587337  0.56722706  0.81074625  1
  Zn  Zn151  1  0.56642266  0.06225493  0.31073993  1
  Zn  Zn152  1  0.56384421  0.06184157  0.81466010  1
  Zn  Zn153  1  0.56081522  0.56132755  0.31157420  1
  Zn  Zn154  1  0.55541642  0.56313436  0.81114732  1
  Zn  Zn155  1  0.43695451  0.18700946  0.43357089  1
  Zn  Zn156  1  0.42970563  0.19252345  0.94139071  1
  Zn  Zn157  1  0.40949139  0.64675088  0.46072887  1
  Zn  Zn158  1  0.40082740  0.66957025  0.95526826  1
  Zn  Zn159  1  0.94126335  0.18055729  0.44044755  1
  Zn  Zn160  1  0.93863401  0.18993168  0.93428510  1
  Zn  Zn161  1  0.93365526  0.68809754  0.43516327  1
  Zn  Zn162  1  0.94057782  0.68953278  0.93053935  1
  Zn  Zn163  1  0.10982959  0.31582757  0.06184088  1
  Zn  Zn164  1  0.06136843  0.31670698  0.56296582  1
  Zn  Zn165  1  0.05953305  0.81698379  0.06618709  1
  Zn  Zn166  1  0.06861644  0.81934313  0.56584458  1
  Zn  Zn167  1  0.45129638  0.31109669  0.06506268  1
  Zn  Zn168  1  0.56666533  0.31137748  0.56194634  1
  Zn  Zn169  1  0.55831247  0.81106111  0.06303255  1
  Zn  Zn170  1  0.56361176  0.80738793  0.55806010  1
  O  O171  1  0.12390266  0.11632445  0.11675585  1
  O  O172  1  0.13336187  0.12987659  0.61695561  1
  O  O173  1  0.11377791  0.62135228  0.12802878  1
  O  O174  1  0.12070361  0.62054369  0.62942039  1
  O  O175  1  0.62011052  0.11744672  0.11815290  1
  O  O176  1  0.62091716  0.11731342  0.61615097  1
  O  O177  1  0.61877066  0.61675268  0.11884297  1
  O  O178  1  0.63019944  0.61272585  0.61289639  1
  O  O179  1  0.39000618  0.37259162  0.37187876  1
  O  O180  1  0.38836001  0.38509309  0.87310866  1
  O  O181  1  0.38638862  0.88155536  0.37847620  1
  O  O182  1  0.38061654  0.87929750  0.88073784  1
  O  O183  1  0.88485942  0.37981757  0.37291982  1
  O  O184  1  0.88059186  0.38135749  0.87973895  1
  O  O185  1  0.87519341  0.86878575  0.38799485  1
  O  O186  1  0.87229708  0.87726214  0.88843219  1
  O  O187  1  0.25659317  0.00186425  0.37115465  1
  O  O188  1  0.25535234  0.01076135  0.86922447  1
  O  O189  1  0.24319065  0.50319618  0.37273289  1
  O  O190  1  0.26702686  0.49921270  0.88481719  1
  O  O191  1  0.74686138  0.00753766  0.36260431  1
  O  O192  1  0.75050818  0.00711638  0.86343737  1
  O  O193  1  0.76222620  0.50249176  0.36847533  1
  O  O194  1  0.75420560  0.50514883  0.86867095  1
  O  O195  1  0.23506349  0.49961155  0.11813025  1
  O  O196  1  0.22859161  0.48349422  0.58348706  1
  O  O197  1  0.24405113  0.99490495  0.13437094  1
  O  O198  1  0.25459165  1.01125752  0.64064090  1
  O  O199  1  0.74865618  0.48891967  0.12923790  1
  O  O200  1  0.74540052  0.49918006  0.63229830  1
  O  O201  1  0.74362480  0.99342721  0.12784788  1
  O  O202  1  0.74264571  0.99994815  0.63765034  1
  O  O203  1  0.01467492  0.37656068  0.26345116  1
  O  O204  1  -0.00311022  0.37636462  0.76271195  1
  O  O205  1  0.00790157  0.86653751  0.24176004  1
  O  O206  1  -0.00492950  0.86308847  0.74915363  1
  O  O207  1  0.50385786  0.36348209  0.25508278  1
  O  O208  1  0.50590879  0.36555917  0.75894430  1
  O  O209  1  0.49939064  0.86172529  0.25268262  1
  O  O210  1  0.50569296  0.87519940  0.75745444  1
  O  O211  1  0.50347136  0.13679990  0.24619190  1
  O  O212  1  0.49680132  0.13005776  0.74646218  1
  O  O213  1  0.49419869  0.63196467  0.24443861  1
  O  O214  1  0.48857833  0.62936864  0.74847890  1
  O  O215  1  0.98684198  0.11539975  0.25143740  1
  O  O216  1  0.98492676  0.12587672  0.75819771  1
  O  O217  1  0.99416189  0.63291972  0.24042449  1
  O  O218  1  0.99026088  0.63821261  0.75591069  1
  O  O219  1  0.37077230  0.24431658  0.01844878  1
  O  O220  1  0.36530489  0.23963565  0.50781668  1
  O  O221  1  0.38913995  0.76529952  0.01912315  1
  O  O222  1  0.35975581  0.74424471  0.49602019  1
  O  O223  1  0.87394940  0.25760993  0.00740032  1
  O  O224  1  0.86744329  0.24744671  0.49921525  1
  O  O225  1  0.86927879  0.75738432  0.00396527  1
  O  O226  1  0.86698517  0.75646503  0.49813091  1
  O  O227  1  0.13723973  0.24101430  0.49828653  1
  O  O228  1  0.10510972  0.22644145  0.99034261  1
  O  O229  1  0.12644392  0.75145859  0.48627774  1
  O  O230  1  0.11610229  0.75738780  0.98792357  1
  O  O231  1  0.63104255  0.23562761  0.49750446  1
  O  O232  1  0.62901215  0.23616059  1.00521543  1
  O  O233  1  0.64297016  0.74312315  0.49708456  1
  O  O234  1  0.62821560  0.74345044  0.99461991  1
  O  O235  1  0.50314452  0.23979822  0.14222718  1
  O  O236  1  0.49694256  0.24360662  0.62931400  1
  O  O237  1  0.49436908  0.74442635  0.13462449  1
  O  O238  1  0.50801462  0.73908525  0.62392470  1
  O  O239  1  0.99291430  0.25009603  0.12083574  1
  O  O240  1  1.00130724  0.25069858  0.62941673  1
  O  O241  1  0.99503624  0.74434692  0.13131895  1
  O  O242  1  0.99882726  0.75112530  0.63643324  1
  O  O243  1  0.01026159  0.25672554  0.38538399  1
  O  O244  1  0.01102262  0.26026907  0.87215997  1
  O  O245  1  0.00468416  0.74780471  0.36243977  1
  O  O246  1  0.00725058  0.75518208  0.86532291  1
  O  O247  1  0.50238541  0.25392377  0.36318058  1
  O  O248  1  0.49375150  0.25679628  0.86624475  1
  O  O249  1  0.49866855  0.75790670  0.35766027  1
  O  O250  1  0.50525687  0.76461328  0.87731219  1
  O  O251  1  0.24179460  0.12838441  0.49420445  1
  O  O252  1  0.23874876  0.11835481  0.99188747  1
  O  O253  1  0.23928830  0.64223106  0.49946509  1
  O  O254  1  0.29093609  0.64149476  0.98705941  1
  O  O255  1  0.74657049  0.12557289  0.49250362  1
  O  O256  1  0.74322785  0.12537134  0.99141325  1
  O  O257  1  0.74759693  0.62974501  0.48950316  1
  O  O258  1  0.74312358  0.62941069  0.99546188  1
  O  O259  1  0.20259405  0.34121971  -0.01005703  1
  O  O260  1  0.25386877  0.35232934  0.48345135  1
  O  O261  1  0.25379189  0.88519764  0.01397391  1
  O  O262  1  0.25164684  0.85591649  0.49642079  1
  O  O263  1  0.75842160  0.37627840  0.00904617  1
  O  O264  1  0.75124310  0.36281147  0.49447508  1
  O  O265  1  0.75392012  0.87133722  0.00542926  1
  O  O266  1  0.75818731  0.86697251  0.49673771  1
  O  O267  1  0.13828162  0.50254727  0.24522698  1
  O  O268  1  0.12586014  0.48494923  0.75627463  1
  O  O269  1  0.12827890  0.99394019  0.24998692  1
  O  O270  1  0.13872168  1.00530932  0.75592350  1
  O  O271  1  0.63134798  0.49267499  0.24274907  1
  O  O272  1  0.63338872  0.50267019  0.74150871  1
  O  O273  1  0.63720637  1.00650437  0.23577536  1
  O  O274  1  0.63102571  0.99208884  0.74653985  1
  O  O275  1  0.36650065  -0.00600788  0.26243742  1
  O  O276  1  0.37066038  0.00975664  0.75739094  1
  O  O277  1  0.35688726  0.50812000  0.25106581  1
  O  O278  1  0.37624283  0.49997878  0.76167563  1
  O  O279  1  0.86185284  0.00946196  0.24020322  1
  O  O280  1  0.86819344  0.00861051  0.74943885  1
  O  O281  1  0.87176115  0.50200595  0.25312582  1
  O  O282  1  0.86992861  0.50758738  0.75402746  1
  O  O283  1  0.12393276  0.35713611  0.36539794  1
  O  O284  1  0.11818158  0.37249957  0.86494649  1
  O  O285  1  0.12527658  0.86777208  0.36464512  1
  O  O286  1  0.11992704  0.86692298  0.86654387  1
  O  O287  1  0.62117569  0.37237955  0.36004233  1
  O  O288  1  0.61437580  0.37665900  0.87143203  1
  O  O289  1  0.61397318  0.88149524  0.37104466  1
  O  O290  1  0.61787737  0.87323116  0.86920202  1
  O  O291  1  0.38847855  0.11129350  0.12922728  1
  O  O292  1  0.38474868  0.13027469  0.63046114  1
  O  O293  1  0.38042224  0.63250011  0.13319438  1
  O  O294  1  0.37104632  0.61703196  0.64896360  1
  O  O295  1  0.87732928  0.13547554  0.13207541  1
  O  O296  1  0.86641312  0.12775781  0.64156603  1
  O  O297  1  0.87999411  0.63203828  0.12876484  1
  O  O298  1  0.87172912  0.62489004  0.63589629  1
  O  O299  1  0.19848502  0.28630071  0.14755009  1
  O  O300  1  0.26186298  0.24877206  0.61321823  1
  O  O301  1  0.25665695  0.76153891  0.13234160  1
  O  O302  1  0.24952370  0.74900609  0.61770153  1
  O  O303  1  0.75792703  0.26199070  0.12419255  1
  O  O304  1  0.74924781  0.24907694  0.60922976  1
  O  O305  1  0.75246812  0.75704121  0.11948648  1
  O  O306  1  0.75408528  0.75004041  0.61327723  1
  O  O307  1  0.24613966  0.23839425  0.38109457  1
  O  O308  1  0.24790023  0.23683418  0.87020950  1
  O  O309  1  0.23752448  0.75238939  0.37067851  1
  O  O310  1  0.22993035  0.75559833  0.87362606  1
  O  O311  1  0.74724928  0.24004450  0.38384749  1
  O  O312  1  0.74987366  0.23943156  0.87550421  1
  O  O313  1  0.75569349  0.73613967  0.37735403  1
  O  O314  1  0.74373335  0.74470979  0.88071019  1
  O  O315  1  0.00114721  0.11147827  -0.00011065  1
  O  O316  1  0.02106042  0.12240743  0.50119772  1
  O  O317  1  -0.00945445  0.61903008  0.00922723  1
  O  O318  1  -0.00586637  0.61211839  0.49604790  1
  O  O319  1  0.50626187  0.11993211  0.00848817  1
  O  O320  1  0.51017518  0.11857852  0.49979041  1
  O  O321  1  0.50032581  0.61641658  0.00845973  1
  O  O322  1  0.52175261  0.63609700  0.49080292  1
  O  O323  1  0.50794188  0.37061838  0.48122681  1
  O  O324  1  0.50859120  0.38245070  0.99396203  1
  O  O325  1  0.50312170  0.88057705  0.48819869  1
  O  O326  1  0.49658924  0.88374866  0.99357289  1
  O  O327  1  1.00377331  0.38705740  0.48519529  1
  O  O328  1  0.99674559  0.38627753  0.98719929  1
  O  O329  1  0.99279483  0.88436660  0.49963287  1
  O  O330  1  0.98884013  0.88579272  1.00285956  1
  O  O331  1  0.50291998  0.48232811  0.37131689  1
  O  O332  1  0.49606876  0.48927933  0.88336686  1
  O  O333  1  0.49502580  0.99421711  0.37388749  1
  O  O334  1  0.49493111  0.99094741  0.87957525  1
  O  O335  1  0.98850967  0.49477132  0.37144550  1
  O  O336  1  0.99581014  0.49852065  0.88125608  1
  O  O337  1  0.99513128  1.01038017  0.40092538  1
  O  O338  1  0.99600821  0.99535424  0.88431275  1
  O  O339  1  0.00670420  0.00134888  0.11786177  1
  O  O340  1  -0.01471734  0.00785078  0.59867412  1
  O  O341  1  0.00223384  0.51391864  0.11734897  1
  O  O342  1  0.00390589  0.49252958  0.60791409  1
  O  O343  1  0.50861208  0.00415586  0.12470142  1
  O  O344  1  0.50698280  0.00597590  0.61843534  1
  O  O345  1  0.50237091  0.50301075  0.12065973  1
  O  O346  1  0.51050359  0.50415387  0.62171120  1
  O  O347  1  0.24126867  0.39030155  0.25915574  1
  O  O348  1  0.24546746  0.37341233  0.75400379  1
  O  O349  1  0.24237276  0.88492274  0.24441077  1
  O  O350  1  0.25283944  0.89652230  0.75238348  1
  O  O351  1  0.74480734  0.37666433  0.24530430  1
  O  O352  1  0.74906677  0.38865620  0.75106291  1
  O  O353  1  0.75516289  0.88332568  0.23857193  1
  O  O354  1  0.74478521  0.88277620  0.75069737  1
  O  O355  1  0.24504220  0.10958463  0.25791453  1
  O  O356  1  0.25638390  0.11963386  0.75782820  1
  O  O357  1  0.25463178  0.61183115  0.24534619  1
  O  O358  1  0.26358340  0.62849485  0.76629176  1
  O  O359  1  0.75731644  0.11929464  0.25586835  1
  O  O360  1  0.75410903  0.11869341  0.75751849  1
  O  O361  1  0.75620743  0.61812284  0.25300106  1
  O  O362  1  0.75543800  0.61644268  0.75391185  1
  O  O363  1  0.36188309  0.11614941  0.37782684  1
  O  O364  1  0.36938102  0.12102078  0.86950676  1
  O  O365  1  0.37364712  0.64006217  0.35384281  1
  O  O366  1  0.38768163  0.60363866  0.86203593  1
  O  O367  1  0.86485219  0.12945205  0.36726945  1
  O  O368  1  0.86454543  0.12362068  0.86711946  1
  O  O369  1  0.86825951  0.61562290  0.36549890  1
  O  O370  1  0.86693506  0.61987173  0.86820300  1
  O  O371  1  0.09825981  0.39830078  0.14032993  1
  O  O372  1  0.12465497  0.37273931  0.64587155  1
  O  O373  1  0.13151147  0.87937426  0.13463600  1
  O  O374  1  0.13498958  0.87908919  0.63162000  1
  O  O375  1  0.63671677  0.38027373  0.13663185  1
  O  O376  1  0.62977281  0.38644011  0.62573187  1
  O  O377  1  0.63542224  0.88206563  0.11794028  1
  O  O378  1  0.62893005  0.88121409  0.63107686  1
  O  O379  1  0.12051872  0.24631079  0.26447800  1
  O  O380  1  0.12989808  0.26174546  0.76682255  1
  O  O381  1  0.11851911  0.75756467  0.25803591  1
  O  O382  1  0.11221193  0.75056418  0.75527231  1
  O  O383  1  0.62114426  0.25693358  0.25027793  1
  O  O384  1  0.61378885  0.24777046  0.74330786  1
  O  O385  1  0.61140660  0.74462637  0.24462137  1
  O  O386  1  0.62701611  0.75951655  0.75693459  1
  O  O387  1  0.38358840  0.24954227  0.25224841  1
  O  O388  1  0.38566260  0.24447920  0.74056878  1
  O  O389  1  0.38097236  0.74715705  0.23820133  1
  O  O390  1  0.37690860  0.73860131  0.76159579  1
  O  O391  1  0.87237606  0.23954816  0.24036238  1
  O  O392  1  0.87355515  0.23606133  0.74979152  1
  O  O393  1  0.88124481  0.74672939  0.24264311  1
  O  O394  1  0.88288985  0.74152688  0.74830811  1
  O  O395  1  0.39003066  0.54168239  0.49775816  1
  O  O396  1  0.38678661  0.49913728  0.99120584  1
  O  O397  1  0.38423914  1.00241650  0.48643528  1
  O  O398  1  0.38193575  0.99571709  0.99403568  1
  O  O399  1  0.88431501  0.49739422  0.48867073  1
  O  O400  1  0.88434368  0.49486967  0.99451699  1
  O  O401  1  0.86896626  0.98532525  0.49469757  1
  O  O402  1  0.87918899  0.99363092  1.00098134  1
  O  O403  1  0.11637165  0.00494917  0.00254748  1
  O  O404  1  0.12246646  0.00934170  0.50079673  1
  O  O405  1  0.11290936  0.50179441  0.00700381  1
  O  O406  1  0.10315743  0.51105428  0.47842675  1
  O  O407  1  0.62021600  0.00629381  0.01087197  1
  O  O408  1  0.62293034  0.00782867  0.50326308  1
  O  O409  1  0.61674948  0.50531285  0.00591701  1
  O  O410  1  0.62624994  0.50703370  0.50567489  1
  O  O411  1  0.37183307  0.37558779  0.11494903  1
  O  O412  1  0.38844855  0.36528475  0.62242009  1
  O  O413  1  0.36577810  0.87107943  0.12365790  1
  O  O414  1  0.36500704  0.88466440  0.61422419  1
  O  O415  1  0.87311129  0.37032150  0.12285800  1
  O  O416  1  0.86920240  0.36966384  0.61798027  1
  O  O417  1  0.86422791  0.87079508  0.11459182  1
  O  O418  1  0.87101505  0.87060133  0.60858427  1
  O  O419  1  0.13608155  0.13204311  0.38217785  1
  O  O420  1  0.13419045  0.13266921  0.88079112  1
  O  O421  1  0.12072135  0.64198140  0.37149795  1
  O  O422  1  0.12420714  0.64132133  0.87666448  1
  O  O423  1  0.63650986  0.12430846  0.38132785  1
  O  O424  1  0.63395289  0.11782692  0.88666444  1
  O  O425  1  0.64036153  0.61330983  0.37792279  1
  O  O426  1  0.62865241  0.62926701  0.87978276  1
