# generated using pymatgen
data_V85Zn86O256
_symmetry_space_group_name_H-M   'P 1'
_cell_length_a   16.93772441
_cell_length_b   16.93611832
_cell_length_c   16.94246711
_cell_angle_alpha   90.07531646
_cell_angle_beta   89.98439085
_cell_angle_gamma   90.11909463
_symmetry_Int_Tables_number   1
_chemical_formula_structural   V85Zn86O256
_chemical_formula_sum   'V85 Zn86 O256'
_cell_volume   4860.08945893
_cell_formula_units_Z   1
loop_
 _symmetry_equiv_pos_site_id
 _symmetry_equiv_pos_as_xyz
  1  'x, y, z'
loop_
 _atom_site_type_symbol
 _atom_site_label
 _atom_site_symmetry_multiplicity
 _atom_site_fract_x
 _atom_site_fract_y
 _atom_site_fract_z
 _atom_site_occupancy
  V  V0  1  0.24186322  0.11910790  0.37524513  1
  V  V1  1  0.74362105  0.49678157  0.75298514  1
  V  V2  1  0.87521611  0.12484045  0.26252736  1
  V  V3  1  0.49990103  0.12356718  0.12845696  1
  V  V4  1  0.37429018  0.25550405  0.11342048  1
  V  V5  1  -0.00458610  0.75401535  0.74766626  1
  V  V6  1  0.24515247  0.74425992  0.00093086  1
  V  V7  1  0.36239439  0.62342844  0.25447398  1
  V  V8  1  0.37757607  0.12489840  0.75015504  1
  V  V9  1  0.50633822  0.50211343  0.49683388  1
  V  V10  1  0.75626232  0.87394011  0.62603716  1
  V  V11  1  0.88446277  0.50172929  0.37840114  1
  V  V12  1  0.87704208  0.25464260  0.12142819  1
  V  V13  1  0.12282570  0.35977426  0.74870835  1
  V  V14  1  0.75271882  0.37697297  0.11582792  1
  V  V15  1  0.37210150  0.87546414  0.49789095  1
  V  V16  1  0.62344817  0.49434420  0.62477441  1
  V  V17  1  0.00248515  0.00694684  0.50010514  1
  V  V18  1  0.62348954  0.74906636  0.87579268  1
  V  V19  1  0.88444731  0.37980436  0.50026345  1
  V  V20  1  0.24725433  0.73635029  0.49785636  1
  V  V21  1  0.63039948  0.12146897  0.49174546  1
  V  V22  1  0.12533693  0.01333329  0.62619588  1
  V  V23  1  0.74791454  0.88412894  0.12642516  1
  V  V24  1  0.26112867  0.62452940  0.85924372  1
  V  V25  1  0.87437790  0.87926752  0.49564824  1
  V  V26  1  0.50486019  0.62367055  0.62171961  1
  V  V27  1  0.12007535  0.50536723  0.64286743  1
  V  V28  1  0.74984972  0.37283887  0.62724498  1
  V  V29  1  0.87987538  0.62427856  0.24552732  1
  V  V30  1  0.37428334  0.74435983  0.62793017  1
  V  V31  1  0.49979043  0.87705696  0.87405596  1
  V  V32  1  0.13730015  0.12498340  -0.00679811  1
  V  V33  1  0.62392242  0.87672724  0.74997219  1
  V  V34  1  0.75381153  0.24782670  0.49391050  1
  V  V35  1  0.87733668  0.74899542  0.12625280  1
  V  V36  1  0.62779848  0.12951470  0.00743302  1
  V  V37  1  0.36893465  -0.00168654  0.36270370  1
  V  V38  1  0.49979634  0.74722741  0.25176670  1
  V  V39  1  0.12349402  0.74283683  0.87753809  1
  V  V40  1  0.24576306  0.87367884  0.62207856  1
  V  V41  1  0.87890040  -0.00048522  0.88432971  1
  V  V42  1  -0.00125667  0.11774933  0.11838542  1
  V  V43  1  0.13632845  0.00351315  0.12872863  1
  V  V44  1  0.49901755  0.87386812  0.37450357  1
  V  V45  1  0.24263474  0.36962538  0.10353908  1
  V  V46  1  0.24456286  0.48051330  0.25481892  1
  V  V47  1  0.50899149  -0.00015802  0.00275817  1
  V  V48  1  0.25155945  -0.00376521  0.75479173  1
  V  V49  1  0.74745894  0.74969767  0.00376135  1
  V  V50  1  0.62047607  0.62333953  0.00125280  1
  V  V51  1  0.62170555  0.49935131  0.12525111  1
  V  V52  1  0.37478938  0.00450279  0.87660524  1
  V  V53  1  0.00719517  0.25840072  0.25054996  1
  V  V54  1  0.47570944  0.49467856  -0.00181924  1
  V  V55  1  0.74723770  0.62335197  0.38185912  1
  V  V56  1  0.01147619  0.51152338  -0.00022162  1
  V  V57  1  0.49921441  0.12678545  0.61753882  1
  V  V58  1  0.62794282  0.24766553  0.37211121  1
  V  V59  1  0.00243337  0.87647778  0.88271986  1
  V  V60  1  0.62489164  0.74581358  0.38154235  1
  V  V61  1  0.62620141  0.00080555  0.62268828  1
  V  V62  1  0.37163034  0.87552662  0.00069977  1
  V  V63  1  0.75542716  0.00344379  0.26418012  1
  V  V64  1  0.37275803  0.50343821  0.37896921  1
  V  V65  1  0.37227179  0.75007088  0.12674391  1
  V  V66  1  0.88807772  0.24313627  0.62642460  1
  V  V67  1  0.50051787  0.37180607  0.37389966  1
  V  V68  1  0.75294435  0.00304118  0.75176026  1
  V  V69  1  0.13304866  0.26157592  0.38109328  1
  V  V70  1  0.36641712  0.37026232  0.49863488  1
  V  V71  1  0.49421201  0.62320262  0.12718049  1
  V  V72  1  0.87607608  0.87522827  0.00393406  1
  V  V73  1  0.87181729  0.62370071  0.75094519  1
  V  V74  1  0.36092649  0.24619772  0.61924500  1
  V  V75  1  0.87370089  0.49624734  0.88475444  1
  V  V76  1  -0.00253528  0.88065118  0.37243271  1
  V  V77  1  0.11436448  0.61621094  0.49760030  1
  V  V78  1  0.75284700  0.12774193  0.87953407  1
  V  V79  1  0.12849424  0.74749412  0.37424570  1
  V  V80  1  0.00446021  0.74883881  0.24447631  1
  V  V81  1  0.49743887  0.74221937  0.75123693  1
  V  V82  1  -0.00430260  0.36370136  0.87701375  1
  V  V83  1  0.62565223  0.88076762  0.24744516  1
  V  V84  1  0.74967697  0.49876340  0.25070652  1
  Zn  Zn85  1  0.25062671  0.38446699  0.62891843  1
  Zn  Zn86  1  0.11954577  0.50480205  0.12874741  1
  Zn  Zn87  1  0.62520125  0.25837079  0.86822407  1
  Zn  Zn88  1  0.25213861  0.87948868  0.13415888  1
  Zn  Zn89  1  0.74693969  0.62402530  0.87642786  1
  Zn  Zn90  1  -0.00898974  0.61847481  0.61911426  1
  Zn  Zn91  1  0.62478717  0.37285863  0.24802673  1
  Zn  Zn92  1  0.13084711  0.88565938  0.25489909  1
  Zn  Zn93  1  0.15712895  0.25447144  0.89522682  1
  Zn  Zn94  1  0.49906709  -0.00144655  0.49624003  1
  Zn  Zn95  1  0.36468916  0.12538006  0.24592346  1
  Zn  Zn96  1  0.00786219  0.38214208  0.37193677  1
  Zn  Zn97  1  0.51078466  0.25777995  0.74513294  1
  Zn  Zn98  1  0.74843444  0.74741531  0.50289126  1
  Zn  Zn99  1  0.75256407  0.25701292  -0.00294381  1
  Zn  Zn100  1  0.12853613  0.13463539  0.50890293  1
  Zn  Zn101  1  0.49825480  0.37003994  0.86360096  1
  Zn  Zn102  1  0.12297819  0.87660810  0.75295779  1
  Zn  Zn103  1  0.49765564  0.24911169  0.24777797  1
  Zn  Zn104  1  0.36809259  0.49075986  0.85007526  1
  Zn  Zn105  1  0.87235460  0.74887203  0.62363988  1
  Zn  Zn106  1  0.89083058  0.13666727  0.75519634  1
  Zn  Zn107  1  0.18768390  0.19192640  0.19049362  1
  Zn  Zn108  1  0.20306753  0.19783133  0.72301877  1
  Zn  Zn109  1  0.18479666  0.68320794  0.18446185  1
  Zn  Zn110  1  0.17675076  0.69287138  0.68523311  1
  Zn  Zn111  1  0.69092783  0.18660094  0.18769044  1
  Zn  Zn112  1  0.69573669  0.18582261  0.68370532  1
  Zn  Zn113  1  0.68795986  0.68843499  0.19054294  1
  Zn  Zn114  1  0.68463934  0.68510441  0.68692508  1
  Zn  Zn115  1  0.31649391  0.30347745  0.31166667  1
  Zn  Zn116  1  0.31696692  0.31143545  0.81569580  1
  Zn  Zn117  1  0.30684182  0.81157145  0.31128202  1
  Zn  Zn118  1  0.31257810  0.81313212  0.81233002  1
  Zn  Zn119  1  0.81628188  0.31437888  0.30993707  1
  Zn  Zn120  1  0.81498789  0.31314842  0.80897013  1
  Zn  Zn121  1  0.81333979  0.81201244  0.31369095  1
  Zn  Zn122  1  0.81122800  0.81356789  0.81503854  1
  Zn  Zn123  1  0.19024836  0.44333738  0.44144212  1
  Zn  Zn124  1  0.18568758  0.44210462  0.92650662  1
  Zn  Zn125  1  0.18514370  0.93656522  0.43750492  1
  Zn  Zn126  1  0.18468635  0.94083670  0.94297854  1
  Zn  Zn127  1  0.69003656  0.43449068  0.43888430  1
  Zn  Zn128  1  0.67980767  0.43751610  0.93634687  1
  Zn  Zn129  1  0.68814393  0.93439057  0.43614437  1
  Zn  Zn130  1  0.68753264  0.93943473  0.93836007  1
  Zn  Zn131  1  0.31474896  0.06801607  0.05982752  1
  Zn  Zn132  1  0.30791192  0.06146999  0.55685601  1
  Zn  Zn133  1  0.28215760  0.57042014  0.07279722  1
  Zn  Zn134  1  0.30587987  0.56361506  0.67735562  1
  Zn  Zn135  1  0.81370495  0.06363344  0.06780852  1
  Zn  Zn136  1  0.81478966  0.06247681  0.55767765  1
  Zn  Zn137  1  0.81183632  0.56330047  0.06290986  1
  Zn  Zn138  1  0.81200661  0.56139916  0.56308066  1
  Zn  Zn139  1  0.43251645  0.43427504  0.18701446  1
  Zn  Zn140  1  0.43917385  0.42869095  0.68891626  1
  Zn  Zn141  1  0.43910686  0.93745882  0.18538249  1
  Zn  Zn142  1  0.43892078  0.93682152  0.68462206  1
  Zn  Zn143  1  0.93906157  0.43881518  0.18294308  1
  Zn  Zn144  1  0.93920126  0.43690851  0.69078968  1
  Zn  Zn145  1  0.93934843  0.94055917  0.19041580  1
  Zn  Zn146  1  0.95303223  0.96842437  0.70388423  1
  Zn  Zn147  1  0.06076834  0.06819166  0.31142716  1
  Zn  Zn148  1  0.06111796  0.06344024  0.81442285  1
  Zn  Zn149  1  0.06597301  0.56664261  0.30980627  1
  Zn  Zn150  1  0.05679884  0.56702049  0.81695678  1
  Zn  Zn151  1  0.56199000  0.05907595  0.31183406  1
  Zn  Zn152  1  0.57797739  0.09527747  0.79985295  1
  Zn  Zn153  1  0.56193912  0.56244896  0.31147401  1
  Zn  Zn154  1  0.55773959  0.55653069  0.81388658  1
  Zn  Zn155  1  0.43542989  0.18487613  0.43513084  1
  Zn  Zn156  1  0.43906540  0.18932494  0.93559801  1
  Zn  Zn157  1  0.43615274  0.68529121  0.44037099  1
  Zn  Zn158  1  0.43355791  0.68478696  0.93801348  1
  Zn  Zn159  1  0.94491670  0.19342878  0.43925949  1
  Zn  Zn160  1  0.93821820  0.18683411  0.94350780  1
  Zn  Zn161  1  0.93662650  0.69414920  0.43418807  1
  Zn  Zn162  1  0.93518174  0.68650371  0.93606887  1
  Zn  Zn163  1  0.06165505  0.31407448  0.05818795  1
  Zn  Zn164  1  0.06477745  0.31883667  0.56156509  1
  Zn  Zn165  1  0.06544306  0.81509058  0.06372200  1
  Zn  Zn166  1  0.06037515  0.81499685  0.56130903  1
  Zn  Zn167  1  0.56198112  0.31431065  0.05645291  1
  Zn  Zn168  1  0.56177793  0.31165450  0.56053935  1
  Zn  Zn169  1  0.56038348  0.81294941  0.06561089  1
  Zn  Zn170  1  0.56289353  0.81384862  0.56237227  1
  O  O171  1  0.11756940  0.12029125  0.12100750  1
  O  O172  1  0.13403806  0.11418339  0.62770232  1
  O  O173  1  0.17443590  0.60282149  0.10999741  1
  O  O174  1  0.11688413  0.61810862  0.61961942  1
  O  O175  1  0.61937958  0.12857411  0.11587263  1
  O  O176  1  0.62046158  0.11893593  0.61069903  1
  O  O177  1  0.61700158  0.62177360  0.12073279  1
  O  O178  1  0.61363940  0.61449589  0.62549639  1
  O  O179  1  0.38252069  0.37733675  0.38000777  1
  O  O180  1  0.38241005  0.37975983  0.86942509  1
  O  O181  1  0.37773493  0.87851144  0.38022384  1
  O  O182  1  0.38111528  0.88088994  0.88261812  1
  O  O183  1  0.87442243  0.38565596  0.38201465  1
  O  O184  1  0.88610142  0.38314038  0.86839388  1
  O  O185  1  0.88412617  0.87222266  0.38245282  1
  O  O186  1  0.87854204  0.87849828  0.88626018  1
  O  O187  1  0.25432503  0.00798161  0.37694967  1
  O  O188  1  0.26047445  -0.01012700  0.86606064  1
  O  O189  1  0.26097180  0.49523977  0.36579021  1
  O  O190  1  0.25178101  0.52130594  0.87450136  1
  O  O191  1  0.75169529  -0.00395614  0.36351261  1
  O  O192  1  0.75461337  0.00900087  0.87217971  1
  O  O193  1  0.75541240  0.50537353  0.36803185  1
  O  O194  1  0.75503689  0.49896735  0.86818265  1
  O  O195  1  0.26442914  0.47392862  0.14126932  1
  O  O196  1  0.22632671  0.50201251  0.62117678  1
  O  O197  1  0.23971170  1.00367457  0.12358118  1
  O  O198  1  0.24501379  0.98918401  0.62755988  1
  O  O199  1  0.74514254  0.49603250  0.13249669  1
  O  O200  1  0.74260215  0.49391224  0.62992290  1
  O  O201  1  0.75514871  0.98758321  0.13541633  1
  O  O202  1  0.74714259  0.99557290  0.63381559  1
  O  O203  1  -0.00646170  0.36255076  0.25153305  1
  O  O204  1  0.01145815  0.38628801  0.76654618  1
  O  O205  1  0.00485657  0.87004712  0.25638853  1
  O  O206  1  -0.00293069  0.87067767  0.76554601  1
  O  O207  1  0.50212078  0.37480514  0.26245416  1
  O  O208  1  0.51379499  0.37121965  0.74419466  1
  O  O209  1  0.50782465  0.86983362  0.25372165  1
  O  O210  1  0.50695516  0.86792272  0.75219160  1
  O  O211  1  0.50328791  0.12327543  0.23592891  1
  O  O212  1  0.48545767  0.11100371  0.73358414  1
  O  O213  1  0.49075437  0.62764210  0.24469633  1
  O  O214  1  0.50658356  0.63710655  0.74276914  1
  O  O215  1  0.99104014  0.13453736  0.24257076  1
  O  O216  1  0.98363254  0.07799251  0.73729351  1
  O  O217  1  0.99120275  0.63417453  0.25155594  1
  O  O218  1  0.98824295  0.63528380  0.74979031  1
  O  O219  1  0.37343237  0.24027113  0.01452443  1
  O  O220  1  0.38242291  0.25852789  0.50647985  1
  O  O221  1  0.37134890  0.75931703  0.00456231  1
  O  O222  1  0.36725167  0.75732214  0.50434061  1
  O  O223  1  0.87155498  0.24630218  0.01673700  1
  O  O224  1  0.86922621  0.25760013  0.50403747  1
  O  O225  1  0.86810197  0.75314876  0.00678064  1
  O  O226  1  0.87223551  0.76389751  0.50325841  1
  O  O227  1  0.11891104  0.24975730  0.48600052  1
  O  O228  1  0.12230204  0.23293764  1.00202239  1
  O  O229  1  0.12974498  0.74721823  0.49359004  1
  O  O230  1  0.13467880  0.75564112  0.99219586  1
  O  O231  1  0.63238266  0.24335317  0.49024068  1
  O  O232  1  0.63152008  0.24117952  0.99866563  1
  O  O233  1  0.62676616  0.75542188  0.48550970  1
  O  O234  1  0.62464722  0.74044241  0.99823144  1
  O  O235  1  0.49109299  0.24453573  0.12344382  1
  O  O236  1  0.49895421  0.23489694  0.62179792  1
  O  O237  1  0.49194415  0.74414903  0.13250732  1
  O  O238  1  0.49633095  0.74341668  0.62902825  1
  O  O239  1  0.99600432  0.24483381  0.13167061  1
  O  O240  1  0.98588131  0.25130993  0.61455758  1
  O  O241  1  0.99675293  0.75584892  0.13710779  1
  O  O242  1  0.99601490  0.75597593  0.64006915  1
  O  O243  1  0.01247021  0.25390504  0.36755878  1
  O  O244  1  -0.00807064  0.26311929  0.87655925  1
  O  O245  1  0.00498734  0.75984414  0.36283108  1
  O  O246  1  0.00498391  0.75387715  0.86824572  1
  O  O247  1  0.50861130  0.25548334  0.37335928  1
  O  O248  1  0.50472534  0.24395941  0.86604081  1
  O  O249  1  0.50523455  0.75289970  0.37078844  1
  O  O250  1  0.50246035  0.75470247  0.86796630  1
  O  O251  1  0.24784222  0.12486451  0.48315249  1
  O  O252  1  0.23689292  0.12385078  0.99697164  1
  O  O253  1  0.23544106  0.63743061  0.50476766  1
  O  O254  1  0.26175249  0.64326944  0.98029419  1
  O  O255  1  0.74246645  0.13430692  0.50098856  1
  O  O256  1  0.74538612  0.12552622  0.99719998  1
  O  O257  1  0.75450852  0.62658731  0.48583935  1
  O  O258  1  0.73852636  0.63164993  1.00131920  1
  O  O259  1  0.24608822  0.37827830  0.00479548  1
  O  O260  1  0.26350013  0.37906050  0.50313295  1
  O  O261  1  0.26180032  0.86889798  0.00004992  1
  O  O262  1  0.25498631  0.86660412  0.50571016  1
  O  O263  1  0.74918949  0.37978022  0.01261441  1
  O  O264  1  0.75902014  0.36892973  0.50909271  1
  O  O265  1  0.75197066  0.87018925  0.00963757  1
  O  O266  1  0.75702666  0.87531937  0.50741902  1
  O  O267  1  0.14177776  0.50276823  0.25044136  1
  O  O268  1  0.12173779  0.50268113  0.74437586  1
  O  O269  1  0.11849482  1.00486753  0.23288562  1
  O  O270  1  0.13648006  0.99543095  0.74526620  1
  O  O271  1  0.63332524  0.50001768  0.24327428  1
  O  O272  1  0.63671144  0.50596085  0.74230379  1
  O  O273  1  0.63370921  0.98731842  0.25432459  1
  O  O274  1  0.63674131  0.99965094  0.74626207  1
  O  O275  1  0.37730837  0.00080675  0.26013294  1
  O  O276  1  0.37216566  -0.00191389  0.75847513  1
  O  O277  1  0.36836404  0.50295027  0.25960105  1
  O  O278  1  0.37796211  0.50668544  0.73792014  1
  O  O279  1  0.87150227  0.01515702  0.24914623  1
  O  O280  1  0.85750905  -0.01697757  0.76866744  1
  O  O281  1  0.86969665  0.50740351  0.25417896  1
  O  O282  1  0.86413556  0.50603503  0.75583471  1
  O  O283  1  0.12680152  0.36571994  0.38013635  1
  O  O284  1  0.11887934  0.36613289  0.86540362  1
  O  O285  1  0.11664874  0.86346396  0.37561779  1
  O  O286  1  0.11689169  0.86834495  0.87732551  1
  O  O287  1  0.61878859  0.36601021  0.37461440  1
  O  O288  1  0.61377442  0.37097029  0.88106000  1
  O  O289  1  0.61945684  0.86727614  0.36746056  1
  O  O290  1  0.61902401  0.86991143  0.87107972  1
  O  O291  1  0.38195888  0.13242143  0.12710369  1
  O  O292  1  0.38190737  0.12706017  0.62222275  1
  O  O293  1  0.37366962  0.63152579  0.13522730  1
  O  O294  1  0.38380993  0.63985800  0.62312964  1
  O  O295  1  0.88622792  0.13040535  0.13168263  1
  O  O296  1  0.86910655  0.14165591  0.62160449  1
  O  O297  1  0.86807252  0.63130010  0.13837969  1
  O  O298  1  0.87324973  0.62727994  0.63616006  1
  O  O299  1  0.25797508  0.26254556  0.12735999  1
  O  O300  1  0.25977650  0.24893952  0.62878457  1
  O  O301  1  0.25542639  0.75486386  0.11515535  1
  O  O302  1  0.25655941  0.75521807  0.62036917  1
  O  O303  1  0.75765400  0.26132686  0.12721259  1
  O  O304  1  0.75376027  0.25761375  0.61394556  1
  O  O305  1  0.75604118  0.75929233  0.12326339  1
  O  O306  1  0.74796812  0.75885472  0.62334391  1
  O  O307  1  0.23739018  0.24283664  0.37424640  1
  O  O308  1  0.24184215  0.23073476  0.82908630  1
  O  O309  1  0.23962425  0.75116241  0.38488287  1
  O  O310  1  0.24228326  0.74711045  0.87675695  1
  O  O311  1  0.74447985  0.25802319  0.38582497  1
  O  O312  1  0.75442622  0.23817273  0.87547884  1
  O  O313  1  0.74205093  0.74114453  0.37354063  1
  O  O314  1  0.74056853  0.74990083  0.88482166  1
  O  O315  1  0.00376074  0.12606270  0.01631075  1
  O  O316  1  0.00166903  0.11006892  0.49554750  1
  O  O317  1  -0.00286218  0.61096524  -0.00466785  1
  O  O318  1  0.00825595  0.63827675  0.50407829  1
  O  O319  1  0.50813202  0.11802464  0.00815338  1
  O  O320  1  0.50763939  0.12046622  0.50284132  1
  O  O321  1  0.50245490  0.62023756  0.00828351  1
  O  O322  1  0.49655686  0.61512994  0.50914885  1
  O  O323  1  0.49652304  0.37927972  0.48897912  1
  O  O324  1  0.49543750  0.39469801  1.00516564  1
  O  O325  1  0.48946407  0.87322451  0.49356451  1
  O  O326  1  0.49115802  0.88082420  0.99812440  1
  O  O327  1  0.98732722  0.37534352  0.49455921  1
  O  O328  1  1.00479604  0.38431312  0.98221048  1
  O  O329  1  0.99302195  0.87911132  0.49064038  1
  O  O330  1  0.99155640  0.86632854  0.99051258  1
  O  O331  1  0.49713378  0.49283222  0.37927919  1
  O  O332  1  0.48792304  0.50932510  0.89111892  1
  O  O333  1  0.48974666  0.99139935  0.37591058  1
  O  O334  1  0.49237187  0.99297890  0.88463792  1
  O  O335  1  0.98793727  0.50114687  0.36676034  1
  O  O336  1  0.99144729  0.49622476  0.88319832  1
  O  O337  1  1.00997071  0.98784908  0.38160883  1
  O  O338  1  0.98955537  0.98866148  0.87974043  1
  O  O339  1  0.00458558  0.01487422  0.12743187  1
  O  O340  1  0.01773292  -0.01827956  0.61044619  1
  O  O341  1  0.00282120  0.49447326  0.10638589  1
  O  O342  1  0.01223889  0.50205351  0.62686293  1
  O  O343  1  0.49292790  0.00941359  0.11381465  1
  O  O344  1  0.50680669  0.00667931  0.61821261  1
  O  O345  1  0.50074909  0.50545255  0.11940259  1
  O  O346  1  0.50754833  0.50516912  0.61591441  1
  O  O347  1  0.25044229  0.38047900  0.25509263  1
  O  O348  1  0.22718731  0.37432616  0.74614283  1
  O  O349  1  0.24310114  0.87356200  0.24715852  1
  O  O350  1  0.25155257  0.88176367  0.73991102  1
  O  O351  1  0.74962925  0.38847976  0.24544365  1
  O  O352  1  0.75324374  0.38149786  0.73598632  1
  O  O353  1  0.74574318  0.88038656  0.24561949  1
  O  O354  1  0.74184319  0.87868651  0.74419346  1
  O  O355  1  0.24868747  0.12850437  0.26754709  1
  O  O356  1  0.26886760  0.10277286  0.73649557  1
  O  O357  1  0.26122028  0.61541890  0.25416792  1
  O  O358  1  0.24888274  0.63569825  0.75524664  1
  O  O359  1  0.76512999  0.11776471  0.24488256  1
  O  O360  1  0.76185687  0.11580840  0.75925498  1
  O  O361  1  0.75604047  0.61560686  0.25718520  1
  O  O362  1  0.75489850  0.61705802  0.75223019  1
  O  O363  1  0.36574580  0.11455768  0.37342545  1
  O  O364  1  0.38104606  0.11157298  0.86515901  1
  O  O365  1  0.38215191  0.61126867  0.36983198  1
  O  O366  1  0.36284488  0.63169572  0.86433234  1
  O  O367  1  0.88029125  0.13311484  0.36084644  1
  O  O368  1  0.87187515  0.11613523  0.87724302  1
  O  O369  1  0.86824537  0.62133686  0.36575224  1
  O  O370  1  0.86983703  0.61739803  0.86534966  1
  O  O371  1  0.13976581  0.37885737  0.11969117  1
  O  O372  1  0.12046132  0.38818025  0.63459034  1
  O  O373  1  0.12524179  0.89484423  0.12179645  1
  O  O374  1  0.13822625  0.87519265  0.62635089  1
  O  O375  1  0.63184194  0.38169551  0.12735077  1
  O  O376  1  0.63416675  0.38595771  0.61645693  1
  O  O377  1  0.63445227  0.86801695  0.13580889  1
  O  O378  1  0.63347791  0.88210481  0.62828806  1
  O  O379  1  0.11670118  0.24647222  0.26402537  1
  O  O380  1  0.10699501  0.26272525  0.73228054  1
  O  O381  1  0.11920894  0.74536547  0.25552461  1
  O  O382  1  0.11316621  0.75662804  0.75789082  1
  O  O383  1  0.62611365  0.24932398  0.26233661  1
  O  O384  1  0.61708394  0.20516279  0.76013499  1
  O  O385  1  0.61992125  0.75832472  0.25881416  1
  O  O386  1  0.61751859  0.75616012  0.75524907  1
  O  O387  1  0.37970770  0.24405790  0.23807317  1
  O  O388  1  0.38321069  0.23607571  0.73471498  1
  O  O389  1  0.38008212  0.74044215  0.25046020  1
  O  O390  1  0.38657417  0.76087254  0.73912496  1
  O  O391  1  0.87939837  0.24071439  0.24236157  1
  O  O392  1  0.87543419  0.25092201  0.73213658  1
  O  O393  1  0.88240713  0.74361867  0.24628004  1
  O  O394  1  0.87804402  0.74253230  0.75196546  1
  O  O395  1  0.39040084  0.48740067  0.48916166  1
  O  O396  1  0.37836464  0.51005460  1.00901690  1
  O  O397  1  0.37276988  0.98553275  0.49194646  1
  O  O398  1  0.38023433  0.99477216  0.99341159  1
  O  O399  1  0.86896552  0.49328369  0.48969181  1
  O  O400  1  0.87649131  0.50465253  0.98750279  1
  O  O401  1  0.88478959  0.98795201  0.50558068  1
  O  O402  1  0.86701289  0.99235521  0.99165590  1
  O  O403  1  0.12517374  0.01326515  0.01344065  1
  O  O404  1  0.12071227  0.00257419  0.50868693  1
  O  O405  1  0.11263469  0.50301832  -0.00777453  1
  O  O406  1  0.12176880  0.51391811  0.50020269  1
  O  O407  1  0.61330472  0.00238362  0.00097708  1
  O  O408  1  0.62577792  0.00629222  0.50197953  1
  O  O409  1  0.62005929  0.51363320  0.00672762  1
  O  O410  1  0.61465505  0.49583435  0.50501909  1
  O  O411  1  0.36856373  0.36035845  0.12451475  1
  O  O412  1  0.37257463  0.36352815  0.61514725  1
  O  O413  1  0.37476432  0.86921482  0.11701501  1
  O  O414  1  0.36790751  0.86787407  0.61587437  1
  O  O415  1  0.86538408  0.36681524  0.13190475  1
  O  O416  1  0.86968768  0.36985921  0.61834940  1
  O  O417  1  0.86960257  0.87060197  0.12234201  1
  O  O418  1  0.86147244  0.87651300  0.62203773  1
  O  O419  1  0.13142073  0.13181996  0.37913287  1
  O  O420  1  0.11686480  0.12374626  0.89112821  1
  O  O421  1  0.11780269  0.63814473  0.38400297  1
  O  O422  1  0.13419518  0.63898834  0.86901612  1
  O  O423  1  0.62044535  0.13046650  0.38399640  1
  O  O424  1  0.63925268  0.11787606  0.89398410  1
  O  O425  1  0.63416824  0.63354865  0.36756176  1
  O  O426  1  0.62299541  0.63002149  0.88472319  1
