# generated using pymatgen
data_V85Zn86O256
_symmetry_space_group_name_H-M   'P 1'
_cell_length_a   16.95034789
_cell_length_b   16.92404151
_cell_length_c   16.93840504
_cell_angle_alpha   89.94813702
_cell_angle_beta   90.05049499
_cell_angle_gamma   90.01405288
_symmetry_Int_Tables_number   1
_chemical_formula_structural   V85Zn86O256
_chemical_formula_sum   'V85 Zn86 O256'
_cell_volume   4859.08898248
_cell_formula_units_Z   1
loop_
 _symmetry_equiv_pos_site_id
 _symmetry_equiv_pos_as_xyz
  1  'x, y, z'
loop_
 _atom_site_type_symbol
 _atom_site_label
 _atom_site_symmetry_multiplicity
 _atom_site_fract_x
 _atom_site_fract_y
 _atom_site_fract_z
 _atom_site_occupancy
  V  V0  1  0.25036974  0.37192167  0.62570014  1
  V  V1  1  0.23708455  0.24790524  0.50002533  1
  V  V2  1  -0.00474438  -0.00412649  0.00227882  1
  V  V3  1  0.86920229  0.37493257  0.50307115  1
  V  V4  1  0.37228039  0.24601158  0.62641770  1
  V  V5  1  0.11498979  0.10996559  0.49792066  1
  V  V6  1  0.74647968  0.75079583  0.50153549  1
  V  V7  1  -0.00662297  0.37760202  0.87390838  1
  V  V8  1  0.12663018  0.49944856  0.62473152  1
  V  V9  1  0.24929232  0.11601469  0.87269279  1
  V  V10  1  0.25215998  -0.00508680  0.25110463  1
  V  V11  1  0.00248867  0.12993011  0.12719592  1
  V  V12  1  -0.00181361  0.75772929  0.25133735  1
  V  V13  1  0.49850579  0.25060571  0.25129007  1
  V  V14  1  0.74551740  0.00264120  0.24473126  1
  V  V15  1  0.74978430  0.62041713  0.87537537  1
  V  V16  1  0.87730674  0.75400232  0.62657620  1
  V  V17  1  0.24408100  0.75744535  0.00701526  1
  V  V18  1  0.13043943  -0.00509162  0.12550050  1
  V  V19  1  0.62410692  0.37630400  0.24841669  1
  V  V20  1  0.24788607  0.62787510  0.37298045  1
  V  V21  1  0.87410951  0.62850949  0.24886209  1
  V  V22  1  0.25090240  0.25132489  -0.00243606  1
  V  V23  1  0.37338018  0.50091403  0.37481523  1
  V  V24  1  0.61917022  0.62562070  -0.00969515  1
  V  V25  1  0.50268773  0.24939562  0.75490356  1
  V  V26  1  0.37850332  0.86647800  0.01248091  1
  V  V27  1  0.73434675  0.87964529  0.62551633  1
  V  V28  1  0.74331883  0.62552987  0.37796578  1
  V  V29  1  0.75710428  0.87633184  0.12094332  1
  V  V30  1  0.88821885  0.87911965  0.49960006  1
  V  V31  1  0.24118061  0.49774507  0.24961763  1
  V  V32  1  0.74861171  0.50140440  0.24764073  1
  V  V33  1  0.00159372  0.62607041  0.12400265  1
  V  V34  1  0.87819398  0.62460677  0.75774977  1
  V  V35  1  0.37558784  0.37378748  0.50099018  1
  V  V36  1  0.51466065  0.75417368  0.74612528  1
  V  V37  1  0.12388559  0.62562270  0.50069278  1
  V  V38  1  0.74728775  0.12340018  0.37686405  1
  V  V39  1  0.37731258  0.11207434  0.75284946  1
  V  V40  1  0.50978922  0.86686396  0.87723550  1
  V  V41  1  -0.00139524  0.24681521  0.74835480  1
  V  V42  1  0.50197756  -0.00361258  0.50277971  1
  V  V43  1  0.50111348  0.37716828  0.37920571  1
  V  V44  1  0.75141620  0.75344310  -0.00758824  1
  V  V45  1  0.24869314  0.88212927  0.64333992  1
  V  V46  1  -0.00675256  0.50093482  -0.00411216  1
  V  V47  1  0.24739332  0.12497728  0.37536975  1
  V  V48  1  0.75592062  0.49461423  0.74068407  1
  V  V49  1  0.87519026  0.25394783  0.12385027  1
  V  V50  1  0.37590410  -0.00982115  0.88244716  1
  V  V51  1  0.88996375  -0.00295295  0.37736767  1
  V  V52  1  0.00396265  0.36060343  0.36983115  1
  V  V53  1  0.37093546  0.88448515  0.49733253  1
  V  V54  1  0.87502640  0.11824221  0.74976401  1
  V  V55  1  0.50492746  0.11727184  0.63109328  1
  V  V56  1  0.62517530  0.12051944  0.50420727  1
  V  V57  1  0.00031196  0.62575691  0.62586320  1
  V  V58  1  0.01752329  0.87097324  0.87525907  1
  V  V59  1  0.49765993  0.88408644  0.37461024  1
  V  V60  1  0.49635211  0.63312624  0.12329666  1
  V  V61  1  0.01481807  0.75317097  0.75422967  1
  V  V62  1  0.50324937  0.11172469  0.12091433  1
  V  V63  1  0.37628540  0.12009365  0.25779849  1
  V  V64  1  0.73497249  -0.00594463  0.74913502  1
  V  V65  1  0.12451609  0.62759765  -0.01152649  1
  V  V66  1  0.74919797  0.12556102  0.87939887  1
  V  V67  1  0.38299377  0.38125515  -0.00382493  1
  V  V68  1  0.87251688  -0.01456135  0.87616327  1
  V  V69  1  0.24885296  0.75549567  0.50119085  1
  V  V70  1  0.61682982  0.50018696  0.11652867  1
  V  V71  1  0.37717879  0.25045487  0.12544604  1
  V  V72  1  0.38403173  0.62651631  0.75001787  1
  V  V73  1  0.25449988  0.50127878  0.75432980  1
  V  V74  1  0.87848157  0.50062814  0.37507948  1
  V  V75  1  0.86559406  0.25089792  0.62692742  1
  V  V76  1  0.12430731  0.24821329  0.87540858  1
  V  V77  1  0.12411205  0.87911443  0.24967198  1
  V  V78  1  0.62642533  0.37698983  0.73942092  1
  V  V79  1  0.11966120  0.75918211  0.37619271  1
  V  V80  1  0.12647693  0.37060872  0.74906270  1
  V  V81  1  0.62468243  0.87831863  0.24175624  1
  V  V82  1  0.62337029  0.75273278  0.37433632  1
  V  V83  1  0.87841536  0.13114350  0.25138667  1
  V  V84  1  0.37872086  0.74799755  0.62493871  1
  Zn  Zn85  1  0.74827395  0.37625146  0.12012074  1
  Zn  Zn86  1  0.38330995  0.50776212  0.88063476  1
  Zn  Zn87  1  0.12567096  0.12289733  0.00101206  1
  Zn  Zn88  1  0.24777511  0.37570205  0.12579043  1
  Zn  Zn89  1  -0.00472085  0.11367486  0.61648823  1
  Zn  Zn90  1  0.87074344  0.37706124  -0.00563882  1
  Zn  Zn91  1  0.87599862  0.75514267  0.11969311  1
  Zn  Zn92  1  0.74772442  0.25398706  0.00030605  1
  Zn  Zn93  1  0.00014414  0.49751147  0.50047285  1
  Zn  Zn94  1  0.49144885  0.75559066  0.24576612  1
  Zn  Zn95  1  0.50678584  0.52547033  0.50335920  1
  Zn  Zn96  1  0.11560200  -0.01280177  0.64450476  1
  Zn  Zn97  1  0.74381718  0.25183330  0.50555807  1
  Zn  Zn98  1  0.36775028  0.63169926  0.23881207  1
  Zn  Zn99  1  0.24870449  0.63443406  0.87235060  1
  Zn  Zn100  1  0.50907127  0.38675238  0.87630994  1
  Zn  Zn101  1  0.62117937  0.51462047  0.61618656  1
  Zn  Zn102  1  0.62547173  0.25006268  0.37717247  1
  Zn  Zn103  1  0.12232162  0.35779644  0.24653952  1
  Zn  Zn104  1  0.62865653  0.25453548  0.87866273  1
  Zn  Zn105  1  0.12388946  0.49574395  0.12333331  1
  Zn  Zn106  1  0.62800171  0.12092176  0.01198045  1
  Zn  Zn107  1  0.19175277  0.18387200  0.18374841  1
  Zn  Zn108  1  0.17269609  0.15161975  0.70217581  1
  Zn  Zn109  1  0.18516583  0.68902741  0.18436596  1
  Zn  Zn110  1  0.19355095  0.68779149  0.68579557  1
  Zn  Zn111  1  0.68759684  0.19036745  0.18684156  1
  Zn  Zn112  1  0.68591473  0.18239835  0.69273323  1
  Zn  Zn113  1  0.68440058  0.69024961  0.18416202  1
  Zn  Zn114  1  0.69448939  0.68990875  0.69077954  1
  Zn  Zn115  1  0.30788130  0.31051897  0.31330458  1
  Zn  Zn116  1  0.31486715  0.30956538  0.81292323  1
  Zn  Zn117  1  0.31344447  0.81412801  0.31129689  1
  Zn  Zn118  1  0.31188301  0.80614207  0.81934090  1
  Zn  Zn119  1  0.81108064  0.31225542  0.31347839  1
  Zn  Zn120  1  0.81156087  0.31176800  0.81113787  1
  Zn  Zn121  1  0.81317058  0.81643151  0.31244155  1
  Zn  Zn122  1  0.81027722  0.80964009  0.80997608  1
  Zn  Zn123  1  0.18557541  0.43625454  0.43788086  1
  Zn  Zn124  1  0.18510533  0.43793219  0.93771378  1
  Zn  Zn125  1  0.18742197  0.94111120  0.43426246  1
  Zn  Zn126  1  0.19146102  0.93588319  0.94336758  1
  Zn  Zn127  1  0.68729567  0.43942952  0.43963037  1
  Zn  Zn128  1  0.68906604  0.43874265  0.93201999  1
  Zn  Zn129  1  0.68892678  0.93809756  0.43809633  1
  Zn  Zn130  1  0.68493443  0.94181038  0.94591332  1
  Zn  Zn131  1  0.31699352  0.06056796  0.06308357  1
  Zn  Zn132  1  0.31053397  0.06141774  0.56386053  1
  Zn  Zn133  1  0.30803196  0.56496647  0.06224167  1
  Zn  Zn134  1  0.31735649  0.56383722  0.56172308  1
  Zn  Zn135  1  0.81558227  0.06189430  0.06279701  1
  Zn  Zn136  1  0.81270705  0.05819788  0.56345334  1
  Zn  Zn137  1  0.81095512  0.56346420  0.06269706  1
  Zn  Zn138  1  0.81136210  0.56610196  0.56311968  1
  Zn  Zn139  1  0.43452874  0.44145040  0.18754363  1
  Zn  Zn140  1  0.44365603  0.43994993  0.68611476  1
  Zn  Zn141  1  0.43622000  0.93852359  0.19063268  1
  Zn  Zn142  1  0.43988719  0.93288642  0.68889414  1
  Zn  Zn143  1  0.94023150  0.43940540  0.18878338  1
  Zn  Zn144  1  0.93704984  0.43712939  0.68651478  1
  Zn  Zn145  1  0.93702551  0.94246796  0.19168502  1
  Zn  Zn146  1  0.93722377  0.93573861  0.68952242  1
  Zn  Zn147  1  0.06307866  0.18099117  0.31245787  1
  Zn  Zn148  1  0.06140179  0.05716372  0.81295900  1
  Zn  Zn149  1  0.06120865  0.56538070  0.31234463  1
  Zn  Zn150  1  0.06306923  0.55941510  0.81080972  1
  Zn  Zn151  1  0.56377546  0.06243512  0.31178633  1
  Zn  Zn152  1  0.57688088  0.04320464  0.85377380  1
  Zn  Zn153  1  0.55962255  0.56385087  0.31055100  1
  Zn  Zn154  1  0.56448932  0.56101857  0.80730596  1
  Zn  Zn155  1  0.43738563  0.18711931  0.43921244  1
  Zn  Zn156  1  0.43690612  0.18725355  0.93814631  1
  Zn  Zn157  1  0.42843631  0.70019274  0.42431974  1
  Zn  Zn158  1  0.43553305  0.68995533  0.93610198  1
  Zn  Zn159  1  0.93008949  0.18619799  0.44133158  1
  Zn  Zn160  1  0.93495590  0.18446423  0.93874663  1
  Zn  Zn161  1  0.93531420  0.68928576  0.43823873  1
  Zn  Zn162  1  0.93526757  0.69289621  0.93727289  1
  Zn  Zn163  1  0.06341702  0.31363426  0.06260852  1
  Zn  Zn164  1  0.05467224  0.31004836  0.56335798  1
  Zn  Zn165  1  0.06213833  0.81330805  0.06132344  1
  Zn  Zn166  1  0.06529096  0.81531142  0.56720994  1
  Zn  Zn167  1  0.56391232  0.30695535  0.06108162  1
  Zn  Zn168  1  0.56188743  0.31111343  0.56453081  1
  Zn  Zn169  1  0.56806849  0.81077564  0.05843256  1
  Zn  Zn170  1  0.55991819  0.68674973  0.56209379  1
  O  O171  1  0.11700828  0.11420303  0.12323163  1
  O  O172  1  0.12034456  0.13486783  0.60079203  1
  O  O173  1  0.11115329  0.62462332  0.11761839  1
  O  O174  1  0.12187298  0.62025677  0.61976670  1
  O  O175  1  0.60798058  0.12872089  0.13003137  1
  O  O176  1  0.61493184  0.12619116  0.61890053  1
  O  O177  1  0.61686278  0.61851277  0.11696018  1
  O  O178  1  0.63624739  0.63046331  0.61889659  1
  O  O179  1  0.38039218  0.38216556  0.37823717  1
  O  O180  1  0.37591983  0.37274376  0.88918879  1
  O  O181  1  0.38538925  0.87345499  0.38561734  1
  O  O182  1  0.37751486  0.87736402  0.88493349  1
  O  O183  1  0.88377512  0.38214429  0.37741120  1
  O  O184  1  0.89019647  0.37031236  0.87281793  1
  O  O185  1  0.86903822  0.88955796  0.38197493  1
  O  O186  1  0.87905133  0.88367367  0.87187142  1
  O  O187  1  0.24718667  0.01462300  0.36670166  1
  O  O188  1  0.25840210  0.00911947  0.88146265  1
  O  O189  1  0.25252959  0.50696302  0.37085340  1
  O  O190  1  0.25233208  0.49865584  0.86129200  1
  O  O191  1  0.75231184  0.01045950  0.36616137  1
  O  O192  1  0.75825488  0.00199475  0.86841243  1
  O  O193  1  0.75883035  0.50812194  0.36925885  1
  O  O194  1  0.74954830  0.51346725  0.86163530  1
  O  O195  1  0.24691458  0.50033252  0.13625690  1
  O  O196  1  0.24737684  0.49323521  0.63309541  1
  O  O197  1  0.24041122  1.00876904  0.13455825  1
  O  O198  1  0.25220341  0.98350638  0.62470476  1
  O  O199  1  0.73865105  0.50138732  0.13270580  1
  O  O200  1  0.75086288  0.50387334  0.63816522  1
  O  O201  1  0.75422546  0.99552341  0.13595384  1
  O  O202  1  0.75250354  0.98788349  0.63320073  1
  O  O203  1  0.00065910  0.37844300  0.26657969  1
  O  O204  1  0.00668490  0.36861964  0.75479157  1
  O  O205  1  0.00375242  0.86411644  0.24635679  1
  O  O206  1  -0.00190557  0.86659827  0.76509219  1
  O  O207  1  0.50345698  0.37309653  0.25910368  1
  O  O208  1  0.50762127  0.36470832  0.75009465  1
  O  O209  1  0.50834618  0.87790315  0.25686263  1
  O  O210  1  0.49616851  0.86112668  0.75929224  1
  O  O211  1  0.49353986  0.13030312  0.24555994  1
  O  O212  1  0.49301262  0.12987702  0.74369654  1
  O  O213  1  0.50083202  0.62821484  0.23483325  1
  O  O214  1  0.49094413  0.63949803  0.75258977  1
  O  O215  1  0.98955391  0.12317032  0.24151010  1
  O  O216  1  0.98461433  0.12994145  0.75572603  1
  O  O217  1  0.99677217  0.63495135  0.24196817  1
  O  O218  1  0.99460874  0.62960748  0.74703999  1
  O  O219  1  0.36963981  0.25732379  0.00625483  1
  O  O220  1  0.37033513  0.25124195  0.51243613  1
  O  O221  1  0.36622006  0.76069960  0.00037397  1
  O  O222  1  0.36853037  0.76433908  0.50638936  1
  O  O223  1  0.87442784  0.25187900  0.01110283  1
  O  O224  1  0.87126383  0.25540285  0.51009786  1
  O  O225  1  0.85797207  0.74525151  0.00299349  1
  O  O226  1  0.86537369  0.75891294  0.50250518  1
  O  O227  1  0.13591381  0.25327974  0.50038290  1
  O  O228  1  0.13436664  0.24756536  0.99415195  1
  O  O229  1  0.12811684  0.74700513  0.49299224  1
  O  O230  1  0.13432335  0.74384597  1.00402867  1
  O  O231  1  0.62453131  0.23652916  0.49875138  1
  O  O232  1  0.62792718  0.24052122  0.99633753  1
  O  O233  1  0.63940241  0.75345622  0.48633277  1
  O  O234  1  0.63982311  0.73711927  1.00376573  1
  O  O235  1  0.48852505  0.24814527  0.13275577  1
  O  O236  1  0.49198334  0.23861770  0.63232908  1
  O  O237  1  0.50795156  0.73694554  0.12717072  1
  O  O238  1  0.49218956  0.75551564  0.63789097  1
  O  O239  1  0.99461601  0.23607484  0.11825402  1
  O  O240  1  0.98881545  0.24384126  0.63396138  1
  O  O241  1  0.99680283  0.74473687  0.13132977  1
  O  O242  1  0.99682404  0.74604348  0.63425061  1
  O  O243  1  -0.00627716  0.25704217  0.37356989  1
  O  O244  1  0.00514142  0.25363400  0.86951979  1
  O  O245  1  0.00950373  0.74186615  0.36466769  1
  O  O246  1  -0.00008788  0.76341761  0.87121970  1
  O  O247  1  0.49920691  0.25790672  0.36757897  1
  O  O248  1  0.49901535  0.24845667  0.86176509  1
  O  O249  1  0.51088082  0.76675502  0.37384590  1
  O  O250  1  0.49448580  0.75945744  0.86176485  1
  O  O251  1  0.24352633  0.12890549  0.49447253  1
  O  O252  1  0.25475921  0.13525662  0.99140081  1
  O  O253  1  0.24391673  0.63304919  0.49384861  1
  O  O254  1  0.23942627  0.62933276  0.99654036  1
  O  O255  1  0.74164137  0.12261409  0.49420401  1
  O  O256  1  0.75008371  0.12342127  0.99131069  1
  O  O257  1  0.76052835  0.63744734  0.48727432  1
  O  O258  1  0.74474146  0.62842758  0.99124869  1
  O  O259  1  0.25640582  0.36346382  -0.00053814  1
  O  O260  1  0.25603349  0.36702494  0.50358290  1
  O  O261  1  0.25937166  0.86526624  0.00491034  1
  O  O262  1  0.25697568  0.87225652  0.49904836  1
  O  O263  1  0.75466544  0.37584859  0.00195501  1
  O  O264  1  0.76523330  0.36889066  0.48744042  1
  O  O265  1  0.74298586  0.86807165  0.00859692  1
  O  O266  1  0.75680638  0.87147023  0.50872522  1
  O  O267  1  0.13415676  0.50003971  0.25182253  1
  O  O268  1  0.13395351  0.49328106  0.74340343  1
  O  O269  1  0.13373631  0.99184378  0.24226225  1
  O  O270  1  0.14174828  1.04468845  0.73928426  1
  O  O271  1  0.62777172  0.49072461  0.24525652  1
  O  O272  1  0.63884975  0.49545079  0.74298102  1
  O  O273  1  0.63557505  0.99246675  0.25417766  1
  O  O274  1  0.63663601  1.00259204  0.75812654  1
  O  O275  1  0.36554732  0.00815665  0.24670314  1
  O  O276  1  0.37518878  0.00858435  0.75541219  1
  O  O277  1  0.36357632  0.50422090  0.26090482  1
  O  O278  1  0.36847689  0.50991037  0.74584100  1
  O  O279  1  0.86704468  0.00936137  0.25947249  1
  O  O280  1  0.86869470  0.00409876  0.75884888  1
  O  O281  1  0.86937553  0.50646746  0.25643581  1
  O  O282  1  0.86532820  0.50762987  0.74548209  1
  O  O283  1  0.10518321  0.37896050  0.37795123  1
  O  O284  1  0.11814093  0.36708568  0.86804614  1
  O  O285  1  0.12677703  0.86462350  0.37056630  1
  O  O286  1  0.11560994  0.88189586  0.87359696  1
  O  O287  1  0.61649225  0.37340459  0.36678958  1
  O  O288  1  0.62587912  0.37204231  0.86036590  1
  O  O289  1  0.62181134  0.87067483  0.36687944  1
  O  O290  1  0.60798636  0.87312240  0.88047233  1
  O  O291  1  0.38281856  0.13076309  0.13561882  1
  O  O292  1  0.37902646  0.12880587  0.63358690  1
  O  O293  1  0.39307828  0.61595336  0.12136663  1
  O  O294  1  0.36768348  0.64098138  0.63087684  1
  O  O295  1  0.88132497  0.13207509  0.13299270  1
  O  O296  1  0.87574809  0.12926681  0.63236622  1
  O  O297  1  0.88537085  0.62678859  0.13141989  1
  O  O298  1  0.88095485  0.63301807  0.63338784  1
  O  O299  1  0.26336966  0.24709903  0.11558914  1
  O  O300  1  0.25836860  0.25293616  0.61856868  1
  O  O301  1  0.25246936  0.73898222  0.10752612  1
  O  O302  1  0.25718169  0.76056612  0.61894377  1
  O  O303  1  0.76083188  0.25245229  0.12361616  1
  O  O304  1  0.76173710  0.24416469  0.62679770  1
  O  O305  1  0.75224684  0.75938702  0.11855159  1
  O  O306  1  0.75738601  0.76094954  0.61806645  1
  O  O307  1  0.26062000  0.23665694  0.38835302  1
  O  O308  1  0.24597233  0.24348828  0.88190115  1
  O  O309  1  0.24028635  0.74393497  0.38038447  1
  O  O310  1  0.25074106  0.74847784  0.89562078  1
  O  O311  1  0.74985099  0.23470146  0.37628134  1
  O  O312  1  0.75662925  0.23909272  0.87859802  1
  O  O313  1  0.74574431  0.74577310  0.37997947  1
  O  O314  1  0.75340408  0.73754118  0.87952064  1
  O  O315  1  0.00149705  0.11440870  0.00724941  1
  O  O316  1  0.01189731  0.12612957  0.49425438  1
  O  O317  1  0.00409036  0.62228681  0.00410079  1
  O  O318  1  0.00561162  0.62516628  0.50744553  1
  O  O319  1  0.49274965  0.12930580  0.01964143  1
  O  O320  1  0.50354206  0.11525948  0.50666352  1
  O  O321  1  0.50916838  0.63306059  0.00808266  1
  O  O322  1  0.48919861  0.63706422  0.49243847  1
  O  O323  1  0.49261778  0.36579203  0.48674828  1
  O  O324  1  0.48588915  0.36905868  0.99852268  1
  O  O325  1  0.49355319  0.88940273  0.49452493  1
  O  O326  1  0.49015686  0.86240321  0.98804729  1
  O  O327  1  0.98860596  0.37509636  0.48808777  1
  O  O328  1  0.99959255  0.38348239  0.99095605  1
  O  O329  1  0.98730504  0.86626737  0.49985850  1
  O  O330  1  1.00206786  0.88068375  0.98676487  1
  O  O331  1  0.48918779  0.49422425  0.37436934  1
  O  O332  1  0.49491247  0.49872328  0.86757073  1
  O  O333  1  0.50434390  0.99125301  0.38237893  1
  O  O334  1  0.48341827  0.97812621  0.86406099  1
  O  O335  1  0.98703994  0.50087873  0.37666770  1
  O  O336  1  1.00502584  0.48940937  0.88165457  1
  O  O337  1  0.98448358  1.00093798  0.36936727  1
  O  O338  1  0.99505978  0.99019207  0.88067488  1
  O  O339  1  0.00293320  0.00728576  0.11848618  1
  O  O340  1  0.00388470  0.00098228  0.62996810  1
  O  O341  1  0.00193155  0.50889216  0.11822798  1
  O  O342  1  0.00794694  0.50691371  0.62441303  1
  O  O343  1  0.49907281  0.01331687  0.12925106  1
  O  O344  1  0.49481856  0.00934341  0.61987321  1
  O  O345  1  0.51195863  0.50835710  0.12942074  1
  O  O346  1  0.50453101  0.49802795  0.61578791  1
  O  O347  1  0.24669678  0.38426322  0.25142369  1
  O  O348  1  0.24675796  0.37924919  0.74499723  1
  O  O349  1  0.24469608  0.88811709  0.25683979  1
  O  O350  1  0.25607076  0.87223265  0.74147624  1
  O  O351  1  0.74017688  0.38179284  0.24909117  1
  O  O352  1  0.74786217  0.38914962  0.75311380  1
  O  O353  1  0.74374873  0.88340868  0.24432294  1
  O  O354  1  0.75314314  0.87955067  0.73587635  1
  O  O355  1  0.25811231  0.11791744  0.25758519  1
  O  O356  1  0.26879038  0.14090227  0.76655433  1
  O  O357  1  0.24629055  0.61892577  0.25793762  1
  O  O358  1  0.25913746  0.61745727  0.75099098  1
  O  O359  1  0.75393340  0.11888758  0.25511110  1
  O  O360  1  0.76116806  0.11426617  0.75262473  1
  O  O361  1  0.75435842  0.62225800  0.25562452  1
  O  O362  1  0.75984992  0.61890116  0.75591408  1
  O  O363  1  0.37149631  0.12739934  0.36354585  1
  O  O364  1  0.37340081  0.11349483  0.87169937  1
  O  O365  1  0.35790792  0.61831435  0.37600613  1
  O  O366  1  0.37060123  0.62548979  0.86444780  1
  O  O367  1  0.86835758  0.11681730  0.36997831  1
  O  O368  1  0.86750160  0.11464643  0.86859993  1
  O  O369  1  0.86767899  0.61897966  0.36897731  1
  O  O370  1  0.87185233  0.62743390  0.86299290  1
  O  O371  1  0.12853386  0.37748363  0.12911047  1
  O  O372  1  0.12938441  0.37767343  0.62990486  1
  O  O373  1  0.11933181  0.88752553  0.13058944  1
  O  O374  1  0.14308236  0.87346040  0.62625288  1
  O  O375  1  0.62233489  0.38250879  0.13122808  1
  O  O376  1  0.62676645  0.37125163  0.63667863  1
  O  O377  1  0.63295863  0.87161504  0.13640332  1
  O  O378  1  0.63983318  0.87362160  0.61901701  1
  O  O379  1  0.13277753  0.24510546  0.25424608  1
  O  O380  1  0.11792153  0.24864759  0.75508910  1
  O  O381  1  0.11915937  0.75728148  0.25570248  1
  O  O382  1  0.11358489  0.74216498  0.74792506  1
  O  O383  1  0.61909725  0.26301331  0.25047944  1
  O  O384  1  0.61730189  0.25653796  0.74889037  1
  O  O385  1  0.62575010  0.76026175  0.26023717  1
  O  O386  1  0.61267135  0.74954031  0.74855939  1
  O  O387  1  0.37694129  0.24377701  0.24251639  1
  O  O388  1  0.38314870  0.24559892  0.74069215  1
  O  O389  1  0.37974519  0.74196321  0.26192538  1
  O  O390  1  0.37715235  0.74297355  0.74196959  1
  O  O391  1  0.86934340  0.23722632  0.24474798  1
  O  O392  1  0.87848603  0.24152947  0.74461426  1
  O  O393  1  0.88255951  0.74621901  0.25051316  1
  O  O394  1  0.88321966  0.74213240  0.74474633  1
  O  O395  1  0.37160856  0.49279775  0.48739306  1
  O  O396  1  0.36571664  0.48359650  0.99978869  1
  O  O397  1  0.38165793  0.99142416  0.50420215  1
  O  O398  1  0.37031465  0.98341897  0.99347038  1
  O  O399  1  0.87502188  0.49368977  0.49264043  1
  O  O400  1  0.88920323  0.50015066  1.00415761  1
  O  O401  1  0.87219828  0.99451899  0.48661631  1
  O  O402  1  0.88741869  1.00209567  0.99219422  1
  O  O403  1  0.11647567  0.00004858  0.00754780  1
  O  O404  1  0.12600406  0.00949036  0.50383246  1
  O  O405  1  0.11512721  0.50903709  0.00088879  1
  O  O406  1  0.12376205  0.50651990  0.50694399  1
  O  O407  1  0.61022287  0.02058328  -0.03636535  1
  O  O408  1  0.61735636  0.01102698  0.49684532  1
  O  O409  1  0.63060614  0.51070599  0.00757079  1
  O  O410  1  0.61825663  0.49602544  0.50088097  1
  O  O411  1  0.37278452  0.36822610  0.11595515  1
  O  O412  1  0.37003536  0.36540515  0.62128469  1
  O  O413  1  0.38583946  0.87464598  0.11099249  1
  O  O414  1  0.36671751  0.86754302  0.61989093  1
  O  O415  1  0.87903026  0.36166103  0.12903903  1
  O  O416  1  0.88055022  0.36551245  0.61503305  1
  O  O417  1  0.86105186  0.87638346  0.13159439  1
  O  O418  1  0.87245424  0.86889507  0.61627560  1
  O  O419  1  0.13397370  0.12838154  0.38962887  1
  O  O420  1  0.13459574  0.13070134  0.88067790  1
  O  O421  1  0.13244997  0.63214186  0.38002765  1
  O  O422  1  0.12407075  0.62319269  0.88535791  1
  O  O423  1  0.63119987  0.12703299  0.38217234  1
  O  O424  1  0.64624284  0.13626305  0.85652829  1
  O  O425  1  0.63631687  0.63422458  0.36588529  1
  O  O426  1  0.63288857  0.62231223  0.88322997  1
