# generated using pymatgen
data_V85Zn86O256
_symmetry_space_group_name_H-M   'P 1'
_cell_length_a   16.95115642
_cell_length_b   16.95014554
_cell_length_c   16.95244911
_cell_angle_alpha   89.93578359
_cell_angle_beta   90.01092501
_cell_angle_gamma   89.98066294
_symmetry_Int_Tables_number   1
_chemical_formula_structural   V85Zn86O256
_chemical_formula_sum   'V85 Zn86 O256'
_cell_volume   4870.85169788
_cell_formula_units_Z   1
loop_
 _symmetry_equiv_pos_site_id
 _symmetry_equiv_pos_as_xyz
  1  'x, y, z'
loop_
 _atom_site_type_symbol
 _atom_site_label
 _atom_site_symmetry_multiplicity
 _atom_site_fract_x
 _atom_site_fract_y
 _atom_site_fract_z
 _atom_site_occupancy
  V  V0  1  0.25504707  0.00059100  0.25809522  1
  V  V1  1  0.12613225  0.62877028  0.48822407  1
  V  V2  1  0.75052094  0.62839510  0.87398372  1
  V  V3  1  0.75452938  0.24595705  0.00060539  1
  V  V4  1  0.51098131  -0.00608360  0.00147498  1
  V  V5  1  0.87764748  0.11318053  0.25187475  1
  V  V6  1  0.86300880  0.26660601  0.14519064  1
  V  V7  1  0.87365927  0.62059519  0.74573098  1
  V  V8  1  0.24561783  0.75031611  -0.00408753  1
  V  V9  1  0.37890389  0.37881553  -0.00304150  1
  V  V10  1  0.37610484  0.12675777  0.74798444  1
  V  V11  1  0.48651926  0.48760972  0.50406594  1
  V  V12  1  0.75250762  0.24310144  0.50177895  1
  V  V13  1  0.87267791  -0.01014302  0.37938886  1
  V  V14  1  0.75579334  0.75789870  -0.00177344  1
  V  V15  1  0.75164915  -0.01567219  0.74818466  1
  V  V16  1  0.37621274  0.12318707  0.25754978  1
  V  V17  1  0.00855854  -0.00853490  0.50140157  1
  V  V18  1  0.74842970  0.87689202  0.13214509  1
  V  V19  1  0.62312117  0.25301422  0.37759808  1
  V  V20  1  0.88113049  0.75488197  0.12075072  1
  V  V21  1  0.37143717  0.89104841  0.49979957  1
  V  V22  1  0.26022935  0.37609289  0.62128166  1
  V  V23  1  0.00352739  0.49681692  0.49663560  1
  V  V24  1  0.74329783  0.62690597  0.38096202  1
  V  V25  1  0.01051244  0.24254407  0.25187826  1
  V  V26  1  0.62548252  0.75002737  0.86991347  1
  V  V27  1  0.87578948  -0.01327861  0.87560152  1
  V  V28  1  0.74505725  0.75706978  0.50657821  1
  V  V29  1  0.25132100  0.87550055  0.12650345  1
  V  V30  1  0.87918638  0.37051479  0.49733728  1
  V  V31  1  0.00582140  0.37336811  0.36318656  1
  V  V32  1  0.25129905  0.49963633  0.75006402  1
  V  V33  1  0.23671230  0.37893180  0.12986969  1
  V  V34  1  0.57951077  0.18067467  -0.05953528  1
  V  V35  1  0.00169964  0.75405656  0.26725790  1
  V  V36  1  0.87386127  0.75746046  0.62701014  1
  V  V37  1  0.37340270  0.73991503  0.13145673  1
  V  V38  1  0.50615327  0.87306195  0.87314087  1
  V  V39  1  0.12821273  0.24535507  0.37835979  1
  V  V40  1  0.00327371  0.49872293  0.01450683  1
  V  V41  1  0.23097575  0.50416137  0.24615197  1
  V  V42  1  0.24482085  0.62835323  0.87153074  1
  V  V43  1  0.37265909  0.25201485  0.12855548  1
  V  V44  1  0.12261432  0.25136195  0.87425042  1
  V  V45  1  0.12293463  0.12624909  -0.00033426  1
  V  V46  1  0.37395326  -0.00305417  0.87460484  1
  V  V47  1  0.24436695  0.25331722  0.00111092  1
  V  V48  1  0.24161248  -0.00349087  0.73712558  1
  V  V49  1  0.00219806  0.62274607  0.62316301  1
  V  V50  1  0.12397987  0.37532768  0.74682583  1
  V  V51  1  0.87931300  0.50198038  0.87733127  1
  V  V52  1  -0.00239377  0.12438164  0.12717733  1
  V  V53  1  0.50295920  0.25725580  0.25149520  1
  V  V54  1  0.87014071  0.37463464  0.00217284  1
  V  V55  1  0.36516211  0.75492012  0.62140672  1
  V  V56  1  0.62770156  0.50248761  0.61022443  1
  V  V57  1  0.50349187  0.12231590  0.62282189  1
  V  V58  1  0.75372164  0.12024281  0.87908826  1
  V  V59  1  0.37290866  0.49893052  0.36087094  1
  V  V60  1  0.12649511  0.61938546  0.00515609  1
  V  V61  1  0.49536876  0.89626837  0.37884833  1
  V  V62  1  0.74980013  0.37728210  0.61783034  1
  V  V63  1  0.49248448  0.74743679  0.25592523  1
  V  V64  1  -0.00182827  0.37587977  0.87363963  1
  V  V65  1  0.74816425  0.11681130  0.36448988  1
  V  V66  1  0.25976213  0.25243028  0.50034560  1
  V  V67  1  0.00749772  0.12404565  0.62622695  1
  V  V68  1  0.38747213  0.49997608  0.87379314  1
  V  V69  1  0.50372760  0.75521036  0.74456190  1
  V  V70  1  0.01343719  0.86408573  0.87834620  1
  V  V71  1  0.12680320  -0.00149623  0.12534033  1
  V  V72  1  0.24611315  0.12213836  0.87449574  1
  V  V73  1  0.61800534  0.74991274  0.38157755  1
  V  V74  1  0.62461632  0.11530660  0.50205127  1
  V  V75  1  0.62745945  -0.01346456  0.62919801  1
  V  V76  1  0.37636065  0.62714068  0.74851231  1
  V  V77  1  -0.00587126  -0.00531851  0.00120801  1
  V  V78  1  0.24812437  0.75440977  0.48926401  1
  V  V79  1  0.86933483  0.62435131  0.24769884  1
  V  V80  1  0.50984920  0.12720534  0.12478960  1
  V  V81  1  0.37752876  0.87385397  0.00181732  1
  V  V82  1  0.50329403  0.62817258  0.61297241  1
  V  V83  1  0.86941536  0.50081857  0.37078396  1
  V  V84  1  0.87273401  0.12514491  0.74970894  1
  Zn  Zn85  1  0.61038530  0.37185022  0.76350705  1
  Zn  Zn86  1  0.12760061  0.49861340  0.62034216  1
  Zn  Zn87  1  0.87557001  0.24726977  0.62634224  1
  Zn  Zn88  1  0.51173146  0.24874664  0.75589030  1
  Zn  Zn89  1  0.62462655  0.88199449  0.25376184  1
  Zn  Zn90  1  0.87599932  0.87405763  0.50237795  1
  Zn  Zn91  1  0.12750054  0.86139637  0.26528016  1
  Zn  Zn92  1  0.64212480  0.01474152  0.12914305  1
  Zn  Zn93  1  0.01075137  0.74270466  0.75790023  1
  Zn  Zn94  1  0.50394051  0.61787468  0.12942565  1
  Zn  Zn95  1  0.73686816  0.48406856  0.76620192  1
  Zn  Zn96  1  0.48978339  0.36856907  0.38211034  1
  Zn  Zn97  1  -0.00528312  0.24976519  0.75032190  1
  Zn  Zn98  1  0.25408894  0.12325880  0.38029197  1
  Zn  Zn99  1  0.62801271  0.61536468  0.00948267  1
  Zn  Zn100  1  0.00458077  0.62376279  0.13047747  1
  Zn  Zn101  1  0.38362349  0.25457924  0.62321388  1
  Zn  Zn102  1  0.25171249  0.63149893  0.36482007  1
  Zn  Zn103  1  0.50869636  0.50004595  0.00852599  1
  Zn  Zn104  1  0.63211351  0.47533679  0.16470912  1
  Zn  Zn105  1  0.14428445  0.85480973  0.74206801  1
  Zn  Zn106  1  0.12842397  0.12307776  0.50595233  1
  Zn  Zn107  1  0.18810494  0.18462352  0.18777345  1
  Zn  Zn108  1  0.18968358  0.19037690  0.68813408  1
  Zn  Zn109  1  0.18425256  0.68744690  0.18674342  1
  Zn  Zn110  1  0.18495518  0.68551792  0.68159633  1
  Zn  Zn111  1  0.68738051  0.28486134  0.18784282  1
  Zn  Zn112  1  0.68644945  0.18647500  0.69123089  1
  Zn  Zn113  1  0.68766455  0.69047708  0.19496937  1
  Zn  Zn114  1  0.68706010  0.68410918  0.68659879  1
  Zn  Zn115  1  0.31127288  0.31816297  0.31299749  1
  Zn  Zn116  1  0.31487359  0.31340047  0.81131685  1
  Zn  Zn117  1  0.31627783  0.81881507  0.31481152  1
  Zn  Zn118  1  0.31622599  0.81272178  0.81274601  1
  Zn  Zn119  1  0.82242850  0.29890468  0.32489798  1
  Zn  Zn120  1  0.78578975  0.31820311  0.81600983  1
  Zn  Zn121  1  0.81201860  0.80789890  0.31234241  1
  Zn  Zn122  1  0.82397318  0.81026844  0.81098548  1
  Zn  Zn123  1  0.18821584  0.43414927  0.43376350  1
  Zn  Zn124  1  0.19055561  0.44024866  0.93616505  1
  Zn  Zn125  1  0.18614001  0.93484204  0.43769314  1
  Zn  Zn126  1  0.18618293  0.93788566  0.93735103  1
  Zn  Zn127  1  0.65816777  0.46152383  0.38803066  1
  Zn  Zn128  1  0.68641645  0.43566933  0.94186501  1
  Zn  Zn129  1  0.68707151  0.93533109  0.43954971  1
  Zn  Zn130  1  0.68730408  0.93389575  0.93941988  1
  Zn  Zn131  1  0.31628355  0.06292941  0.06315613  1
  Zn  Zn132  1  0.31033635  0.06811468  0.56562898  1
  Zn  Zn133  1  0.31272121  0.56070947  0.06289592  1
  Zn  Zn134  1  0.31151120  0.56662570  0.56097186  1
  Zn  Zn135  1  0.81523567  0.06445623  0.06385775  1
  Zn  Zn136  1  0.81349492  0.05764774  0.56574940  1
  Zn  Zn137  1  0.80508805  0.56631364  0.06334973  1
  Zn  Zn138  1  0.81306169  0.56376349  0.55455214  1
  Zn  Zn139  1  0.44007475  0.43797413  0.18535795  1
  Zn  Zn140  1  0.44332792  0.43565717  0.69274872  1
  Zn  Zn141  1  0.44211112  0.93744192  0.18819594  1
  Zn  Zn142  1  0.43603171  0.93931076  0.68459500  1
  Zn  Zn143  1  0.80814634  0.43916823  0.18726002  1
  Zn  Zn144  1  0.93441530  0.43811746  0.68636034  1
  Zn  Zn145  1  0.93652597  0.93222383  0.18835102  1
  Zn  Zn146  1  0.98570853  0.91790845  0.67322573  1
  Zn  Zn147  1  0.07635622  0.03504800  0.32751478  1
  Zn  Zn148  1  0.05980646  0.05968500  0.81203016  1
  Zn  Zn149  1  0.05710917  0.56426936  0.31113400  1
  Zn  Zn150  1  0.06507350  0.56334879  0.81352227  1
  Zn  Zn151  1  0.56825064  0.06598160  0.30525904  1
  Zn  Zn152  1  0.56113491  0.05409778  0.80266518  1
  Zn  Zn153  1  0.55473484  0.56786932  0.31417698  1
  Zn  Zn154  1  0.56639301  0.56439076  0.80226859  1
  Zn  Zn155  1  0.43992214  0.18075306  0.44095000  1
  Zn  Zn156  1  0.41701291  0.18564940  0.94091848  1
  Zn  Zn157  1  0.43042491  0.68463998  0.43618415  1
  Zn  Zn158  1  0.43753827  0.68276516  0.94226970  1
  Zn  Zn159  1  0.94016437  0.17849567  0.43695365  1
  Zn  Zn160  1  0.93487888  0.18673345  0.93800712  1
  Zn  Zn161  1  0.93277001  0.68675342  0.44171254  1
  Zn  Zn162  1  0.93842457  0.68478262  0.94220042  1
  Zn  Zn163  1  0.05409807  0.31333709  0.06575939  1
  Zn  Zn164  1  0.06399177  0.30777519  0.56212070  1
  Zn  Zn165  1  0.06524503  0.81104089  0.06414099  1
  Zn  Zn166  1  0.06786243  0.80893517  0.56428375  1
  Zn  Zn167  1  0.55962550  0.32304847  0.06480534  1
  Zn  Zn168  1  0.56697518  0.30924850  0.56622493  1
  Zn  Zn169  1  0.57969613  0.77825451  0.07789369  1
  Zn  Zn170  1  0.55544405  0.81496796  0.55576798  1
  O  O171  1  0.11872584  0.12113656  0.11597302  1
  O  O172  1  0.11090988  0.12811275  0.63084381  1
  O  O173  1  0.12508542  0.62539696  0.10977439  1
  O  O174  1  0.11665804  0.61987552  0.61202711  1
  O  O175  1  0.60931556  0.12908570  0.12156561  1
  O  O176  1  0.62198784  0.11673888  0.61916675  1
  O  O177  1  0.61340268  0.66675290  0.11604997  1
  O  O178  1  0.61405413  0.61784890  0.62443853  1
  O  O179  1  0.37222607  0.39186790  0.37806408  1
  O  O180  1  0.36337426  0.38746064  0.88515038  1
  O  O181  1  0.38457015  0.87856273  0.38736415  1
  O  O182  1  0.38682254  0.87679214  0.88168756  1
  O  O183  1  0.88095194  0.38024951  0.38264662  1
  O  O184  1  0.87727690  0.38482399  0.88109819  1
  O  O185  1  0.86969972  0.88711305  0.37359622  1
  O  O186  1  0.88043292  0.88443700  0.88243861  1
  O  O187  1  0.25504918  0.00349564  0.36047434  1
  O  O188  1  0.25651592  0.00676788  0.87510090  1
  O  O189  1  0.25434745  0.49642377  0.35838141  1
  O  O190  1  0.25824048  0.50893902  0.86772467  1
  O  O191  1  0.75713856  0.00677628  0.38078657  1
  O  O192  1  0.75687666  0.00124331  0.87363301  1
  O  O193  1  0.76035376  0.51315883  0.39047103  1
  O  O194  1  0.76688088  0.51866082  0.88196140  1
  O  O195  1  0.25323247  0.48979357  0.13549150  1
  O  O196  1  0.24933441  0.49357506  0.63120143  1
  O  O197  1  0.24535611  0.99234735  0.12456802  1
  O  O198  1  0.24938553  1.00271848  0.63859084  1
  O  O199  1  0.74148192  0.51098795  0.13611374  1
  O  O200  1  0.74082436  0.49348826  0.60913245  1
  O  O201  1  0.75442846  0.98177598  0.11536972  1
  O  O202  1  0.73852034  1.00095436  0.63500663  1
  O  O203  1  -0.00588927  0.35838382  0.26361284  1
  O  O204  1  0.00610806  0.37498407  0.75481413  1
  O  O205  1  0.00041424  0.85590448  0.24548199  1
  O  O206  1  -0.01213943  0.86657183  0.77587369  1
  O  O207  1  0.48991493  0.35905414  0.25672652  1
  O  O208  1  0.49788582  0.36385525  0.75593425  1
  O  O209  1  0.49316302  0.86960444  0.26786048  1
  O  O210  1  0.49176674  0.86251008  0.75652979  1
  O  O211  1  0.49209570  0.13365109  0.24098571  1
  O  O212  1  0.49193653  0.12726551  0.74569840  1
  O  O213  1  0.49818367  0.64308406  0.24995411  1
  O  O214  1  0.49467758  0.63729153  0.74025592  1
  O  O215  1  0.99839158  0.12472451  0.24442012  1
  O  O216  1  0.99050311  0.12264229  0.74410437  1
  O  O217  1  0.98777340  0.63324508  0.25001629  1
  O  O218  1  0.99438959  0.62120293  0.74084248  1
  O  O219  1  0.36324045  0.25867968  0.00774793  1
  O  O220  1  0.36408865  0.24569152  0.50145795  1
  O  O221  1  0.36548060  0.75586877  0.00843833  1
  O  O222  1  0.36650376  0.75679494  0.50485921  1
  O  O223  1  0.87206061  0.25683146  0.00995089  1
  O  O224  1  0.86923996  0.25356682  0.49535658  1
  O  O225  1  0.86860117  0.74540880  0.00962286  1
  O  O226  1  0.86745313  0.75322047  0.50956609  1
  O  O227  1  0.13557064  0.24605419  0.49370766  1
  O  O228  1  0.12610005  0.24761800  0.99512998  1
  O  O229  1  0.13588773  0.74334446  0.50254903  1
  O  O230  1  0.14011131  0.74298984  1.00329746  1
  O  O231  1  0.63323778  0.23558743  0.49780008  1
  O  O232  1  0.63202840  0.25060462  0.99567539  1
  O  O233  1  0.62907038  0.75439458  0.49138678  1
  O  O234  1  0.63519086  0.75215459  0.97880029  1
  O  O235  1  0.49091558  0.24570681  0.13100296  1
  O  O236  1  0.50092559  0.23540557  0.62578327  1
  O  O237  1  0.48359463  0.76538723  0.14032964  1
  O  O238  1  0.49439927  0.74518539  0.62783329  1
  O  O239  1  0.98941672  0.24658006  0.13624649  1
  O  O240  1  0.99495006  0.24035601  0.62903016  1
  O  O241  1  0.99203681  0.74522272  0.12438876  1
  O  O242  1  0.99066543  0.73214833  0.62120713  1
  O  O243  1  0.00826296  0.25035772  0.37138273  1
  O  O244  1  0.00463870  0.25752746  0.87395707  1
  O  O245  1  -0.00549664  0.74919139  0.36601783  1
  O  O246  1  0.00026014  0.76157439  0.88407825  1
  O  O247  1  0.50550346  0.24595453  0.36997433  1
  O  O248  1  0.51119443  0.23225604  0.88643163  1
  O  O249  1  0.50182168  0.75278094  0.37415085  1
  O  O250  1  0.50687741  0.75334699  0.86733150  1
  O  O251  1  0.24712268  0.13448525  0.49941994  1
  O  O252  1  0.24404326  0.13224705  0.99599868  1
  O  O253  1  0.24139586  0.63470120  0.49803800  1
  O  O254  1  0.24645865  0.62942921  0.99315663  1
  O  O255  1  0.74624424  0.12890830  0.49510786  1
  O  O256  1  0.75292215  0.12604433  0.98815704  1
  O  O257  1  0.75662988  0.64005141  0.48749781  1
  O  O258  1  0.74901430  0.63944678  0.99040594  1
  O  O259  1  0.25634819  0.37437701  0.01115767  1
  O  O260  1  0.24293916  0.36771763  0.51198830  1
  O  O261  1  0.25351541  0.86805966  0.00530857  1
  O  O262  1  0.26069105  0.87029679  0.49461016  1
  O  O263  1  0.76408963  0.36298713  -0.00144935  1
  O  O264  1  0.76274560  0.36163400  0.50463621  1
  O  O265  1  0.75007670  0.86285082  0.00588860  1
  O  O266  1  0.75332021  0.86129145  0.49995250  1
  O  O267  1  0.13249573  0.49852620  0.25097840  1
  O  O268  1  0.13227643  0.49200884  0.74842124  1
  O  O269  1  0.13948899  1.01519728  0.22961292  1
  O  O270  1  0.14168755  1.00150718  0.75665639  1
  O  O271  1  0.62754556  0.49213031  0.28114574  1
  O  O272  1  0.62508191  0.49751796  0.72775800  1
  O  O273  1  0.61504099  0.99364989  0.23638133  1
  O  O274  1  0.63577848  0.99791634  0.73829614  1
  O  O275  1  0.36619090  0.01189356  0.23666729  1
  O  O276  1  0.36832447  0.00886139  0.75477006  1
  O  O277  1  0.37155745  0.49931268  0.25891658  1
  O  O278  1  0.37055413  0.50737700  0.75517317  1
  O  O279  1  0.88434396  0.00716148  0.25926900  1
  O  O280  1  0.86656969  0.00949417  0.76183681  1
  O  O281  1  0.87134009  0.50784914  0.26285681  1
  O  O282  1  0.87473828  0.50901305  0.75890501  1
  O  O283  1  0.11737109  0.35907720  0.37713526  1
  O  O284  1  0.12132503  0.37293006  0.86485409  1
  O  O285  1  0.11306205  0.92499433  0.35515778  1
  O  O286  1  0.11492797  0.87718389  0.86989046  1
  O  O287  1  0.61680500  0.35473124  0.39075472  1
  O  O288  1  0.69277256  0.39120858  0.84021355  1
  O  O289  1  0.60815797  0.87274504  0.37978124  1
  O  O290  1  0.61274228  0.87023654  0.87399844  1
  O  O291  1  0.38055137  0.13974702  0.12540036  1
  O  O292  1  0.38554119  0.12481454  0.63263245  1
  O  O293  1  0.37608654  0.63779117  0.12229339  1
  O  O294  1  0.38152038  0.63505068  0.62914937  1
  O  O295  1  0.87980378  0.12967871  0.13654283  1
  O  O296  1  0.87927358  0.12569545  0.63535050  1
  O  O297  1  0.87447215  0.63511903  0.13430459  1
  O  O298  1  0.88079400  0.62516073  0.63070138  1
  O  O299  1  0.25394226  0.26006149  0.12313302  1
  O  O300  1  0.25312596  0.25810775  0.61838395  1
  O  O301  1  0.25512327  0.75756583  0.12141907  1
  O  O302  1  0.26157697  0.74746429  0.61626991  1
  O  O303  1  0.76071818  0.23254814  0.10964157  1
  O  O304  1  0.75360908  0.25265927  0.61291278  1
  O  O305  1  0.75996726  0.75777843  0.11710787  1
  O  O306  1  0.75971281  0.74131613  0.61833317  1
  O  O307  1  0.24512938  0.25119339  0.38189618  1
  O  O308  1  0.24325444  0.24366343  0.88085619  1
  O  O309  1  0.25339827  0.74957082  0.38362411  1
  O  O310  1  0.25971602  0.74066960  0.88446657  1
  O  O311  1  0.74284311  0.23986776  0.38553072  1
  O  O312  1  0.75953834  0.23454665  0.89035670  1
  O  O313  1  0.73963828  0.74826760  0.38291690  1
  O  O314  1  0.74940350  0.74532983  0.87649419  1
  O  O315  1  0.00417454  0.11742655  0.00643933  1
  O  O316  1  0.00334826  0.12011920  0.51185996  1
  O  O317  1  0.01034770  0.61490013  -0.00160158  1
  O  O318  1  0.00551941  0.61837924  0.50337450  1
  O  O319  1  0.50680189  0.12345660  -0.00121307  1
  O  O320  1  0.51170228  0.12234015  0.50916319  1
  O  O321  1  0.50471941  0.62168187  0.00719826  1
  O  O322  1  0.49274528  0.61736361  0.51049696  1
  O  O323  1  0.49650437  0.38448688  0.50515048  1
  O  O324  1  0.48301549  0.37600015  0.99996402  1
  O  O325  1  0.48593310  0.87749574  0.48772287  1
  O  O326  1  0.49575493  0.88108229  0.99299501  1
  O  O327  1  0.99673883  0.37580030  0.48999716  1
  O  O328  1  0.99135417  0.38071837  0.99314116  1
  O  O329  1  0.99836078  0.88855801  0.50163089  1
  O  O330  1  1.00883299  0.88341753  0.99087970  1
  O  O331  1  0.48566481  0.49850331  0.38756514  1
  O  O332  1  0.48902676  0.50858812  0.87123379  1
  O  O333  1  0.50064987  0.99411966  0.37332477  1
  O  O334  1  0.49667792  0.99196151  0.87969219  1
  O  O335  1  0.99317792  0.48988976  0.37610889  1
  O  O336  1  0.99092731  0.49699778  0.88033475  1
  O  O337  1  0.98470528  1.01578257  0.39685721  1
  O  O338  1  0.99512926  0.99122078  0.88285267  1
  O  O339  1  0.00708325  0.00017611  0.11905708  1
  O  O340  1  -0.01222427  0.01218993  0.60902242  1
  O  O341  1  -0.00294201  0.50361603  0.11286229  1
  O  O342  1  0.00003577  0.50793766  0.61661865  1
  O  O343  1  0.49154327  0.01195716  0.11196503  1
  O  O344  1  0.51508492  0.01076381  0.63639655  1
  O  O345  1  0.51496709  0.50122633  0.13190488  1
  O  O346  1  0.50100871  0.50633437  0.61575127  1
  O  O347  1  0.25113713  0.38406856  0.23631627  1
  O  O348  1  0.24248753  0.37895913  0.74356931  1
  O  O349  1  0.24820834  0.88275790  0.24284577  1
  O  O350  1  0.25538842  0.89106609  0.75498329  1
  O  O351  1  0.78723335  0.33269291  0.22358376  1
  O  O352  1  0.78155536  0.38061251  0.71749887  1
  O  O353  1  0.74960019  0.86887269  0.23526313  1
  O  O354  1  0.75746224  0.88518760  0.75608845  1
  O  O355  1  0.26114663  0.11887653  0.24753045  1
  O  O356  1  0.25576558  0.11631385  0.75418113  1
  O  O357  1  0.24424561  0.60925075  0.24712138  1
  O  O358  1  0.25625886  0.62045839  0.75495926  1
  O  O359  1  0.76215119  0.12720608  0.26355018  1
  O  O360  1  0.75475606  0.11555194  0.76269267  1
  O  O361  1  0.76285597  0.63982508  0.26507951  1
  O  O362  1  0.75832820  0.61930012  0.75710998  1
  O  O363  1  0.37547077  0.12773119  0.36072824  1
  O  O364  1  0.36660306  0.11684803  0.86747064  1
  O  O365  1  0.36624209  0.60447124  0.38306313  1
  O  O366  1  0.36635334  0.61932007  0.86974337  1
  O  O367  1  0.86668906  0.11573278  0.37059387  1
  O  O368  1  0.87016127  0.11337781  0.87204179  1
  O  O369  1  0.86944446  0.61755714  0.37036110  1
  O  O370  1  0.87353189  0.62148415  0.86717206  1
  O  O371  1  0.13853438  0.37077332  0.11971336  1
  O  O372  1  0.12904837  0.37490553  0.63641364  1
  O  O373  1  0.13625586  0.88228161  0.12794631  1
  O  O374  1  0.09100667  0.87972271  0.64522596  1
  O  O375  1  0.62988454  0.36449460  0.13585092  1
  O  O376  1  0.63754374  0.38286181  0.62008347  1
  O  O377  1  0.64277642  0.86720290  0.12451201  1
  O  O378  1  0.61700594  0.88858523  0.61996754  1
  O  O379  1  0.11645466  0.24366812  0.25609183  1
  O  O380  1  0.12336755  0.25902585  0.75723376  1
  O  O381  1  0.10827225  0.74617573  0.24953251  1
  O  O382  1  0.12451448  0.74336171  0.75364213  1
  O  O383  1  0.61454142  0.24032796  0.26488043  1
  O  O384  1  0.62756874  0.25602805  0.75250164  1
  O  O385  1  0.61460215  0.76128881  0.26685833  1
  O  O386  1  0.61758700  0.74795366  0.75778030  1
  O  O387  1  0.37750485  0.24410465  0.24397505  1
  O  O388  1  0.37347606  0.23489552  0.75085397  1
  O  O389  1  0.37795731  0.75410452  0.24363975  1
  O  O390  1  0.38105429  0.74688337  0.74011006  1
  O  O391  1  0.89227168  0.23060294  0.25454770  1
  O  O392  1  0.87078681  0.23423741  0.75433219  1
  O  O393  1  0.88500641  0.74376242  0.24477412  1
  O  O394  1  0.88109642  0.73461330  0.74458813  1
  O  O395  1  0.38372400  0.49912772  0.50057184  1
  O  O396  1  0.37709407  0.49437713  0.99216280  1
  O  O397  1  0.36903590  0.98956905  0.50538855  1
  O  O398  1  0.38365367  0.99498289  0.99273036  1
  O  O399  1  0.88403928  0.49217354  0.48900023  1
  O  O400  1  0.88031194  0.49474081  0.99554164  1
  O  O401  1  0.87835004  0.99412130  0.49506373  1
  O  O402  1  0.88917304  1.00531384  0.99419878  1
  O  O403  1  0.11871943  0.00489362  0.00899542  1
  O  O404  1  0.11180478  0.00381840  0.50203581  1
  O  O405  1  0.11614160  0.50651333  -0.00613368  1
  O  O406  1  0.11952740  0.50542591  0.49828756  1
  O  O407  1  0.61411216  -0.00411471  0.00718125  1
  O  O408  1  0.63342880  0.00820075  0.51347565  1
  O  O409  1  0.62391936  0.50054578  0.00077978  1
  O  O410  1  0.60585167  0.49812836  0.50381718  1
  O  O411  1  0.36775017  0.36614868  0.11968627  1
  O  O412  1  0.36299638  0.37294191  0.63206283  1
  O  O413  1  0.36362423  0.87257120  0.12040457  1
  O  O414  1  0.38325424  0.86801404  0.60956839  1
  O  O415  1  0.88342013  0.36847675  0.11472240  1
  O  O416  1  0.87989460  0.37272808  0.60599441  1
  O  O417  1  0.86605856  0.86340435  0.12765096  1
  O  O418  1  0.88710116  0.85846960  0.63120122  1
  O  O419  1  0.12939833  0.13457688  0.37598674  1
  O  O420  1  0.12652175  0.12996177  0.88059141  1
  O  O421  1  0.12730385  0.62056533  0.38516190  1
  O  O422  1  0.13944836  0.62015968  0.88369913  1
  O  O423  1  0.63146973  0.12803844  0.38336004  1
  O  O424  1  0.63146905  0.11714553  0.87726856  1
  O  O425  1  0.63232436  0.63694609  0.37546363  1
  O  O426  1  0.63715324  0.63219715  0.86912255  1
