# generated using pymatgen
data_V85Zn86O256
_symmetry_space_group_name_H-M   'P 1'
_cell_length_a   16.92306864
_cell_length_b   16.91608740
_cell_length_c   16.92889361
_cell_angle_alpha   90.03214946
_cell_angle_beta   89.97413388
_cell_angle_gamma   89.96692976
_symmetry_Int_Tables_number   1
_chemical_formula_structural   V85Zn86O256
_chemical_formula_sum   'V85 Zn86 O256'
_cell_volume   4846.26799711
_cell_formula_units_Z   1
loop_
 _symmetry_equiv_pos_site_id
 _symmetry_equiv_pos_as_xyz
  1  'x, y, z'
loop_
 _atom_site_type_symbol
 _atom_site_label
 _atom_site_symmetry_multiplicity
 _atom_site_fract_x
 _atom_site_fract_y
 _atom_site_fract_z
 _atom_site_occupancy
  V  V0  1  0.86918338  0.76040559  0.12697313  1
  V  V1  1  0.49610154  0.86898431  0.37283427  1
  V  V2  1  -0.00329756  0.11641505  0.62715098  1
  V  V3  1  0.36698015  0.75329554  0.62728106  1
  V  V4  1  0.38533297  0.12084255  0.75706008  1
  V  V5  1  0.62956323  0.12499253  0.49539104  1
  V  V6  1  0.38262005  0.49896676  0.88014795  1
  V  V7  1  0.49856433  0.12425368  0.12298091  1
  V  V8  1  0.49748739  -0.00500089  -0.00573784  1
  V  V9  1  0.75358594  0.49774562  0.24948632  1
  V  V10  1  0.00696516  0.51394504  0.50127091  1
  V  V11  1  0.12566025  0.49736421  0.12656863  1
  V  V12  1  0.86961562  0.00097837  0.38901902  1
  V  V13  1  0.87397646  0.87785719  -0.01126731  1
  V  V14  1  0.13494026  -0.00293633  0.62651312  1
  V  V15  1  0.49672987  0.75259168  0.24620001  1
  V  V16  1  0.49655394  0.62238383  0.11726758  1
  V  V17  1  0.36503162  0.87377322  -0.00612582  1
  V  V18  1  0.49892485  0.00062874  0.49978038  1
  V  V19  1  0.13128321  0.62875187  0.00327480  1
  V  V20  1  0.75598748  -0.00328396  0.75057925  1
  V  V21  1  0.63477347  0.49790385  0.62138808  1
  V  V22  1  0.62582549  0.87274355  0.74955203  1
  V  V23  1  0.12420729  0.11965805  0.00281232  1
  V  V24  1  0.62557462  -0.00254588  0.62531849  1
  V  V25  1  0.12060790  0.75562915  0.88092825  1
  V  V26  1  0.37189556  0.49948683  0.37728833  1
  V  V27  1  0.87230980  0.51233482  0.87540214  1
  V  V28  1  0.86344306  0.12073624  0.25323382  1
  V  V29  1  0.12335648  0.75511978  0.36858934  1
  V  V30  1  0.62209243  0.36892544  0.74542154  1
  V  V31  1  0.36700316  0.87708569  0.50510660  1
  V  V32  1  0.62066202  0.63290601  0.49275748  1
  V  V33  1  0.24936451  0.24538598  0.50040838  1
  V  V34  1  0.24084395  0.74880690  0.50406362  1
  V  V35  1  -0.00388571  0.24854314  0.24856825  1
  V  V36  1  0.24811630  0.49643831  0.25363487  1
  V  V37  1  0.75189153  0.25354344  0.50576655  1
  V  V38  1  0.49794129  0.62434683  0.62323279  1
  V  V39  1  0.25302467  0.11630927  0.87343953  1
  V  V40  1  0.24203800  0.62384327  0.38022617  1
  V  V41  1  0.00034888  0.11301648  0.12479135  1
  V  V42  1  0.00266265  0.25222417  0.74722345  1
  V  V43  1  0.87792300  0.62243961  0.25148690  1
  V  V44  1  0.87004965  0.38756099  0.50878080  1
  V  V45  1  0.00626892  0.88856610  0.38176911  1
  V  V46  1  0.12498798  0.50660883  0.63274359  1
  V  V47  1  0.12032209  0.25389755  0.37885644  1
  V  V48  1  0.75082188  0.50284973  0.75192436  1
  V  V49  1  0.87548094  0.37291975  -0.00264090  1
  V  V50  1  0.37986975  0.12449502  0.24864166  1
  V  V51  1  0.75189317  0.12213468  0.87476597  1
  V  V52  1  0.36235756  0.75094882  0.12149148  1
  V  V53  1  0.75137879  0.75672834  0.50114628  1
  V  V54  1  0.49896075  0.50036894  0.49859834  1
  V  V55  1  0.00341733  0.37555378  0.86893769  1
  V  V56  1  0.66769173  0.80826668  0.31518250  1
  V  V57  1  0.74497949  0.62187625  0.37126330  1
  V  V58  1  0.37023511  0.00134370  0.37034940  1
  V  V59  1  0.11889867  0.12226747  0.50614921  1
  V  V60  1  0.63042322  0.62004960  -0.00708558  1
  V  V61  1  0.49939282  0.25152865  0.24713978  1
  V  V62  1  0.38088037  0.24803862  0.63119309  1
  V  V63  1  0.00190403  0.49879105  -0.00007039  1
  V  V64  1  0.74971542  0.24866098  -0.00243400  1
  V  V65  1  0.63043276  0.24589677  0.37352389  1
  V  V66  1  0.38321881  0.37517285  0.00498959  1
  V  V67  1  0.23938101  0.89208196  0.13732415  1
  V  V68  1  0.25030637  0.62713251  0.87837226  1
  V  V69  1  0.12669538  0.87692305  0.75242596  1
  V  V70  1  0.62045125  0.49675013  0.11779574  1
  V  V71  1  0.62640958  0.37544083  0.24969456  1
  V  V72  1  0.00243230  0.74505805  0.74265226  1
  V  V73  1  0.37285730  0.37280610  0.50191898  1
  V  V74  1  0.49937094  0.74940044  0.75037024  1
  V  V75  1  -0.00054141  0.62536760  0.12744076  1
  V  V76  1  0.25241530  0.36620821  0.12836110  1
  V  V77  1  0.63359057  0.74553876  0.87180853  1
  V  V78  1  -0.01268436  0.38030139  0.37659693  1
  V  V79  1  0.25596026  0.24753076  0.00447293  1
  V  V80  1  0.22873933  0.11249374  0.34963499  1
  V  V81  1  0.37155971  0.62120275  0.75076215  1
  V  V82  1  0.13108640  0.25513610  0.87153809  1
  V  V83  1  0.62554433  0.12020669  0.00133985  1
  V  V84  1  0.62847151  -0.01792963  0.13070346  1
  Zn  Zn85  1  0.87471023  0.12876033  0.75074353  1
  Zn  Zn86  1  0.49961174  0.37050804  0.87141324  1
  Zn  Zn87  1  0.61899731  0.24700662  0.86899935  1
  Zn  Zn88  1  0.88912520  0.75050617  0.61178124  1
  Zn  Zn89  1  0.87571852  0.62763857  0.74122274  1
  Zn  Zn90  1  0.12146931  0.37300485  0.25079333  1
  Zn  Zn91  1  0.75019948  0.74939282  -0.00108927  1
  Zn  Zn92  1  0.37377643  0.62368693  0.24999484  1
  Zn  Zn93  1  0.88707904  -0.00165624  0.87054756  1
  Zn  Zn94  1  0.24462200  0.48634661  0.75645154  1
  Zn  Zn95  1  0.25833390  -0.00836312  0.75036646  1
  Zn  Zn96  1  0.50304030  0.12871685  0.62745691  1
  Zn  Zn97  1  0.87412369  0.24728699  0.12351208  1
  Zn  Zn98  1  0.00579092  0.76133468  0.24722725  1
  Zn  Zn99  1  0.00993783  -0.01407055  -0.00354780  1
  Zn  Zn100  1  0.23839739  0.36809735  0.63745789  1
  Zn  Zn101  1  0.49590929  0.87532932  0.87316021  1
  Zn  Zn102  1  0.75076665  0.37351286  0.12283058  1
  Zn  Zn103  1  0.50049896  0.37449139  0.37475386  1
  Zn  Zn104  1  0.74647090  -0.01371216  0.25106284  1
  Zn  Zn105  1  0.87318531  0.25469607  0.62858594  1
  Zn  Zn106  1  0.76682901  0.87890815  0.61877953  1
  Zn  Zn107  1  0.18131213  0.17638824  0.19202347  1
  Zn  Zn108  1  0.19062400  0.18808451  0.69132584  1
  Zn  Zn109  1  0.18887170  0.68540797  0.19108166  1
  Zn  Zn110  1  0.18400111  0.68224431  0.68993453  1
  Zn  Zn111  1  0.68524092  0.18546441  0.18189523  1
  Zn  Zn112  1  0.68915194  0.18496311  0.68443185  1
  Zn  Zn113  1  0.68834625  0.68101350  0.17887412  1
  Zn  Zn114  1  0.69038014  0.68283928  0.68359277  1
  Zn  Zn115  1  0.31111192  0.30722615  0.31459321  1
  Zn  Zn116  1  0.31757878  0.30965601  0.81401633  1
  Zn  Zn117  1  0.31043207  0.81194142  0.31034354  1
  Zn  Zn118  1  0.30562143  0.80907584  0.81424347  1
  Zn  Zn119  1  0.81113590  0.31023134  0.31656728  1
  Zn  Zn120  1  0.80950993  0.31796511  0.81058478  1
  Zn  Zn121  1  0.83434132  0.81358791  0.31831708  1
  Zn  Zn122  1  0.81412230  0.81150707  0.80903736  1
  Zn  Zn123  1  0.18241392  0.43449550  0.44556562  1
  Zn  Zn124  1  0.19244942  0.43750469  0.93888037  1
  Zn  Zn125  1  0.18500243  0.93781157  0.43999713  1
  Zn  Zn126  1  0.18906750  0.93581715  0.94002880  1
  Zn  Zn127  1  0.68822528  0.43868013  0.43464545  1
  Zn  Zn128  1  0.68765148  0.43642857  0.93208782  1
  Zn  Zn129  1  0.69081101  0.94462839  0.43649379  1
  Zn  Zn130  1  0.69077585  0.93205609  0.93921416  1
  Zn  Zn131  1  0.31403717  0.05867039  0.06299979  1
  Zn  Zn132  1  0.31154153  0.06770394  0.56139479  1
  Zn  Zn133  1  0.31205623  0.55789424  0.06402794  1
  Zn  Zn134  1  0.30449609  0.56253195  0.56617810  1
  Zn  Zn135  1  0.81099943  0.05715039  0.06706965  1
  Zn  Zn136  1  0.80928425  0.06987036  0.56653793  1
  Zn  Zn137  1  0.81089312  0.56250650  0.06389400  1
  Zn  Zn138  1  0.81513943  0.57152435  0.56253606  1
  Zn  Zn139  1  0.43611329  0.43646165  0.18764200  1
  Zn  Zn140  1  0.43628737  0.43760170  0.68628686  1
  Zn  Zn141  1  0.43466393  0.93625021  0.18342438  1
  Zn  Zn142  1  0.43827394  0.93860853  0.68725029  1
  Zn  Zn143  1  0.93577165  0.43562519  0.18558663  1
  Zn  Zn144  1  0.94157260  0.44330258  0.68596416  1
  Zn  Zn145  1  0.94066829  0.93769080  0.19306340  1
  Zn  Zn146  1  0.94279832  0.92857199  0.68634169  1
  Zn  Zn147  1  0.05760313  0.06524168  0.31368267  1
  Zn  Zn148  1  0.06451212  0.06320445  0.81318024  1
  Zn  Zn149  1  0.06338460  0.56210327  0.31708194  1
  Zn  Zn150  1  0.06245106  0.56495327  0.81375870  1
  Zn  Zn151  1  0.56341542  0.05826473  0.31223174  1
  Zn  Zn152  1  0.56568604  0.06109140  0.81398366  1
  Zn  Zn153  1  0.56037563  0.56332191  0.30791520  1
  Zn  Zn154  1  0.56130943  0.55947266  0.80989910  1
  Zn  Zn155  1  0.44070060  0.18637326  0.43525184  1
  Zn  Zn156  1  0.43948267  0.19067795  0.93710859  1
  Zn  Zn157  1  0.42996101  0.68843698  0.43665827  1
  Zn  Zn158  1  0.44039441  0.69049137  0.93802030  1
  Zn  Zn159  1  0.93440916  0.18687959  0.43931641  1
  Zn  Zn160  1  0.93987229  0.18365894  0.93446421  1
  Zn  Zn161  1  0.93581690  0.69019808  0.42978350  1
  Zn  Zn162  1  0.94318684  0.69188167  0.94084158  1
  Zn  Zn163  1  0.06513273  0.30768469  0.06177358  1
  Zn  Zn164  1  0.05938092  0.31786243  0.56530449  1
  Zn  Zn165  1  0.06134066  0.81217286  0.06544642  1
  Zn  Zn166  1  0.06256986  0.81991042  0.56230626  1
  Zn  Zn167  1  0.56471541  0.30778411  0.06141715  1
  Zn  Zn168  1  0.56218056  0.31492861  0.56297580  1
  Zn  Zn169  1  0.55790607  0.80755247  0.05734251  1
  Zn  Zn170  1  0.55997843  0.81320057  0.56160235  1
  O  O171  1  0.11252481  0.13190502  0.11467863  1
  O  O172  1  0.11972687  0.12139377  0.62272439  1
  O  O173  1  0.12107103  0.61957470  0.12085933  1
  O  O174  1  0.13192292  0.60790242  0.62007461  1
  O  O175  1  0.61500002  0.11556693  0.11958994  1
  O  O176  1  0.62298760  0.11415036  0.61893647  1
  O  O177  1  0.61642159  0.61601130  0.11641151  1
  O  O178  1  0.61739005  0.61790840  0.61397598  1
  O  O179  1  0.37419438  0.37805939  0.38710868  1
  O  O180  1  0.37650625  0.38180577  0.88641718  1
  O  O181  1  0.37808076  0.88170360  0.38077760  1
  O  O182  1  0.37318034  0.86743861  0.88938480  1
  O  O183  1  0.88272524  0.37395456  0.38407238  1
  O  O184  1  0.88327550  0.38167310  0.88380490  1
  O  O185  1  0.88567505  0.89351745  0.37995600  1
  O  O186  1  0.87562636  0.87523855  0.88565599  1
  O  O187  1  0.26037347  0.00786549  0.38260851  1
  O  O188  1  0.24848970  0.01339900  0.87526892  1
  O  O189  1  0.25007946  0.50449497  0.37522130  1
  O  O190  1  0.25801762  0.51002579  0.87587796  1
  O  O191  1  0.76436765  -0.00011138  0.36995418  1
  O  O192  1  0.75166400  0.00514723  0.86639396  1
  O  O193  1  0.74583842  0.51197398  0.36447862  1
  O  O194  1  0.76170628  0.49749080  0.86713157  1
  O  O195  1  0.24422531  0.49101189  0.13410823  1
  O  O196  1  0.23826424  0.49480050  0.62801008  1
  O  O197  1  0.24894543  0.99229779  0.12872518  1
  O  O198  1  0.23862836  1.00815004  0.62809877  1
  O  O199  1  0.74002865  0.49774674  0.13172328  1
  O  O200  1  0.73860908  0.50441293  0.62563333  1
  O  O201  1  0.73320251  0.99873688  0.12979637  1
  O  O202  1  0.74362496  0.99847462  0.63149651  1
  O  O203  1  -0.00335502  0.36807968  0.25834955  1
  O  O204  1  -0.00235665  0.37169267  0.76258382  1
  O  O205  1  -0.00517364  0.87460131  0.26929648  1
  O  O206  1  0.01651541  0.86284720  0.75258170  1
  O  O207  1  0.50779384  0.36784441  0.24993169  1
  O  O208  1  0.51708522  0.38216201  0.74788301  1
  O  O209  1  0.49399059  0.86204952  0.25509412  1
  O  O210  1  0.50643662  0.86840708  0.75096602  1
  O  O211  1  0.49627183  0.13025896  0.24515806  1
  O  O212  1  0.48975522  0.12109489  0.74995547  1
  O  O213  1  0.49703164  0.63532151  0.24023495  1
  O  O214  1  0.49239707  0.62993654  0.74335487  1
  O  O215  1  0.99041966  0.13116825  0.24249507  1
  O  O216  1  0.99855777  0.13537810  0.74362896  1
  O  O217  1  0.99155980  0.62180785  0.24650075  1
  O  O218  1  1.00252854  0.64078517  0.75267894  1
  O  O219  1  0.36206902  0.25546428  0.00027560  1
  O  O220  1  0.36807948  0.25316571  0.50225415  1
  O  O221  1  0.38025319  0.76307385  0.00869590  1
  O  O222  1  0.36620306  0.75806664  0.50787990  1
  O  O223  1  0.86902860  0.25678966  -0.00252453  1
  O  O224  1  0.86694555  0.26070697  0.49963327  1
  O  O225  1  0.87464902  0.75586262  0.01039627  1
  O  O226  1  0.85386952  0.74673899  0.48965245  1
  O  O227  1  0.13080640  0.24608469  0.49867690  1
  O  O228  1  0.13558030  0.24218529  0.99335328  1
  O  O229  1  0.13744976  0.75834673  0.49249570  1
  O  O230  1  0.11993957  0.73925413  0.99470641  1
  O  O231  1  0.62895460  0.24583355  0.49389919  1
  O  O232  1  0.63491306  0.23932002  0.99980833  1
  O  O233  1  0.62722921  0.73831428  0.49940640  1
  O  O234  1  0.62563493  0.74081016  0.98997295  1
  O  O235  1  0.50766727  0.23735706  0.13480007  1
  O  O236  1  0.48528895  0.24802008  0.61697765  1
  O  O237  1  0.49083639  0.74361954  0.13055941  1
  O  O238  1  0.48935563  0.74462488  0.62925404  1
  O  O239  1  0.99717837  0.24795412  0.13834788  1
  O  O240  1  1.00113066  0.24594736  0.63556243  1
  O  O241  1  0.99073684  0.74132035  0.12909874  1
  O  O242  1  1.01058790  0.75046311  0.63891054  1
  O  O243  1  0.00131442  0.25690703  0.36796892  1
  O  O244  1  0.00911118  0.25601624  0.86931885  1
  O  O245  1  0.00836687  0.75898613  0.37298606  1
  O  O246  1  0.01606661  0.74510501  0.86832792  1
  O  O247  1  0.51338325  0.25168951  0.36894581  1
  O  O248  1  0.50677798  0.25646704  0.88019036  1
  O  O249  1  0.49158417  0.76051996  0.36736902  1
  O  O250  1  0.50886780  0.75080359  0.86473278  1
  O  O251  1  0.24136058  0.13403339  0.49091708  1
  O  O252  1  0.24730478  0.13060240  0.99666941  1
  O  O253  1  0.25645665  0.63692255  0.49150938  1
  O  O254  1  0.23842920  0.61930484  0.99697823  1
  O  O255  1  0.73711147  0.13481156  0.50139642  1
  O  O256  1  0.74821547  0.12849144  0.99454143  1
  O  O257  1  0.74087598  0.63335912  0.48753762  1
  O  O258  1  0.73484536  0.62689781  1.00407735  1
  O  O259  1  0.25597800  0.36635306  0.00908116  1
  O  O260  1  0.25589547  0.35948379  0.49782218  1
  O  O261  1  0.26205900  0.87890797  0.00998605  1
  O  O262  1  0.26117509  0.86808477  0.49628421  1
  O  O263  1  0.75741391  0.36601953  -0.00329098  1
  O  O264  1  0.76364940  0.37278908  0.49416707  1
  O  O265  1  0.76605335  0.86758931  -0.00021846  1
  O  O266  1  0.73911408  0.85994155  0.49773696  1
  O  O267  1  0.13144116  0.49513543  0.24718370  1
  O  O268  1  0.12237356  0.50247072  0.73803694  1
  O  O269  1  0.16357345  1.07412954  0.27360828  1
  O  O270  1  0.12911594  0.99354098  0.74491686  1
  O  O271  1  0.63327176  0.49630134  0.24060772  1
  O  O272  1  0.63077726  0.49617105  0.73992850  1
  O  O273  1  0.62413511  0.99755638  0.23650874  1
  O  O274  1  0.63390473  0.99540827  0.74282959  1
  O  O275  1  0.38207546  0.00982693  0.25966313  1
  O  O276  1  0.37417043  0.01476647  0.74561024  1
  O  O277  1  0.36645418  0.49751460  0.26099634  1
  O  O278  1  0.37343463  0.50618872  0.75837784  1
  O  O279  1  0.86920629  0.00970018  0.25367468  1
  O  O280  1  0.86486220  -0.00106408  0.74968310  1
  O  O281  1  0.86173063  0.50612271  0.24199265  1
  O  O282  1  0.86983985  0.50121873  0.75746348  1
  O  O283  1  0.11345312  0.36430643  0.37896237  1
  O  O284  1  0.11844600  0.36370444  0.88453633  1
  O  O285  1  0.11668194  0.87279816  0.37478439  1
  O  O286  1  0.13125154  0.86451713  0.87201152  1
  O  O287  1  0.62330013  0.36818539  0.36708530  1
  O  O288  1  0.62223698  0.37689214  0.85907763  1
  O  O289  1  0.61305751  0.87647601  0.37720525  1
  O  O290  1  0.62314744  0.86498446  0.86736225  1
  O  O291  1  0.39001650  0.11703067  0.13175322  1
  O  O292  1  0.37776989  0.13125877  0.63444078  1
  O  O293  1  0.38043343  0.63066143  0.12375488  1
  O  O294  1  0.37858994  0.63135219  0.62932870  1
  O  O295  1  0.88070208  0.12550457  0.13543783  1
  O  O296  1  0.88354557  0.13136066  0.62899218  1
  O  O297  1  0.87927889  0.63003146  0.13323567  1
  O  O298  1  0.87214862  0.63962974  0.62715423  1
  O  O299  1  0.24104400  0.25795750  0.11958558  1
  O  O300  1  0.25988179  0.24732587  0.61564430  1
  O  O301  1  0.26065622  0.74886625  0.12771471  1
  O  O302  1  0.25919447  0.74373440  0.61947712  1
  O  O303  1  0.75228082  0.25061302  0.11082174  1
  O  O304  1  0.75090071  0.24933380  0.61059580  1
  O  O305  1  0.76606983  0.74382823  0.12311541  1
  O  O306  1  0.74215575  0.75230155  0.60643798  1
  O  O307  1  0.23649029  0.23908936  0.37831915  1
  O  O308  1  0.24557724  0.24298647  0.88425926  1
  O  O309  1  0.24543611  0.74395953  0.38155261  1
  O  O310  1  0.23951589  0.73436194  0.87507015  1
  O  O311  1  0.73752056  0.25277530  0.38544362  1
  O  O312  1  0.74623527  0.24303520  0.88263080  1
  O  O313  1  0.74091533  0.74677049  0.37525775  1
  O  O314  1  0.73739873  0.74866881  0.87197337  1
  O  O315  1  0.00823059  0.13246452  0.01140144  1
  O  O316  1  0.00846172  0.13514517  0.51403078  1
  O  O317  1  0.00950381  0.61815738  0.00739918  1
  O  O318  1  -0.00820974  0.61128280  0.49086641  1
  O  O319  1  0.50221868  0.11581652  0.00703184  1
  O  O320  1  0.51054600  0.11801906  0.50052725  1
  O  O321  1  0.50820232  0.62888642  0.01197847  1
  O  O322  1  0.50373618  0.62175153  0.50081659  1
  O  O323  1  0.49086264  0.38193892  0.49756406  1
  O  O324  1  0.48552020  0.37083284  1.00806351  1
  O  O325  1  0.48859310  0.87803783  0.49201182  1
  O  O326  1  0.48862015  0.87979345  0.99866228  1
  O  O327  1  0.98648055  0.38137855  0.49385417  1
  O  O328  1  0.99448267  0.37670759  0.99151559  1
  O  O329  1  1.00192266  0.87294479  0.48183931  1
  O  O330  1  0.98116589  0.87266703  1.00924636  1
  O  O331  1  0.49081332  0.49961789  0.37960713  1
  O  O332  1  0.48618132  0.49752421  0.87429557  1
  O  O333  1  0.49100807  0.98955332  0.37925055  1
  O  O334  1  0.50652653  0.99685613  0.88998469  1
  O  O335  1  1.00464032  0.49044945  0.38714993  1
  O  O336  1  0.99675755  0.49220349  0.88047615  1
  O  O337  1  0.99282635  0.99604043  0.37510149  1
  O  O338  1  0.99756507  1.01487870  0.88645142  1
  O  O339  1  -0.00157929  0.00998282  0.12200157  1
  O  O340  1  0.00965369  0.01304988  0.63411357  1
  O  O341  1  0.00578187  0.50406961  0.12027110  1
  O  O342  1  0.00916293  0.50001371  0.61147131  1
  O  O343  1  0.50886857  0.00259766  0.11701115  1
  O  O344  1  0.50854913  0.00140647  0.61677601  1
  O  O345  1  0.50838181  0.50953866  0.13264915  1
  O  O346  1  0.50545491  0.50662192  0.61646114  1
  O  O347  1  0.24736904  0.37616988  0.24551305  1
  O  O348  1  0.25126722  0.37240384  0.75076644  1
  O  O349  1  0.25352037  0.87573735  0.23653979  1
  O  O350  1  0.23634340  0.87481246  0.75274869  1
  O  O351  1  0.74673847  0.38144618  0.24846338  1
  O  O352  1  0.73810504  0.38915147  0.75036062  1
  O  O353  1  0.74152255  0.86479669  0.26578832  1
  O  O354  1  0.74385936  0.88087985  0.74587106  1
  O  O355  1  0.27841088  0.15420725  0.25114046  1
  O  O356  1  0.26033909  0.12369833  0.75989342  1
  O  O357  1  0.25191455  0.61394205  0.25952080  1
  O  O358  1  0.25630531  0.62049329  0.76109713  1
  O  O359  1  0.76235869  0.12691954  0.24673019  1
  O  O360  1  0.75037223  0.11646537  0.75699697  1
  O  O361  1  0.75317009  0.61760923  0.25341917  1
  O  O362  1  0.75052403  0.60972041  0.74747719  1
  O  O363  1  0.37123035  0.11656103  0.36822292  1
  O  O364  1  0.36988166  0.12899642  0.86381871  1
  O  O365  1  0.36279476  0.61735486  0.37379312  1
  O  O366  1  0.36914200  0.62002218  0.87493963  1
  O  O367  1  0.88319418  0.11457378  0.36205640  1
  O  O368  1  0.86179377  0.12389631  0.87320186  1
  O  O369  1  0.86282220  0.63115779  0.35822594  1
  O  O370  1  0.88292262  0.61412618  0.87576911  1
  O  O371  1  0.13309758  0.37944411  0.12633112  1
  O  O372  1  0.12711990  0.39423860  0.61193402  1
  O  O373  1  0.14123358  0.87147455  0.12065496  1
  O  O374  1  0.12249627  0.88829349  0.63321472  1
  O  O375  1  0.62689238  0.38152041  0.12957252  1
  O  O376  1  0.62245315  0.38522197  0.63215980  1
  O  O377  1  0.61963201  0.88348498  0.12079986  1
  O  O378  1  0.62461192  0.88644582  0.62810990  1
  O  O379  1  0.11346384  0.25020911  0.26173456  1
  O  O380  1  0.11593899  0.24723421  0.75984719  1
  O  O381  1  0.12540889  0.74683187  0.26424312  1
  O  O382  1  0.12082212  0.75373233  0.75816038  1
  O  O383  1  0.62151270  0.25274431  0.25569505  1
  O  O384  1  0.63286216  0.26532118  0.74552480  1
  O  O385  1  0.61678891  0.74595660  0.24606237  1
  O  O386  1  0.62058903  0.75140376  0.75185443  1
  O  O387  1  0.39537321  0.24802688  0.25989784  1
  O  O388  1  0.37365790  0.23547267  0.74156995  1
  O  O389  1  0.38082817  0.74626378  0.24083004  1
  O  O390  1  0.37706390  0.74430590  0.74352440  1
  O  O391  1  0.87897537  0.23945503  0.25144377  1
  O  O392  1  0.88639774  0.25311936  0.75091801  1
  O  O393  1  0.87902932  0.74162659  0.24010653  1
  O  O394  1  0.89479955  0.75002130  0.75714274  1
  O  O395  1  0.37539401  0.49155345  0.49651745  1
  O  O396  1  0.36909454  0.48792149  0.99315697  1
  O  O397  1  0.37808732  0.99481574  0.49511615  1
  O  O398  1  0.38337954  0.98450253  1.00512177  1
  O  O399  1  0.88065940  0.49134059  0.50317615  1
  O  O400  1  0.87962459  0.49422471  0.99419510  1
  O  O401  1  0.87040223  1.01282584  0.48709227  1
  O  O402  1  0.87270033  0.98482464  1.00149355  1
  O  O403  1  0.12710920  0.01542228  -0.00246895  1
  O  O404  1  0.12843885  0.01345619  0.50911994  1
  O  O405  1  0.12034855  0.50549470  0.00596805  1
  O  O406  1  0.11173964  0.50403535  0.50300183  1
  O  O407  1  0.62027476  0.00122104  0.00890833  1
  O  O408  1  0.62267688  0.00714046  0.50570101  1
  O  O409  1  0.62774185  0.50264012  0.00926903  1
  O  O410  1  0.62072179  0.50777703  0.50400272  1
  O  O411  1  0.36201060  0.37870514  0.12030790  1
  O  O412  1  0.37201554  0.36827690  0.61433498  1
  O  O413  1  0.36590112  0.86793691  0.11736219  1
  O  O414  1  0.37871024  0.86607386  0.61703297  1
  O  O415  1  0.87386189  0.37290392  0.10947728  1
  O  O416  1  0.87899578  0.37481777  0.61159281  1
  O  O417  1  0.87532596  0.86215637  0.12812421  1
  O  O418  1  0.87873278  0.86313875  0.62302176  1
  O  O419  1  0.11511046  0.13916963  0.39248871  1
  O  O420  1  0.13506455  0.13733040  0.88082076  1
  O  O421  1  0.13552668  0.63414393  0.37555193  1
  O  O422  1  0.13231002  0.62742115  0.88524839  1
  O  O423  1  0.62086718  0.13121448  0.38287188  1
  O  O424  1  0.63695666  0.12347213  0.88172040  1
  O  O425  1  0.63092637  0.62183888  0.38034245  1
  O  O426  1  0.61650979  0.62936445  0.88334156  1
