# generated using pymatgen
data_V85Zn86O256
_symmetry_space_group_name_H-M   'P 1'
_cell_length_a   16.92712710
_cell_length_b   16.92845209
_cell_length_c   16.92568697
_cell_angle_alpha   90.00636291
_cell_angle_beta   89.88310175
_cell_angle_gamma   90.04116745
_symmetry_Int_Tables_number   1
_chemical_formula_structural   V85Zn86O256
_chemical_formula_sum   'V85 Zn86 O256'
_cell_volume   4850.04524180
_cell_formula_units_Z   1
loop_
 _symmetry_equiv_pos_site_id
 _symmetry_equiv_pos_as_xyz
  1  'x, y, z'
loop_
 _atom_site_type_symbol
 _atom_site_label
 _atom_site_symmetry_multiplicity
 _atom_site_fract_x
 _atom_site_fract_y
 _atom_site_fract_z
 _atom_site_occupancy
  V  V0  1  0.50673914  0.24116423  0.24727362  1
  V  V1  1  0.25775821  0.50853164  0.25043213  1
  V  V2  1  0.37858491  0.87513182  0.49894211  1
  V  V3  1  0.12429711  0.12886749  0.00209099  1
  V  V4  1  -0.00169351  0.38213135  0.87532928  1
  V  V5  1  0.87383486  0.50861300  0.87187990  1
  V  V6  1  0.12535479  0.75022041  0.37680345  1
  V  V7  1  -0.00121115  0.87720592  0.37683779  1
  V  V8  1  0.25801616  0.25510560  0.00118602  1
  V  V9  1  0.13401274  0.37798315  0.74539741  1
  V  V10  1  0.12350669  0.25225101  0.87204657  1
  V  V11  1  0.75509092  -0.00545604  0.74701560  1
  V  V12  1  0.86238942  0.12675019  0.25696415  1
  V  V13  1  0.61933212  0.87792238  0.76053980  1
  V  V14  1  0.25134980  0.87164390  0.12684202  1
  V  V15  1  0.75119964  -0.02291541  0.24969409  1
  V  V16  1  0.00043087  0.00139327  0.50054435  1
  V  V17  1  0.61954790  0.62496076  -0.00015315  1
  V  V18  1  0.87581754  0.38712067  -0.00093031  1
  V  V19  1  0.49519507  0.75148927  0.25089463  1
  V  V20  1  0.25451980  0.12665009  0.37663263  1
  V  V21  1  0.00066655  0.25061008  0.25138967  1
  V  V22  1  0.24465186  0.88092766  0.62299854  1
  V  V23  1  0.62135996  0.50061406  0.62145428  1
  V  V24  1  0.62014255  0.24869709  0.86769550  1
  V  V25  1  0.87515638  0.25103378  0.12393085  1
  V  V26  1  0.25182707  0.00019092  0.24976092  1
  V  V27  1  0.12632232  0.25391458  0.37704585  1
  V  V28  1  0.74788984  0.75309518  0.50604054  1
  V  V29  1  -0.00446285  0.38690707  0.37528142  1
  V  V30  1  0.12466511  0.38096424  0.24701576  1
  V  V31  1  0.87773255  0.00008836  0.87299227  1
  V  V32  1  0.49326791  0.62146842  0.13239002  1
  V  V33  1  0.13364128  0.49726729  0.62779689  1
  V  V34  1  -0.00276121  0.12486760  0.62785538  1
  V  V35  1  0.37942615  0.00094568  0.37413666  1
  V  V36  1  0.49770633  0.75186007  0.76041085  1
  V  V37  1  0.23591443  0.74492786  -0.00381707  1
  V  V38  1  0.75335304  0.50076763  0.25520313  1
  V  V39  1  0.75150063  0.24771175  -0.00254312  1
  V  V40  1  0.38265173  0.12139766  0.23621260  1
  V  V41  1  0.75317032  0.62010866  0.37840465  1
  V  V42  1  0.62517862  -0.00799735  0.13224603  1
  V  V43  1  0.88006560  0.61849419  0.25462101  1
  V  V44  1  0.62529915  0.49976091  0.12643098  1
  V  V45  1  -0.00807126  0.25107025  0.74938472  1
  V  V46  1  0.37525580  0.12213243  0.74576314  1
  V  V47  1  0.11997938  0.50488497  0.11210662  1
  V  V48  1  -0.00186695  0.12445988  0.12699633  1
  V  V49  1  0.38777091  -0.00736316  0.86858529  1
  V  V50  1  0.23715558  0.62317495  0.87244255  1
  V  V51  1  0.75202940  0.37719102  0.12602909  1
  V  V52  1  0.12465899  0.87585465  0.25089724  1
  V  V53  1  0.87112911  0.38231867  0.49760333  1
  V  V54  1  0.75041087  0.50069804  0.74828988  1
  V  V55  1  0.64045926  0.12722434  0.49915805  1
  V  V56  1  0.38366049  0.86806660  -0.00254475  1
  V  V57  1  0.50057458  0.00573771  0.00636406  1
  V  V58  1  0.12928534  0.13080685  0.50043977  1
  V  V59  1  0.02167156  0.75239609  0.75484886  1
  V  V60  1  0.87302728  0.87406903  0.50792908  1
  V  V61  1  0.74461576  0.62858985  0.87147520  1
  V  V62  1  0.31103582  0.30832223  0.44330913  1
  V  V63  1  0.87037846  0.74521110  0.63863441  1
  V  V64  1  0.50178664  0.13513583  0.62628762  1
  V  V65  1  0.48184920  0.49620934  0.49490091  1
  V  V66  1  -0.00033475  0.74806696  0.24877393  1
  V  V67  1  0.12088692  0.62577956  0.50142753  1
  V  V68  1  -0.00104289  0.62544376  0.10587628  1
  V  V69  1  0.25998206  0.62566459  0.37326204  1
  V  V70  1  0.24984762  0.12312136  0.86943700  1
  V  V71  1  0.19308125  -0.05747398  0.79857885  1
  V  V72  1  0.62361306  0.37525597  0.25481782  1
  V  V73  1  0.37607474  0.74998024  0.62689264  1
  V  V74  1  0.50378871  0.00243811  0.50024521  1
  V  V75  1  0.37226610  0.61423154  0.75180104  1
  V  V76  1  0.62713613  -0.00672871  0.62534502  1
  V  V77  1  0.62721122  0.75398045  0.36917122  1
  V  V78  1  0.87122960  0.87342932  0.00463274  1
  V  V79  1  0.63873852  0.24511628  0.37976655  1
  V  V80  1  0.74662368  0.36944656  0.62166420  1
  V  V81  1  0.75489206  0.12354050  0.86959836  1
  V  V82  1  0.36358325  0.26088961  0.62952564  1
  V  V83  1  0.87267281  0.24953057  0.61876425  1
  V  V84  1  0.37277323  0.49502643  0.88476633  1
  Zn  Zn85  1  0.37104388  0.74157138  0.12744204  1
  Zn  Zn86  1  0.49851449  0.62328262  0.62492184  1
  Zn  Zn87  1  -0.00516987  0.62173302  0.63484797  1
  Zn  Zn88  1  0.49102899  0.37462237  0.37759346  1
  Zn  Zn89  1  -0.00094226  -0.00087545  -0.00030930  1
  Zn  Zn90  1  0.49640181  0.48818257  0.00338477  1
  Zn  Zn91  1  0.49032196  0.36635991  0.87758376  1
  Zn  Zn92  1  0.00764094  0.87501626  0.87175421  1
  Zn  Zn93  1  0.61969024  0.75404041  0.87922488  1
  Zn  Zn94  1  0.25053039  0.74992754  0.50008320  1
  Zn  Zn95  1  -0.00484612  0.50359951  0.50419964  1
  Zn  Zn96  1  0.12884362  0.00160946  0.62700451  1
  Zn  Zn97  1  0.62151563  0.62546931  0.50125521  1
  Zn  Zn98  1  0.86564244  0.00825867  0.38179680  1
  Zn  Zn99  1  0.39505786  0.25272515  0.11137182  1
  Zn  Zn100  1  0.25557569  0.38440678  0.11322254  1
  Zn  Zn101  1  0.74252593  0.75697731  0.00510108  1
  Zn  Zn102  1  0.86778137  0.75498645  0.12996447  1
  Zn  Zn103  1  0.12396185  0.00210617  0.12849553  1
  Zn  Zn104  1  0.61666127  0.36978732  0.74751550  1
  Zn  Zn105  1  0.62376112  0.12387655  0.00563620  1
  Zn  Zn106  1  0.50729035  0.87803842  0.36861559  1
  Zn  Zn107  1  0.19041034  0.18911480  0.18815366  1
  Zn  Zn108  1  0.18802978  0.18887749  0.68733281  1
  Zn  Zn109  1  0.18305358  0.68543852  0.18490468  1
  Zn  Zn110  1  0.19182188  0.68454772  0.68392507  1
  Zn  Zn111  1  0.68376473  0.18371221  0.18230206  1
  Zn  Zn112  1  0.69199885  0.18159261  0.68719477  1
  Zn  Zn113  1  0.68617455  0.68978042  0.18811094  1
  Zn  Zn114  1  0.68478312  0.68798479  0.68897240  1
  Zn  Zn115  1  0.32923352  0.32773791  0.26538537  1
  Zn  Zn116  1  0.31398745  0.30887971  0.80877772  1
  Zn  Zn117  1  0.31619601  0.80956061  0.31398500  1
  Zn  Zn118  1  0.31547741  0.80429779  0.81735076  1
  Zn  Zn119  1  0.81374112  0.31254649  0.31358796  1
  Zn  Zn120  1  0.81014201  0.31593775  0.80880871  1
  Zn  Zn121  1  0.81846073  0.80642132  0.32035456  1
  Zn  Zn122  1  0.80713542  0.81835141  0.81826071  1
  Zn  Zn123  1  0.18308419  0.44538918  0.43470058  1
  Zn  Zn124  1  0.18919460  0.43863675  0.93067643  1
  Zn  Zn125  1  0.18878384  0.94082157  0.43933271  1
  Zn  Zn126  1  0.19087152  0.93979261  0.96025313  1
  Zn  Zn127  1  0.68604097  0.43591460  0.44007385  1
  Zn  Zn128  1  0.68501613  0.43692581  0.93848850  1
  Zn  Zn129  1  0.69033476  0.93665305  0.43561132  1
  Zn  Zn130  1  0.68767063  0.93911556  0.94018503  1
  Zn  Zn131  1  0.31249598  0.06077843  0.05907458  1
  Zn  Zn132  1  0.31279863  0.06322980  0.56269508  1
  Zn  Zn133  1  0.30738419  0.56556439  0.06070384  1
  Zn  Zn134  1  0.30870092  0.56418026  0.56201418  1
  Zn  Zn135  1  0.80939335  0.05843946  0.06498893  1
  Zn  Zn136  1  0.81506130  0.06103820  0.56757541  1
  Zn  Zn137  1  0.80723566  0.57561458  0.06530233  1
  Zn  Zn138  1  0.81067751  0.56430169  0.56462134  1
  Zn  Zn139  1  0.43964584  0.43426758  0.18584055  1
  Zn  Zn140  1  0.44233828  0.43275707  0.69316324  1
  Zn  Zn141  1  0.44019029  0.93188693  0.18499332  1
  Zn  Zn142  1  0.43940232  0.93796756  0.68551825  1
  Zn  Zn143  1  0.94034035  0.44265510  0.18570392  1
  Zn  Zn144  1  0.93823575  0.43955960  0.68710503  1
  Zn  Zn145  1  0.93487469  0.94018023  0.18839669  1
  Zn  Zn146  1  0.94032236  0.93280400  0.68884259  1
  Zn  Zn147  1  0.06123345  0.06367346  0.31465335  1
  Zn  Zn148  1  0.05420082  0.06996297  0.81439028  1
  Zn  Zn149  1  0.06726331  0.56430374  0.31084465  1
  Zn  Zn150  1  0.05734765  0.56456119  0.80641977  1
  Zn  Zn151  1  0.57036295  0.06142491  0.31174155  1
  Zn  Zn152  1  0.56263640  0.06728520  0.81266582  1
  Zn  Zn153  1  0.56158072  0.56527534  0.31745505  1
  Zn  Zn154  1  0.55838925  0.55886093  0.80990175  1
  Zn  Zn155  1  0.44897789  0.18443514  0.43249434  1
  Zn  Zn156  1  0.43727573  0.17997453  0.93402307  1
  Zn  Zn157  1  0.44138674  0.68584859  0.43991519  1
  Zn  Zn158  1  0.43407676  0.68101124  0.94009189  1
  Zn  Zn159  1  0.93800869  0.19238924  0.43839014  1
  Zn  Zn160  1  0.93517271  0.18808985  0.93688041  1
  Zn  Zn161  1  0.93618035  0.68891422  0.43949866  1
  Zn  Zn162  1  0.93648251  0.69355170  0.92715232  1
  Zn  Zn163  1  0.06279254  0.31582082  0.06022819  1
  Zn  Zn164  1  0.06206361  0.31548259  0.56094711  1
  Zn  Zn165  1  0.05579455  0.81543847  0.06238431  1
  Zn  Zn166  1  0.05886461  0.80992885  0.56782031  1
  Zn  Zn167  1  0.56515484  0.31433866  0.05854102  1
  Zn  Zn168  1  0.55855913  0.31456200  0.55874638  1
  Zn  Zn169  1  0.56380869  0.81285715  0.06801023  1
  Zn  Zn170  1  0.56230433  0.81225735  0.56529025  1
  O  O171  1  0.11687917  0.12862683  0.11933034  1
  O  O172  1  0.11638210  0.12667839  0.61699387  1
  O  O173  1  0.11438614  0.61372695  0.12489808  1
  O  O174  1  0.12375881  0.61676772  0.61840500  1
  O  O175  1  0.63313560  0.10419953  0.12008847  1
  O  O176  1  0.61861202  0.11992025  0.61980821  1
  O  O177  1  0.61524385  0.61770350  0.11914739  1
  O  O178  1  0.62159692  0.61554140  0.62389831  1
  O  O179  1  0.36807765  0.35912791  0.37358010  1
  O  O180  1  0.36671659  0.39267432  0.86805066  1
  O  O181  1  0.37898049  0.88078418  0.38352521  1
  O  O182  1  0.36904293  0.88240500  0.88463859  1
  O  O183  1  0.88270422  0.36955197  0.38457040  1
  O  O184  1  0.87789139  0.38494455  0.87971221  1
  O  O185  1  0.88371876  0.87456144  0.38923961  1
  O  O186  1  0.87587225  0.88693068  0.88310756  1
  O  O187  1  0.25812410  0.00464545  0.36749257  1
  O  O188  1  0.25209014  -0.00068583  0.86853582  1
  O  O189  1  0.24094015  0.51129108  0.35931304  1
  O  O190  1  0.25829306  0.51399910  0.87859256  1
  O  O191  1  0.74939097  -0.00373530  0.35674371  1
  O  O192  1  0.75567521  0.00645200  0.86936981  1
  O  O193  1  0.74463498  0.51213686  0.37296126  1
  O  O194  1  0.75332934  0.50300371  0.86681107  1
  O  O195  1  0.23879256  0.50363818  0.13233310  1
  O  O196  1  0.23315845  0.50248768  0.62327044  1
  O  O197  1  0.24913604  0.99051242  0.13007425  1
  O  O198  1  0.24947481  0.98984208  0.62454684  1
  O  O199  1  0.74477170  0.49704438  0.13327411  1
  O  O200  1  0.74372675  0.49417043  0.63149287  1
  O  O201  1  0.74513165  0.99881355  0.14142005  1
  O  O202  1  0.74073077  1.00624012  0.63596656  1
  O  O203  1  0.00681022  0.37264149  0.25450523  1
  O  O204  1  0.00407338  0.36951195  0.75957792  1
  O  O205  1  0.00392799  0.87082524  0.25492851  1
  O  O206  1  0.00041360  0.85983654  0.75179876  1
  O  O207  1  0.51025676  0.36845525  0.25648472  1
  O  O208  1  0.50535317  0.37667384  0.76508110  1
  O  O209  1  0.50010482  0.85775413  0.25055935  1
  O  O210  1  0.50672205  0.86584933  0.74586120  1
  O  O211  1  0.49529439  0.12812069  0.25328478  1
  O  O212  1  0.48791567  0.12133854  0.74066283  1
  O  O213  1  0.50411472  0.63344103  0.24321154  1
  O  O214  1  0.49016264  0.63256664  0.74640133  1
  O  O215  1  0.99535410  0.13121862  0.24279391  1
  O  O216  1  1.00253548  0.13723221  0.73892256  1
  O  O217  1  0.99430599  0.62983841  0.24870832  1
  O  O218  1  0.99993351  0.64510596  0.75033816  1
  O  O219  1  0.36279366  0.24183609  -0.00185765  1
  O  O220  1  0.37404036  0.24983031  0.50270933  1
  O  O221  1  0.36806753  0.75554981  0.00261197  1
  O  O222  1  0.37631244  0.75861778  0.50769562  1
  O  O223  1  0.86620090  0.25969995  0.00199346  1
  O  O224  1  0.88026773  0.26166083  0.51243528  1
  O  O225  1  0.87528305  0.76623377  -0.00411885  1
  O  O226  1  0.86862879  0.75627445  0.50888898  1
  O  O227  1  0.11873623  0.23930078  0.49364891  1
  O  O228  1  0.13000765  0.24298722  0.99331437  1
  O  O229  1  0.12616704  0.74342219  0.49666750  1
  O  O230  1  0.13818107  0.75824826  1.00117107  1
  O  O231  1  0.62179120  0.24347344  0.48754786  1
  O  O232  1  0.64006856  0.24635018  0.99370618  1
  O  O233  1  0.63250049  0.74797828  0.49828362  1
  O  O234  1  0.62186801  0.74076341  0.99813455  1
  O  O235  1  0.50958886  0.25127838  0.14002941  1
  O  O236  1  0.49052325  0.23836551  0.61641966  1
  O  O237  1  0.50002338  0.74175657  0.13694604  1
  O  O238  1  0.48767464  0.74923994  0.63164126  1
  O  O239  1  0.99532402  0.24421799  0.12978011  1
  O  O240  1  0.99402498  0.24604435  0.63053105  1
  O  O241  1  0.99880280  0.74072568  0.13201355  1
  O  O242  1  0.98789876  0.74903659  0.63715991  1
  O  O243  1  0.00668877  0.25985981  0.36761796  1
  O  O244  1  0.00170483  0.25591401  0.86645600  1
  O  O245  1  0.00599867  0.75706718  0.36977688  1
  O  O246  1  0.00400834  0.75564469  0.86040681  1
  O  O247  1  0.51330786  0.25288352  0.36366735  1
  O  O248  1  0.51765350  0.24193256  0.87989260  1
  O  O249  1  0.50723209  0.74791491  0.36575974  1
  O  O250  1  0.49728514  0.74553177  0.86392856  1
  O  O251  1  0.24051834  0.11941720  0.49083170  1
  O  O252  1  0.24234714  0.13058514  0.99266768  1
  O  O253  1  0.23786188  0.62653021  0.49201240  1
  O  O254  1  0.24913409  0.63737690  0.99068095  1
  O  O255  1  0.73982659  0.12206816  0.50511553  1
  O  O256  1  0.75393249  0.13238175  0.99044610  1
  O  O257  1  0.75098950  0.63545790  0.49390995  1
  O  O258  1  0.73473651  0.61959995  0.98723939  1
  O  O259  1  0.24539909  0.35911224  -0.00301096  1
  O  O260  1  0.25186369  0.37186760  0.49176343  1
  O  O261  1  0.25914810  0.86388175  0.00824097  1
  O  O262  1  0.26269850  0.87569766  0.50504684  1
  O  O263  1  0.75732041  0.36874084  0.00582552  1
  O  O264  1  0.75570735  0.37674733  0.51246673  1
  O  O265  1  0.76538166  0.87509834  -0.00415705  1
  O  O266  1  0.75820545  0.86255046  0.49637589  1
  O  O267  1  0.12794528  0.49528638  0.23898844  1
  O  O268  1  0.12017600  0.49325737  0.73692611  1
  O  O269  1  0.13263124  0.99416191  0.25071792  1
  O  O270  1  0.12862025  1.00484015  0.74837295  1
  O  O271  1  0.63027223  0.49152082  0.24887743  1
  O  O272  1  0.63243666  0.49816853  0.73963970  1
  O  O273  1  0.63700343  0.99589931  0.24312222  1
  O  O274  1  0.62779630  0.99549764  0.74486992  1
  O  O275  1  0.37356899  0.00364909  0.25334616  1
  O  O276  1  0.37871376  0.00477680  0.75828583  1
  O  O277  1  0.35625977  0.49722218  0.24582137  1
  O  O278  1  0.37592331  0.51154342  0.75466741  1
  O  O279  1  0.86323467  0.00697190  0.25173106  1
  O  O280  1  0.86627879  -0.00723790  0.75710029  1
  O  O281  1  0.87153537  0.51056176  0.24991962  1
  O  O282  1  0.86002319  0.49561335  0.75695326  1
  O  O283  1  0.11655850  0.37235154  0.36774732  1
  O  O284  1  0.11544854  0.37248685  0.86886312  1
  O  O285  1  0.12010554  0.87073080  0.37175942  1
  O  O286  1  0.13657718  0.89135049  0.86614599  1
  O  O287  1  0.62857794  0.36463684  0.36663646  1
  O  O288  1  0.63519807  0.35495394  0.87416217  1
  O  O289  1  0.62398239  0.85892804  0.38190537  1
  O  O290  1  0.62406923  0.87608883  0.86476423  1
  O  O291  1  0.37229444  0.12716789  0.13392424  1
  O  O292  1  0.38185574  0.12889187  0.62969227  1
  O  O293  1  0.38904690  0.62289591  0.11882271  1
  O  O294  1  0.37079861  0.63350272  0.63352946  1
  O  O295  1  0.88159079  0.13146163  0.13055667  1
  O  O296  1  0.88819357  0.13428894  0.61907128  1
  O  O297  1  0.88747128  0.62120100  0.13456105  1
  O  O298  1  0.87603932  0.64101669  0.62224470  1
  O  O299  1  0.24708847  0.24893342  0.10643879  1
  O  O300  1  0.26459974  0.24568493  0.62113174  1
  O  O301  1  0.25020975  0.75232948  0.11598335  1
  O  O302  1  0.26198327  0.75895814  0.62332805  1
  O  O303  1  0.75547451  0.25586300  0.11711539  1
  O  O304  1  0.76006327  0.25648649  0.63177201  1
  O  O305  1  0.75899244  0.72718453  0.11405187  1
  O  O306  1  0.75850859  0.74695405  0.61849832  1
  O  O307  1  0.24900657  0.24837965  0.37966861  1
  O  O308  1  0.24531812  0.24402706  0.88370138  1
  O  O309  1  0.24176003  0.74498392  0.37594943  1
  O  O310  1  0.25022219  0.73940691  0.88733785  1
  O  O311  1  0.73784154  0.25031929  0.37391703  1
  O  O312  1  0.75058926  0.24154296  0.87907259  1
  O  O313  1  0.74461714  0.74107110  0.38252633  1
  O  O314  1  0.74419113  0.74072897  0.87877245  1
  O  O315  1  0.00641174  0.12828431  0.00903076  1
  O  O316  1  0.00636846  0.12043886  0.50567578  1
  O  O317  1  -0.00724618  0.63125966  0.00704069  1
  O  O318  1  0.01093404  0.62547221  0.50038441  1
  O  O319  1  0.49851541  0.10980945  0.00184936  1
  O  O320  1  0.50994828  0.11808739  0.50670522  1
  O  O321  1  0.50902666  0.62059884  0.00747551  1
  O  O322  1  0.50094986  0.61146879  0.50385178  1
  O  O323  1  0.50048777  0.39013234  0.49563402  1
  O  O324  1  0.50088167  0.37441562  0.99127480  1
  O  O325  1  0.49062099  0.88183559  0.50192672  1
  O  O326  1  0.48748678  0.88146579  1.00765336  1
  O  O327  1  0.99164896  0.37739007  0.49062074  1
  O  O328  1  0.99037117  0.36896087  0.98494072  1
  O  O329  1  0.99500400  0.88162176  0.49825732  1
  O  O330  1  0.99215121  0.87967600  0.99253242  1
  O  O331  1  0.50230387  0.49743367  0.38990705  1
  O  O332  1  0.48108197  0.50604769  0.87920048  1
  O  O333  1  0.49951373  0.99753185  0.38146596  1
  O  O334  1  0.49199868  1.00200791  0.88339315  1
  O  O335  1  1.00420905  0.48956417  0.37617838  1
  O  O336  1  0.98772659  0.49370095  0.86799419  1
  O  O337  1  0.99716769  0.99412212  0.38331419  1
  O  O338  1  0.99138786  0.99863098  0.87584221  1
  O  O339  1  0.00136215  0.01447000  0.12607377  1
  O  O340  1  0.00240487  0.00847392  0.62023654  1
  O  O341  1  0.01149044  0.50860845  0.12330349  1
  O  O342  1  0.00700340  0.50531463  0.62404149  1
  O  O343  1  0.51270096  -0.00464384  0.12150814  1
  O  O344  1  0.50775381  0.01020844  0.61910936  1
  O  O345  1  0.50692597  0.50443364  0.12682202  1
  O  O346  1  0.50516730  0.49870229  0.61548779  1
  O  O347  1  0.23416887  0.39010426  0.25022263  1
  O  O348  1  0.23255762  0.36800244  0.75406738  1
  O  O349  1  0.24729524  0.87729557  0.24363738  1
  O  O350  1  0.25167470  0.87568023  0.74449427  1
  O  O351  1  0.74651986  0.38111612  0.24609337  1
  O  O352  1  0.74474275  0.38214884  0.73821074  1
  O  O353  1  0.76112700  0.87888500  0.24926339  1
  O  O354  1  0.73776521  0.88733963  0.75315459  1
  O  O355  1  0.25948719  0.12078431  0.25531789  1
  O  O356  1  0.26156771  0.12821527  0.75564982  1
  O  O357  1  0.24434791  0.61634087  0.25545659  1
  O  O358  1  0.25806589  0.63477889  0.76489910  1
  O  O359  1  0.76172641  0.12630889  0.24725819  1
  O  O360  1  0.74815015  0.11247621  0.76214961  1
  O  O361  1  0.75854756  0.61967482  0.25924839  1
  O  O362  1  0.74240201  0.61688481  0.76276076  1
  O  O363  1  0.37271363  0.11741894  0.36958637  1
  O  O364  1  0.36974201  0.11328314  0.86634810  1
  O  O365  1  0.35897552  0.63196722  0.38105215  1
  O  O366  1  0.36545769  0.61708189  0.86976036  1
  O  O367  1  0.88269219  0.12547792  0.36361786  1
  O  O368  1  0.86912322  0.11212390  0.87888606  1
  O  O369  1  0.86662693  0.62976840  0.36772069  1
  O  O370  1  0.86353075  0.61410881  0.88142344  1
  O  O371  1  0.12455827  0.38590931  0.13046750  1
  O  O372  1  0.11928238  0.38732687  0.63033347  1
  O  O373  1  0.13517987  0.87670793  0.13022795  1
  O  O374  1  0.14026146  0.87711243  0.61667724  1
  O  O375  1  0.63265723  0.37806646  0.13758123  1
  O  O376  1  0.63109966  0.37813950  0.62508611  1
  O  O377  1  0.63082305  0.89126550  0.11765155  1
  O  O378  1  0.61970025  0.88928604  0.63255393  1
  O  O379  1  0.12257082  0.26057284  0.25413796  1
  O  O380  1  0.11390686  0.25644120  0.75290480  1
  O  O381  1  0.11855074  0.75623334  0.25515792  1
  O  O382  1  0.12017255  0.75293307  0.74313197  1
  O  O383  1  0.62619040  0.25355928  0.25857151  1
  O  O384  1  0.63159784  0.24506090  0.76482577  1
  O  O385  1  0.61482597  0.74546984  0.25906605  1
  O  O386  1  0.61532400  0.76006871  0.75015440  1
  O  O387  1  0.39071071  0.23326060  0.25164008  1
  O  O388  1  0.37389093  0.24042684  0.73763142  1
  O  O389  1  0.38941195  0.74787409  0.24862004  1
  O  O390  1  0.38088904  0.74385738  0.74458388  1
  O  O391  1  0.88020825  0.24498890  0.24372238  1
  O  O392  1  0.88573442  0.25804974  0.73971796  1
  O  O393  1  0.88344433  0.73943614  0.25007031  1
  O  O394  1  0.86559918  0.75661669  0.73832355  1
  O  O395  1  0.38304127  0.50059055  0.50211701  1
  O  O396  1  0.37177029  0.50056493  0.98890720  1
  O  O397  1  0.38300026  0.99466107  0.49491786  1
  O  O398  1  0.38080576  0.99211952  0.99328189  1
  O  O399  1  0.87548719  0.48740683  0.50573144  1
  O  O400  1  0.86578873  0.49068215  0.99366742  1
  O  O401  1  0.87999572  0.99214175  0.50087170  1
  O  O402  1  0.87592498  0.99196934  0.99433108  1
  O  O403  1  0.12168393  0.01615485  0.00610855  1
  O  O404  1  0.11817876  0.01285266  0.49975402  1
  O  O405  1  0.12998773  0.49399613  0.01373242  1
  O  O406  1  0.12025532  0.50715102  0.50978567  1
  O  O407  1  0.61650852  0.00023610  0.00635716  1
  O  O408  1  0.62427613  0.00499875  0.50694646  1
  O  O409  1  0.62309848  0.50447738  0.00947941  1
  O  O410  1  0.62472670  0.50157218  0.51275189  1
  O  O411  1  0.36243346  0.35838221  0.15107573  1
  O  O412  1  0.37615937  0.35955147  0.63028301  1
  O  O413  1  0.36363832  0.87046142  0.11931865  1
  O  O414  1  0.36852724  0.87044717  0.61855533  1
  O  O415  1  0.87371513  0.37232942  0.11721933  1
  O  O416  1  0.86811806  0.36900581  0.61945266  1
  O  O417  1  0.88260960  0.87435780  0.10969591  1
  O  O418  1  0.87851679  0.86424104  0.61434410  1
  O  O419  1  0.13212079  0.13388388  0.37906739  1
  O  O420  1  0.12810859  0.13227415  0.88203178  1
  O  O421  1  0.12961441  0.63243880  0.38212911  1
  O  O422  1  0.13850021  0.61622526  0.87108491  1
  O  O423  1  0.62471617  0.13634197  0.38353101  1
  O  O424  1  0.63515323  0.13275166  0.88035827  1
  O  O425  1  0.63460697  0.63527691  0.37928434  1
  O  O426  1  0.62696555  0.62377345  0.88243585  1
