# generated using pymatgen
data_V85Zn86O256
_symmetry_space_group_name_H-M   'P 1'
_cell_length_a   16.91183905
_cell_length_b   16.91836591
_cell_length_c   16.91532620
_cell_angle_alpha   90.03666317
_cell_angle_beta   90.07288529
_cell_angle_gamma   89.98178919
_symmetry_Int_Tables_number   1
_chemical_formula_structural   V85Zn86O256
_chemical_formula_sum   'V85 Zn86 O256'
_cell_volume   4839.81950607
_cell_formula_units_Z   1
loop_
 _symmetry_equiv_pos_site_id
 _symmetry_equiv_pos_as_xyz
  1  'x, y, z'
loop_
 _atom_site_type_symbol
 _atom_site_label
 _atom_site_symmetry_multiplicity
 _atom_site_fract_x
 _atom_site_fract_y
 _atom_site_fract_z
 _atom_site_occupancy
  V  V0  1  0.13763809  0.87572796  0.25140342  1
  V  V1  1  0.36324703  0.74983561  0.11538532  1
  V  V2  1  0.87134080  0.74946301  0.61486532  1
  V  V3  1  0.74158118  0.25304762  0.49965257  1
  V  V4  1  0.61904257  0.61896849  -0.00467954  1
  V  V5  1  0.50263613  0.12457228  0.12634084  1
  V  V6  1  0.49878021  0.00078879  0.49903064  1
  V  V7  1  0.00368310  0.86050486  0.36563931  1
  V  V8  1  0.25297176  0.50038543  0.25367833  1
  V  V9  1  0.50073615  0.87414319  0.37281910  1
  V  V10  1  0.49568448  0.61670690  0.11869310  1
  V  V11  1  0.62755577  0.37181794  0.75203630  1
  V  V12  1  0.37736592  0.37727020  0.50371037  1
  V  V13  1  0.24662725  0.37137614  0.62356155  1
  V  V14  1  0.74968029  0.49558247  0.74368592  1
  V  V15  1  0.11747092  0.25372233  0.87990409  1
  V  V16  1  0.12335691  0.62920930  0.49684679  1
  V  V17  1  0.74416712  0.12839275  0.37495473  1
  V  V18  1  0.87574725  -0.00211899  0.87608927  1
  V  V19  1  0.87070009  0.25265903  0.62477538  1
  V  V20  1  0.87562058  0.12316886  0.74941884  1
  V  V21  1  0.24938968  0.89356676  0.11987262  1
  V  V22  1  0.37146447  0.50340875  0.88682179  1
  V  V23  1  0.50190595  0.75085599  0.24542481  1
  V  V24  1  0.00147491  0.24515933  0.25117715  1
  V  V25  1  0.36985061  0.24872948  0.62233830  1
  V  V26  1  0.74564339  0.25706797  -0.00127856  1
  V  V27  1  0.12916653  0.24976912  0.38456547  1
  V  V28  1  0.74395809  0.12872248  0.87514414  1
  V  V29  1  0.74617881  -0.01120691  0.75223736  1
  V  V30  1  0.88139864  0.49307378  0.87361986  1
  V  V31  1  0.87718825  0.24977676  0.12399432  1
  V  V32  1  0.74585126  0.74729333  -0.00476910  1
  V  V33  1  0.37145345  0.62203042  0.75190694  1
  V  V34  1  0.25913701  0.25047471  0.00533329  1
  V  V35  1  0.87431018  0.63363715  0.75060375  1
  V  V36  1  0.88772692  0.74563948  0.12661612  1
  V  V37  1  0.63579548  0.63027389  0.49940607  1
  V  V38  1  0.50357571  0.24951629  0.75729972  1
  V  V39  1  0.50714551  0.25006608  0.25051805  1
  V  V40  1  0.63236868  0.49720329  0.12996112  1
  V  V41  1  0.37798770  0.75041407  0.62587008  1
  V  V42  1  0.37487354  0.62722199  0.25075765  1
  V  V43  1  0.12479570  0.87711441  0.75142157  1
  V  V44  1  0.12312826  0.00209659  0.62459185  1
  V  V45  1  0.25112742  0.12739691  0.37966117  1
  V  V46  1  0.74296771  0.62616217  0.87132855  1
  V  V47  1  0.25062252  0.87679553  0.62377560  1
  V  V48  1  0.74496673  0.87001056  0.61694835  1
  V  V49  1  0.12534301  0.50071254  0.62569206  1
  V  V50  1  0.37440574  0.12572426  0.75353695  1
  V  V51  1  -0.00192781  0.86637616  0.87605263  1
  V  V52  1  0.50353865  0.86943591  0.86653787  1
  V  V53  1  0.87438979  -0.00229314  0.37220926  1
  V  V54  1  0.49964413  0.61928627  0.61605216  1
  V  V55  1  0.38258519  0.50206285  0.38278001  1
  V  V56  1  0.86954527  0.37579779  0.50166420  1
  V  V57  1  -0.00124021  0.62758133  0.62258808  1
  V  V58  1  0.49610226  -0.00295251  -0.00346231  1
  V  V59  1  0.15019065  0.74649068  0.87835966  1
  V  V60  1  0.12690672  0.12310867  0.01086272  1
  V  V61  1  0.62240453  0.49327779  0.61784944  1
  V  V62  1  0.74260986  -0.00006186  0.24552393  1
  V  V63  1  0.50668630  0.37077258  0.37966017  1
  V  V64  1  0.26207316  0.37108511  0.12958994  1
  V  V65  1  0.74694051  0.62498204  0.35403267  1
  V  V66  1  0.00396049  -0.00143769  0.00724792  1
  V  V67  1  0.36954441  0.00122081  0.36838428  1
  V  V68  1  0.89482783  0.61867948  0.24245009  1
  V  V69  1  -0.00102723  -0.00017040  0.49665922  1
  V  V70  1  0.12230189  0.50822221  0.12633932  1
  V  V71  1  0.24601749  0.75221899  0.49586131  1
  V  V72  1  0.25289320  0.12472082  0.87748736  1
  V  V73  1  -0.00251549  0.49891029  0.49549936  1
  V  V74  1  0.87490750  0.87184298  -0.00101556  1
  V  V75  1  0.25433447  0.00131199  0.75513204  1
  V  V76  1  0.50160910  0.37998631  0.88138802  1
  V  V77  1  0.24874894  0.62816259  0.37736750  1
  V  V78  1  0.62815419  0.12121887  0.00690049  1
  V  V79  1  0.11895480  0.37690318  0.75600593  1
  V  V80  1  0.37121097  0.12943919  0.24480763  1
  V  V81  1  0.50008361  0.12528677  0.62697181  1
  V  V82  1  0.12810818  0.37189212  0.25141661  1
  V  V83  1  0.62348574  -0.00310628  0.62914741  1
  V  V84  1  0.74378508  0.87394184  0.12447918  1
  Zn  Zn85  1  0.63321302  0.37617074  0.25955476  1
  Zn  Zn86  1  0.87048726  0.87018036  0.49426285  1
  Zn  Zn87  1  0.12810080  0.12834764  0.50277849  1
  Zn  Zn88  1  -0.00092040  0.37252723  0.37644861  1
  Zn  Zn89  1  0.24787207  0.50350616  0.75555916  1
  Zn  Zn90  1  0.00482650  0.49871641  -0.00034861  1
  Zn  Zn91  1  0.75686280  0.37932249  0.13377838  1
  Zn  Zn92  1  0.87471173  0.12459412  0.24934945  1
  Zn  Zn93  1  0.86679564  0.49268614  0.36261343  1
  Zn  Zn94  1  0.62191801  0.87733328  0.24375964  1
  Zn  Zn95  1  0.00338437  0.75052976  0.74890565  1
  Zn  Zn96  1  0.88723616  0.37017497  -0.00545975  1
  Zn  Zn97  1  0.63244590  0.75534691  0.37849181  1
  Zn  Zn98  1  0.00353090  0.11905203  0.12932452  1
  Zn  Zn99  1  -0.00189556  0.12442239  0.62451885  1
  Zn  Zn100  1  -0.00399789  0.25394454  0.75360143  1
  Zn  Zn101  1  0.12794730  0.63247275  -0.00097678  1
  Zn  Zn102  1  0.36891270  0.87692247  -0.01019147  1
  Zn  Zn103  1  0.62144307  0.13013037  0.49682882  1
  Zn  Zn104  1  0.38387314  0.37510726  0.00779591  1
  Zn  Zn105  1  0.51226909  0.74636091  0.75049326  1
  Zn  Zn106  1  0.37434512  0.87520875  0.49846534  1
  Zn  Zn107  1  0.19181626  0.18696765  0.19119040  1
  Zn  Zn108  1  0.18445348  0.18954306  0.69061752  1
  Zn  Zn109  1  0.18389458  0.69440020  0.19246626  1
  Zn  Zn110  1  0.18786279  0.69006582  0.68787670  1
  Zn  Zn111  1  0.68863591  0.19067414  0.18716354  1
  Zn  Zn112  1  0.68820373  0.18557542  0.68618214  1
  Zn  Zn113  1  0.68423401  0.69015179  0.18004215  1
  Zn  Zn114  1  0.68859435  0.68371866  0.68095920  1
  Zn  Zn115  1  0.31727351  0.30818114  0.31575172  1
  Zn  Zn116  1  0.31049104  0.31562844  0.81378089  1
  Zn  Zn117  1  0.31392903  0.81362544  0.30907843  1
  Zn  Zn118  1  0.32407938  0.81940286  0.80872090  1
  Zn  Zn119  1  0.81126430  0.31217249  0.31321282  1
  Zn  Zn120  1  0.80864198  0.31120898  0.81151264  1
  Zn  Zn121  1  0.81435800  0.80754115  0.30873730  1
  Zn  Zn122  1  0.68012293  0.81202497  0.81558039  1
  Zn  Zn123  1  0.19102220  0.43770042  0.44035345  1
  Zn  Zn124  1  0.19235830  0.43639328  0.94157705  1
  Zn  Zn125  1  0.18495034  0.93759761  0.43449306  1
  Zn  Zn126  1  0.18539649  0.93764544  0.93776292  1
  Zn  Zn127  1  0.69152923  0.44311569  0.43767498  1
  Zn  Zn128  1  0.68828032  0.43992932  0.93625121  1
  Zn  Zn129  1  0.68401303  0.94040059  0.43667350  1
  Zn  Zn130  1  0.68552173  0.94227218  0.94391024  1
  Zn  Zn131  1  0.31889157  0.06452974  0.06189877  1
  Zn  Zn132  1  0.31241606  0.06311281  0.56081927  1
  Zn  Zn133  1  0.29993653  0.56520016  0.05920496  1
  Zn  Zn134  1  0.31072654  0.56119030  0.56488400  1
  Zn  Zn135  1  0.81507080  0.06305984  0.06443816  1
  Zn  Zn136  1  0.81095217  0.06208816  0.56082838  1
  Zn  Zn137  1  0.81365063  0.56338022  0.05985445  1
  Zn  Zn138  1  0.80992614  0.56053441  0.56130517  1
  Zn  Zn139  1  0.44215885  0.43923092  0.19298947  1
  Zn  Zn140  1  0.43860983  0.43871498  0.69251173  1
  Zn  Zn141  1  0.43632276  0.94113069  0.18277812  1
  Zn  Zn142  1  0.43691208  0.93683915  0.69102057  1
  Zn  Zn143  1  0.94109263  0.43139781  0.18592652  1
  Zn  Zn144  1  0.93672390  0.43865547  0.68545617  1
  Zn  Zn145  1  0.93424144  0.93318887  0.18893790  1
  Zn  Zn146  1  0.93463247  0.93411642  0.68705350  1
  Zn  Zn147  1  0.06731668  0.05766726  0.31051635  1
  Zn  Zn148  1  0.06339709  0.06316603  0.81901764  1
  Zn  Zn149  1  0.06543057  0.56150726  0.31479498  1
  Zn  Zn150  1  0.06314157  0.56850542  0.81329953  1
  Zn  Zn151  1  0.56302985  0.06234800  0.31140070  1
  Zn  Zn152  1  0.56398832  0.06061833  0.81654204  1
  Zn  Zn153  1  0.56176262  0.56307043  0.31198827  1
  Zn  Zn154  1  0.55804384  0.56097276  0.80745776  1
  Zn  Zn155  1  0.43641190  0.19023116  0.43798188  1
  Zn  Zn156  1  0.43932904  0.18737671  0.93782335  1
  Zn  Zn157  1  0.44055733  0.68913419  0.44054658  1
  Zn  Zn158  1  0.43440114  0.68923662  0.93653506  1
  Zn  Zn159  1  0.93529410  0.18517268  0.43639498  1
  Zn  Zn160  1  0.93641919  0.18490877  0.93974700  1
  Zn  Zn161  1  0.93061230  0.68306732  0.43173846  1
  Zn  Zn162  1  0.94138231  0.67934139  0.94273340  1
  Zn  Zn163  1  0.06365495  0.31795394  0.06319401  1
  Zn  Zn164  1  0.05610479  0.31211684  0.56650815  1
  Zn  Zn165  1  0.07088205  0.81494044  0.06319828  1
  Zn  Zn166  1  0.05967107  0.81517966  0.55898594  1
  Zn  Zn167  1  0.56418889  0.30712605  0.06484434  1
  Zn  Zn168  1  0.55874396  0.31342649  0.56717065  1
  Zn  Zn169  1  0.56110407  0.80747829  0.05783558  1
  Zn  Zn170  1  0.56219913  0.81177194  0.56200367  1
  O  O171  1  0.12629402  0.12795483  0.11447020  1
  O  O172  1  0.12229347  0.11442523  0.62559873  1
  O  O173  1  0.12931070  0.60940330  0.13673972  1
  O  O174  1  0.11912229  0.62094842  0.61929219  1
  O  O175  1  0.61854083  0.12696668  0.11770579  1
  O  O176  1  0.61847613  0.11416528  0.62241305  1
  O  O177  1  0.61632386  0.61522138  0.11805497  1
  O  O178  1  0.61883787  0.61691622  0.61558835  1
  O  O179  1  0.37973113  0.38127339  0.38581680  1
  O  O180  1  0.38204944  0.38592006  0.87666949  1
  O  O181  1  0.38463865  0.88385208  0.37335556  1
  O  O182  1  0.39409625  0.87928614  0.87605568  1
  O  O183  1  0.87859782  0.37639202  0.38692427  1
  O  O184  1  0.87083450  0.38990002  0.87081055  1
  O  O185  1  0.88275008  0.87880028  0.37475226  1
  O  O186  1  0.88401401  0.88303467  0.88415195  1
  O  O187  1  0.26367552  0.00426655  0.37923993  1
  O  O188  1  0.24388445  0.00923079  0.86532555  1
  O  O189  1  0.26115887  0.50543026  0.37277578  1
  O  O190  1  0.26644440  0.49500479  0.87330474  1
  O  O191  1  0.75691402  0.00281564  0.36865571  1
  O  O192  1  0.75477378  0.00427691  0.86868817  1
  O  O193  1  0.75374183  0.51977930  0.37855231  1
  O  O194  1  0.75661183  0.50691443  0.86297253  1
  O  O195  1  0.24629894  0.49082715  0.13653514  1
  O  O196  1  0.24090622  0.49156507  0.62712997  1
  O  O197  1  0.25750746  0.99181380  0.12823807  1
  O  O198  1  0.24225544  0.99680380  0.63026503  1
  O  O199  1  0.73617857  0.50028201  0.12039124  1
  O  O200  1  0.74166423  0.50372617  0.63669070  1
  O  O201  1  0.76037603  0.98822435  0.13397141  1
  O  O202  1  0.74219308  0.99531930  0.63161417  1
  O  O203  1  0.01107048  0.36374737  0.25375385  1
  O  O204  1  0.01438894  0.37445682  0.74320653  1
  O  O205  1  -0.00344858  0.87158906  0.26351867  1
  O  O206  1  0.00605527  0.87672183  0.75915055  1
  O  O207  1  0.50132329  0.36653430  0.26049093  1
  O  O208  1  0.50511921  0.36702300  0.75839000  1
  O  O209  1  0.50017688  0.86960339  0.25320263  1
  O  O210  1  0.50284899  0.87606596  0.76254133  1
  O  O211  1  0.49754281  0.12964392  0.24399910  1
  O  O212  1  0.49567441  0.13027272  0.74854107  1
  O  O213  1  0.49350257  0.63224838  0.24269767  1
  O  O214  1  0.48946873  0.62554697  0.73748326  1
  O  O215  1  1.00158594  0.13368116  0.24942144  1
  O  O216  1  0.98499111  0.12210199  0.75316497  1
  O  O217  1  0.99255691  0.62711826  0.25295578  1
  O  O218  1  0.99133570  0.62651065  0.74053627  1
  O  O219  1  0.36265793  0.25115144  -0.00312588  1
  O  O220  1  0.37725321  0.25639320  0.51559179  1
  O  O221  1  0.37998389  0.75694660  0.01292255  1
  O  O222  1  0.36852393  0.75101457  0.51158864  1
  O  O223  1  0.86713323  0.24932702  0.00605318  1
  O  O224  1  0.86889999  0.25597208  0.50629762  1
  O  O225  1  0.86756413  0.74946186  0.00719540  1
  O  O226  1  0.87706061  0.74913838  0.51050745  1
  O  O227  1  0.11736283  0.24964731  0.48837527  1
  O  O228  1  0.13495399  0.24357795  0.99604113  1
  O  O229  1  0.13536894  0.74375034  0.50675190  1
  O  O230  1  0.12418464  0.75668488  0.97952430  1
  O  O231  1  0.63753938  0.25096963  0.50949555  1
  O  O232  1  0.63732384  0.23855582  1.00372889  1
  O  O233  1  0.61817568  0.73732833  0.49541596  1
  O  O234  1  0.63410290  0.73321843  1.00622820  1
  O  O235  1  0.50095885  0.23640009  0.13212440  1
  O  O236  1  0.49167884  0.24411479  0.63625629  1
  O  O237  1  0.49178896  0.74250921  0.13008122  1
  O  O238  1  0.49190993  0.74292438  0.62510311  1
  O  O239  1  0.99685445  0.24756301  0.13364137  1
  O  O240  1  0.98640485  0.24379479  0.62863825  1
  O  O241  1  0.98608358  0.75490816  0.11599783  1
  O  O242  1  0.99231445  0.74661699  0.62650456  1
  O  O243  1  0.00729632  0.24910478  0.36774968  1
  O  O244  1  0.01344044  0.24430521  0.87567470  1
  O  O245  1  -0.00225263  0.76302096  0.38222178  1
  O  O246  1  -0.00697062  0.76128945  0.87148659  1
  O  O247  1  0.49720576  0.25984742  0.36905590  1
  O  O248  1  0.49472171  0.25616489  0.86242484  1
  O  O249  1  0.49719405  0.75937030  0.36569295  1
  O  O250  1  0.49964607  0.76468082  0.87399786  1
  O  O251  1  0.24803789  0.12212662  0.48649125  1
  O  O252  1  0.24619088  0.12890762  0.99579634  1
  O  O253  1  0.24519756  0.63314942  0.49753428  1
  O  O254  1  0.23887767  0.63781367  1.00734471  1
  O  O255  1  0.74801883  0.13262655  0.49305485  1
  O  O256  1  0.74513688  0.12813419  0.99450361  1
  O  O257  1  0.73900210  0.62512161  0.49654128  1
  O  O258  1  0.74448282  0.62945624  0.99000469  1
  O  O259  1  0.25418931  0.36629378  0.01243291  1
  O  O260  1  0.25976401  0.37696452  0.51396815  1
  O  O261  1  0.25313582  0.88371764  0.01350290  1
  O  O262  1  0.25104922  0.86929334  0.50444695  1
  O  O263  1  0.75266356  0.36546295  -0.00003033  1
  O  O264  1  0.75796069  0.36738451  0.49602872  1
  O  O265  1  0.75533568  0.86773723  0.00378717  1
  O  O266  1  0.75045369  0.88206825  0.51244483  1
  O  O267  1  0.13282981  0.49052178  0.24822911  1
  O  O268  1  0.12711885  0.49519453  0.74580106  1
  O  O269  1  0.11071696  0.97591841  0.24540786  1
  O  O270  1  0.13239991  0.99768733  0.74466139  1
  O  O271  1  0.61851307  0.49938988  0.23341940  1
  O  O272  1  0.63168066  0.49473091  0.74101153  1
  O  O273  1  0.63813804  0.99706835  0.25117869  1
  O  O274  1  0.63387318  1.00718039  0.74103566  1
  O  O275  1  0.38556649  0.01395888  0.26018126  1
  O  O276  1  0.36182989  0.00859998  0.74356396  1
  O  O277  1  0.37121632  0.50810099  0.25911755  1
  O  O278  1  0.37168416  0.50685401  0.75818650  1
  O  O279  1  0.86729976  0.00041564  0.25962074  1
  O  O280  1  0.86603953  0.00454462  0.75428414  1
  O  O281  1  0.88244177  0.51309060  0.24503432  1
  O  O282  1  0.86793138  0.50699108  0.75329955  1
  O  O283  1  0.12823440  0.36863338  0.36735337  1
  O  O284  1  0.13378836  0.36704657  0.86758175  1
  O  O285  1  0.11424333  0.87710239  0.36608264  1
  O  O286  1  0.11920704  0.86738644  0.86928358  1
  O  O287  1  0.60965292  0.38588787  0.37973446  1
  O  O288  1  0.61670469  0.38372623  0.86203352  1
  O  O289  1  0.61271628  0.87456165  0.37166208  1
  O  O290  1  0.61280910  0.87919159  0.88132913  1
  O  O291  1  0.38392048  0.12301947  0.13591515  1
  O  O292  1  0.37842308  0.13184957  0.63102415  1
  O  O293  1  0.37920284  0.63341911  0.12842642  1
  O  O294  1  0.38217912  0.62988965  0.62722059  1
  O  O295  1  0.87968555  0.13696198  0.12709442  1
  O  O296  1  0.87472561  0.12830830  0.63402069  1
  O  O297  1  0.87458828  0.63218571  0.13235810  1
  O  O298  1  0.87787337  0.62996221  0.62863748  1
  O  O299  1  0.24750608  0.25862592  0.11872214  1
  O  O300  1  0.25723097  0.25721215  0.63038694  1
  O  O301  1  0.26242704  0.75809782  0.13277056  1
  O  O302  1  0.25665349  0.75693236  0.61712147  1
  O  O303  1  0.75926281  0.25052907  0.11600319  1
  O  O304  1  0.76275197  0.24324093  0.61706059  1
  O  O305  1  0.75765043  0.75331700  0.11359856  1
  O  O306  1  0.75726225  0.75957203  0.62580930  1
  O  O307  1  0.24168935  0.24173742  0.37390283  1
  O  O308  1  0.24216583  0.24405949  0.88246076  1
  O  O309  1  0.26015699  0.74656972  0.38877326  1
  O  O310  1  0.24845019  0.75885626  0.87182175  1
  O  O311  1  0.75653120  0.23923605  0.38662896  1
  O  O312  1  0.75603766  0.23975746  0.88493962  1
  O  O313  1  0.74940338  0.73295898  0.37022406  1
  O  O314  1  0.74814244  0.74216987  0.88607343  1
  O  O315  1  0.00977759  0.11686725  0.00103034  1
  O  O316  1  0.00175378  0.11144320  0.50003037  1
  O  O317  1  0.01578290  0.61227959  -0.00922142  1
  O  O318  1  0.00216718  0.61894913  0.50161517  1
  O  O319  1  0.50731027  0.12037473  0.00390557  1
  O  O320  1  0.49979672  0.11893999  0.50701282  1
  O  O321  1  0.50699070  0.63035343  0.00644039  1
  O  O322  1  0.50686965  0.62424796  0.51030302  1
  O  O323  1  0.48626805  0.36958694  0.49607458  1
  O  O324  1  0.50106545  0.36323605  0.98523421  1
  O  O325  1  0.49697058  0.88213665  0.49098683  1
  O  O326  1  0.50068743  0.88649741  0.99774803  1
  O  O327  1  0.99302218  0.38351828  0.49923876  1
  O  O328  1  1.00062891  0.38420482  0.99993919  1
  O  O329  1  0.99902148  0.88576930  0.48890485  1
  O  O330  1  0.99816428  0.88050726  0.99426311  1
  O  O331  1  0.48736924  0.49414293  0.37106481  1
  O  O332  1  0.48754177  0.48998824  0.86951917  1
  O  O333  1  0.49420151  0.99550536  0.38165288  1
  O  O334  1  0.50498465  0.99412861  0.88927874  1
  O  O335  1  0.99735784  0.49850948  0.38632828  1
  O  O336  1  0.98264604  0.50349115  0.86513879  1
  O  O337  1  0.99171993  0.99468072  0.37980710  1
  O  O338  1  0.99612380  0.99148570  0.88430892  1
  O  O339  1  -0.00964759  -0.00130050  0.11140228  1
  O  O340  1  0.00601001  -0.00155910  0.61744577  1
  O  O341  1  0.02047760  0.49473130  0.13082906  1
  O  O342  1  0.00469748  0.50641321  0.61416658  1
  O  O343  1  0.49939428  0.01173639  0.11284796  1
  O  O344  1  0.50419636  0.00319063  0.62008215  1
  O  O345  1  0.50370133  0.51257825  0.12575969  1
  O  O346  1  0.50918582  0.50712503  0.62983545  1
  O  O347  1  0.24798463  0.37687453  0.24848186  1
  O  O348  1  0.24003537  0.37610561  0.73929064  1
  O  O349  1  0.24481887  0.87891888  0.24429431  1
  O  O350  1  0.24724586  0.88485869  0.74457476  1
  O  O351  1  0.74517811  0.37148153  0.24731707  1
  O  O352  1  0.74020293  0.38211923  0.75218287  1
  O  O353  1  0.74902577  0.87977763  0.24182480  1
  O  O354  1  0.74538313  0.88565962  0.74195331  1
  O  O355  1  0.26100676  0.12798696  0.26159767  1
  O  O356  1  0.25178727  0.12012645  0.75849998  1
  O  O357  1  0.25603515  0.62396034  0.25902344  1
  O  O358  1  0.26672720  0.62463210  0.74062234  1
  O  O359  1  0.75169255  0.11844521  0.25576651  1
  O  O360  1  0.75809403  0.11875076  0.75725091  1
  O  O361  1  0.74853707  0.62403197  0.25283189  1
  O  O362  1  0.75600603  0.61764131  0.75464343  1
  O  O363  1  0.37014007  0.11983576  0.37086081  1
  O  O364  1  0.36117827  0.13021686  0.87034946  1
  O  O365  1  0.37080338  0.61887194  0.37480815  1
  O  O366  1  0.38326485  0.61228275  0.86747572  1
  O  O367  1  0.86482033  0.11479572  0.37318945  1
  O  O368  1  0.86585472  0.11778551  0.87028633  1
  O  O369  1  0.86618339  0.62497237  0.35506184  1
  O  O370  1  0.86355818  0.61912537  0.86620876  1
  O  O371  1  0.13739589  0.37861735  0.13991208  1
  O  O372  1  0.13082121  0.37855512  0.62907668  1
  O  O373  1  0.14344428  0.87461680  0.13085470  1
  O  O374  1  0.12841146  0.88565424  0.63019570  1
  O  O375  1  0.62098335  0.39161139  0.12101716  1
  O  O376  1  0.61687800  0.38352440  0.63787111  1
  O  O377  1  0.63954640  0.86749145  0.12247638  1
  O  O378  1  0.62908958  0.88746024  0.62055114  1
  O  O379  1  0.12124497  0.25510312  0.25893125  1
  O  O380  1  0.12156671  0.25731247  0.76067465  1
  O  O381  1  0.12157081  0.77314862  0.24572079  1
  O  O382  1  0.12598327  0.76028621  0.75853981  1
  O  O383  1  0.61199805  0.25212572  0.24865290  1
  O  O384  1  0.61658846  0.25787948  0.74362023  1
  O  O385  1  0.61155867  0.75100728  0.24992715  1
  O  O386  1  0.62504968  0.74350982  0.74845210  1
  O  O387  1  0.38793027  0.23704307  0.25639382  1
  O  O388  1  0.38001777  0.24616883  0.74219331  1
  O  O389  1  0.38380487  0.74593931  0.24134280  1
  O  O390  1  0.37938286  0.74383194  0.73846047  1
  O  O391  1  0.88567177  0.24824598  0.24391796  1
  O  O392  1  0.87423848  0.24249127  0.74397611  1
  O  O393  1  0.87265422  0.73767827  0.23336384  1
  O  O394  1  0.87550019  0.73641468  0.73747317  1
  O  O395  1  0.37190305  0.49104601  0.49458383  1
  O  O396  1  0.37361167  0.49883864  0.99013494  1
  O  O397  1  0.38590518  0.99912683  0.49405971  1
  O  O398  1  0.39199274  1.00107944  0.99907851  1
  O  O399  1  0.88112701  0.49266625  0.50027932  1
  O  O400  1  0.87175162  0.50066305  0.98184000  1
  O  O401  1  0.88029406  0.99687904  0.48938243  1
  O  O402  1  0.88060115  0.99440261  0.99398696  1
  O  O403  1  0.11603136  0.01030654  -0.00498217  1
  O  O404  1  0.11805247  0.00098303  0.50797317  1
  O  O405  1  0.13374896  0.49652216  0.02017838  1
  O  O406  1  0.11778678  0.50570745  0.50508944  1
  O  O407  1  0.61605783  0.01333005  0.00196544  1
  O  O408  1  0.61181865  0.00281460  0.50616594  1
  O  O409  1  0.62746728  0.51177651  0.00800461  1
  O  O410  1  0.62906286  0.50612302  0.51319755  1
  O  O411  1  0.36678040  0.38006229  0.12745801  1
  O  O412  1  0.36954945  0.37004146  0.62254061  1
  O  O413  1  0.36385488  0.86809850  0.12574758  1
  O  O414  1  0.37002908  0.86742553  0.62422408  1
  O  O415  1  0.87571023  0.36236208  0.12123151  1
  O  O416  1  0.87796109  0.36663016  0.61429153  1
  O  O417  1  0.86696830  0.86134703  0.11999795  1
  O  O418  1  0.86519424  0.86618382  0.62313301  1
  O  O419  1  0.13372279  0.13095274  0.37443104  1
  O  O420  1  0.13530218  0.13319084  0.88338888  1
  O  O421  1  0.13711704  0.62038811  0.38362667  1
  O  O422  1  0.13093891  0.64492910  0.86470086  1
  O  O423  1  0.63887869  0.11887328  0.37826805  1
  O  O424  1  0.63865589  0.12169672  0.88229350  1
  O  O425  1  0.63389911  0.62516593  0.37854677  1
  O  O426  1  0.63469789  0.61497633  0.87892137  1
