# generated using pymatgen
data_V85Zn86O256
_symmetry_space_group_name_H-M   'P 1'
_cell_length_a   16.94088193
_cell_length_b   16.93763864
_cell_length_c   16.93244858
_cell_angle_alpha   90.03105569
_cell_angle_beta   89.97970347
_cell_angle_gamma   89.97074720
_symmetry_Int_Tables_number   1
_chemical_formula_structural   V85Zn86O256
_chemical_formula_sum   'V85 Zn86 O256'
_cell_volume   4858.57035979
_cell_formula_units_Z   1
loop_
 _symmetry_equiv_pos_site_id
 _symmetry_equiv_pos_as_xyz
  1  'x, y, z'
loop_
 _atom_site_type_symbol
 _atom_site_label
 _atom_site_symmetry_multiplicity
 _atom_site_fract_x
 _atom_site_fract_y
 _atom_site_fract_z
 _atom_site_occupancy
  V  V0  1  0.24980362  0.12194672  0.87524465  1
  V  V1  1  -0.00306344  0.37743963  0.36863301  1
  V  V2  1  0.25200451  0.00134543  0.24369414  1
  V  V3  1  -0.00383946  0.11975387  0.62921442  1
  V  V4  1  0.00034874  0.87525351  0.37491041  1
  V  V5  1  0.12511491  0.24875040  0.87476743  1
  V  V6  1  0.37126026  0.49668008  0.37523208  1
  V  V7  1  0.74472225  0.13864460  0.38000414  1
  V  V8  1  0.63131705  0.75237137  0.86951605  1
  V  V9  1  0.12866497  0.87688057  0.24126064  1
  V  V10  1  0.11030242  0.87178163  0.75153167  1
  V  V11  1  0.62890271  0.24240454  0.87330736  1
  V  V12  1  0.37255914  0.87502277  0.51378284  1
  V  V13  1  0.13064639  0.74619733  0.37328255  1
  V  V14  1  0.74646706  0.37670456  0.12407885  1
  V  V15  1  0.87339216  0.38054364  -0.00537543  1
  V  V16  1  0.50196010  0.36794597  0.38041931  1
  V  V17  1  0.88240449  0.62235209  0.75268564  1
  V  V18  1  0.49701457  0.49724493  0.50642074  1
  V  V19  1  0.25494188  0.75340374  0.51770262  1
  V  V20  1  0.25225963  0.50265948  0.75044317  1
  V  V21  1  0.75171703  0.37260229  0.61724643  1
  V  V22  1  0.62337062  0.87838810  0.24609733  1
  V  V23  1  0.35901639  0.25246240  0.62213027  1
  V  V24  1  0.37444757  0.37706211  -0.00488198  1
  V  V25  1  -0.00391605  0.38437471  0.87165491  1
  V  V26  1  0.00719257  0.62516344  0.62805334  1
  V  V27  1  0.87621304  0.24561757  0.12482029  1
  V  V28  1  0.62384217  0.37029487  0.25099625  1
  V  V29  1  0.87196662  0.62936612  0.25146041  1
  V  V30  1  0.73769833  0.00661011  0.75414462  1
  V  V31  1  0.88137954  -0.00626609  0.87315188  1
  V  V32  1  0.75181564  0.24443158  -0.00536175  1
  V  V33  1  0.37744806  -0.00380596  0.87989624  1
  V  V34  1  -0.00278933  0.75373387  0.24894122  1
  V  V35  1  0.12212104  0.49709801  0.12133880  1
  V  V36  1  0.50362882  0.25216992  0.25282286  1
  V  V37  1  0.12922686  0.12692028  0.50192476  1
  V  V38  1  0.50104699  0.24461934  0.73947326  1
  V  V39  1  0.62474360  0.62770516  0.50818946  1
  V  V40  1  0.63209911  0.62568490  -0.00387383  1
  V  V41  1  0.24868481  0.75668820  0.00762287  1
  V  V42  1  0.62161266  0.75254918  0.37431467  1
  V  V43  1  0.86934934  0.75727147  0.11156718  1
  V  V44  1  0.51202534  0.00237666  0.51405324  1
  V  V45  1  0.75750898  0.62672204  0.87656334  1
  V  V46  1  0.88103306  0.75120571  0.63173882  1
  V  V47  1  0.11408712  0.75114933  0.86924868  1
  V  V48  1  -0.00204143  0.50145389  0.50236813  1
  V  V49  1  0.62647567  0.13741787  0.50905959  1
  V  V50  1  0.57655388  0.55541726  0.16425266  1
  V  V51  1  0.12440497  0.25006778  0.37545581  1
  V  V52  1  0.74924739  0.88086412  0.11331905  1
  V  V53  1  0.25132747  0.13151342  0.37825058  1
  V  V54  1  0.25216905  -0.01334588  0.74835647  1
  V  V55  1  0.62679182  0.37544762  0.75021474  1
  V  V56  1  0.13072362  -0.00955549  0.62430794  1
  V  V57  1  0.37278604  0.87406166  0.01920321  1
  V  V58  1  -0.00492051  -0.01342996  0.00203600  1
  V  V59  1  0.24864724  0.49948616  0.24976650  1
  V  V60  1  0.48665938  0.62926699  0.63356225  1
  V  V61  1  0.87466518  0.87443785  0.50228392  1
  V  V62  1  -0.00147761  0.24694036  0.75178724  1
  V  V63  1  0.12903121  0.37650487  0.74650861  1
  V  V64  1  0.00138652  -0.00241069  0.50011786  1
  V  V65  1  0.25135327  0.24935982  -0.00131863  1
  V  V66  1  0.17906314  0.44089963  0.58283232  1
  V  V67  1  0.74893229  0.50281911  0.24758584  1
  V  V68  1  0.50144122  0.37155491  0.87176807  1
  V  V69  1  0.50466638  0.87392330  0.87552902  1
  V  V70  1  0.13175851  0.62644086  0.49922542  1
  V  V71  1  0.26148915  0.63126947  0.87182802  1
  V  V72  1  0.74898505  0.00055866  0.25233446  1
  V  V73  1  0.74901372  0.75195466  0.50478795  1
  V  V74  1  0.62358722  0.12069712  0.00682514  1
  V  V75  1  0.30947522  0.66476978  0.31841796  1
  V  V76  1  0.75465066  0.49958705  0.75381718  1
  V  V77  1  0.50069746  0.87622495  0.37383343  1
  V  V78  1  -0.00304759  0.62497270  0.12203419  1
  V  V79  1  0.48681062  0.74663387  0.75483284  1
  V  V80  1  0.50871627  0.50004070  -0.00560873  1
  V  V81  1  0.37924611  0.12080842  0.74358585  1
  V  V82  1  0.73715268  0.87935766  0.63468926  1
  V  V83  1  0.37727420  0.25157681  0.12671813  1
  V  V84  1  0.37692460  0.00399856  0.37998950  1
  Zn  Zn85  1  0.87478426  0.12510872  0.25373995  1
  Zn  Zn86  1  0.86825524  0.24425697  0.62197807  1
  Zn  Zn87  1  0.42960200  0.68253198  0.16755787  1
  Zn  Zn88  1  0.24621979  0.37389022  0.12193285  1
  Zn  Zn89  1  0.37803425  0.12804838  0.25284471  1
  Zn  Zn90  1  0.86774149  0.12690792  0.76088946  1
  Zn  Zn91  1  0.50683067  -0.00596028  0.01045805  1
  Zn  Zn92  1  0.86861678  0.37127646  0.49477189  1
  Zn  Zn93  1  0.12305672  0.62443576  -0.00501694  1
  Zn  Zn94  1  0.35692745  0.37091775  0.50526572  1
  Zn  Zn95  1  0.00390864  0.12296199  0.12438029  1
  Zn  Zn96  1  0.12059577  0.12196196  0.00101360  1
  Zn  Zn97  1  0.50561986  0.11993713  0.13318316  1
  Zn  Zn98  1  -0.00022504  0.24420368  0.24818438  1
  Zn  Zn99  1  -0.00432126  0.50217245  -0.00492827  1
  Zn  Zn100  1  0.74979442  0.62607902  0.37915957  1
  Zn  Zn101  1  0.12848283  0.00051570  0.11991712  1
  Zn  Zn102  1  0.87347515  0.00292114  0.37737225  1
  Zn  Zn103  1  0.87283888  0.50160671  0.37576293  1
  Zn  Zn104  1  0.12310381  0.37014453  0.24458787  1
  Zn  Zn105  1  0.38101945  0.50834563  0.86878889  1
  Zn  Zn106  1  0.62410116  0.50261989  0.62886626  1
  Zn  Zn107  1  0.18818889  0.18430140  0.18765137  1
  Zn  Zn108  1  0.18502518  0.18050203  0.69136570  1
  Zn  Zn109  1  0.18084429  0.68723288  0.18201415  1
  Zn  Zn110  1  0.18853416  0.68690414  0.69090159  1
  Zn  Zn111  1  0.69094725  0.18962959  0.18855188  1
  Zn  Zn112  1  0.68684033  0.18763807  0.68368027  1
  Zn  Zn113  1  0.69137689  0.69956282  0.19036772  1
  Zn  Zn114  1  0.68727268  0.69050357  0.69174138  1
  Zn  Zn115  1  0.31287632  0.31529892  0.31331166  1
  Zn  Zn116  1  0.31255049  0.31203949  0.80894234  1
  Zn  Zn117  1  0.31914661  0.82649232  0.30897331  1
  Zn  Zn118  1  0.31145853  0.81307546  0.81888721  1
  Zn  Zn119  1  0.81317659  0.31316442  0.31111006  1
  Zn  Zn120  1  0.81409862  0.31086103  0.81010559  1
  Zn  Zn121  1  0.80922265  0.81437985  0.31313936  1
  Zn  Zn122  1  0.81539223  0.81275130  0.81244967  1
  Zn  Zn123  1  0.18373893  0.44082926  0.42047288  1
  Zn  Zn124  1  0.18606328  0.43940279  0.93419283  1
  Zn  Zn125  1  0.19033350  0.93580934  0.43391668  1
  Zn  Zn126  1  0.18364988  0.93407182  0.93736731  1
  Zn  Zn127  1  0.68382847  0.44112400  0.43538899  1
  Zn  Zn128  1  0.69041612  0.43692477  0.93317412  1
  Zn  Zn129  1  0.68996384  0.93984964  0.43795722  1
  Zn  Zn130  1  0.68995356  0.94046261  0.92945598  1
  Zn  Zn131  1  0.31889914  0.06604098  0.06361728  1
  Zn  Zn132  1  0.31345888  0.06216163  0.56444889  1
  Zn  Zn133  1  0.30895296  0.56717223  0.05465824  1
  Zn  Zn134  1  0.31444803  0.56931505  0.55800664  1
  Zn  Zn135  1  0.81254459  0.05979949  0.05772922  1
  Zn  Zn136  1  0.80831662  0.05954161  0.56298260  1
  Zn  Zn137  1  0.81081039  0.56273460  0.06471810  1
  Zn  Zn138  1  0.81413346  0.56102763  0.56672719  1
  Zn  Zn139  1  0.41011600  0.47701335  0.16260660  1
  Zn  Zn140  1  0.43397244  0.43391231  0.68669356  1
  Zn  Zn141  1  0.44137114  0.94141824  0.19124672  1
  Zn  Zn142  1  0.44396033  0.93315955  0.69259978  1
  Zn  Zn143  1  0.93312886  0.43709232  0.18540404  1
  Zn  Zn144  1  0.93822257  0.43966965  0.68561216  1
  Zn  Zn145  1  0.93311046  0.93995816  0.18656873  1
  Zn  Zn146  1  0.93208962  0.93949189  0.68937021  1
  Zn  Zn147  1  0.06112429  0.06279687  0.30953634  1
  Zn  Zn148  1  0.06139943  0.05744709  0.81622926  1
  Zn  Zn149  1  0.06219348  0.56412427  0.30943347  1
  Zn  Zn150  1  0.07003901  0.56367200  0.80887532  1
  Zn  Zn151  1  0.56624198  0.06346887  0.31698172  1
  Zn  Zn152  1  0.56181381  0.06301531  0.81661248  1
  Zn  Zn153  1  0.55892109  0.56267850  0.32852936  1
  Zn  Zn154  1  0.56562712  0.56457115  0.81242113  1
  Zn  Zn155  1  0.44125678  0.18619153  0.44596280  1
  Zn  Zn156  1  0.44049752  0.18665962  0.93504510  1
  Zn  Zn157  1  0.44172929  0.69217978  0.44778315  1
  Zn  Zn158  1  0.45419054  0.70474589  0.97798793  1
  Zn  Zn159  1  0.93531458  0.18814179  0.43823576  1
  Zn  Zn160  1  0.93602479  0.17881219  0.93820226  1
  Zn  Zn161  1  0.93914281  0.68861605  0.43908864  1
  Zn  Zn162  1  0.93615861  0.68978822  0.93693221  1
  Zn  Zn163  1  0.06008251  0.31077042  0.05869323  1
  Zn  Zn164  1  0.03372985  0.29936846  0.54944822  1
  Zn  Zn165  1  0.06258996  0.81103990  0.06025449  1
  Zn  Zn166  1  0.06539122  0.81065700  0.56304659  1
  Zn  Zn167  1  0.56360887  0.31376505  0.06478620  1
  Zn  Zn168  1  0.56304545  0.31315061  0.56638767  1
  Zn  Zn169  1  0.56517469  0.80909041  0.06399153  1
  Zn  Zn170  1  0.55705085  0.81299373  0.56733059  1
  O  O171  1  0.12545597  0.11944413  0.12013073  1
  O  O172  1  0.11826994  0.11446916  0.61999250  1
  O  O173  1  0.11243663  0.61767971  0.12052887  1
  O  O174  1  0.11356821  0.63409473  0.61818366  1
  O  O175  1  0.62505198  0.13427225  0.11041808  1
  O  O176  1  0.62923169  0.12425811  0.60864335  1
  O  O177  1  0.63954644  0.62544292  0.11456528  1
  O  O178  1  0.61881330  0.62611916  0.61853272  1
  O  O179  1  0.37796199  0.38077440  0.38670895  1
  O  O180  1  0.38229501  0.37080889  0.88336249  1
  O  O181  1  0.38508573  0.88485062  0.38356462  1
  O  O182  1  0.37977768  0.88635390  0.87956915  1
  O  O183  1  0.88213705  0.37891820  0.37654920  1
  O  O184  1  0.88436469  0.36986801  0.88122753  1
  O  O185  1  0.88173620  0.87255599  0.38490580  1
  O  O186  1  0.86980412  0.89214040  0.87164319  1
  O  O187  1  0.25749986  0.01131987  0.37189761  1
  O  O188  1  0.25665301  0.00417189  0.86981337  1
  O  O189  1  0.25701414  0.50693715  0.36576515  1
  O  O190  1  0.24940106  0.51408072  0.86954253  1
  O  O191  1  0.75237703  0.00582070  0.36753757  1
  O  O192  1  0.75762289  -0.00105086  0.85932339  1
  O  O193  1  0.74929507  0.50531284  0.36241742  1
  O  O194  1  0.75022549  0.50687244  0.86109546  1
  O  O195  1  0.23895797  0.49684676  0.12989633  1
  O  O196  1  0.24727109  0.50674488  0.63201568  1
  O  O197  1  0.25444941  1.00696962  0.14050465  1
  O  O198  1  0.24182251  1.00617522  0.63620355  1
  O  O199  1  0.75304906  0.49394385  0.13866626  1
  O  O200  1  0.74723605  0.49308677  0.63588876  1
  O  O201  1  0.75350195  0.98946051  0.13413791  1
  O  O202  1  0.75566284  0.98651053  0.63737094  1
  O  O203  1  0.00000269  0.37626585  0.25945037  1
  O  O204  1  0.00578786  0.36804091  0.75325790  1
  O  O205  1  0.00624377  0.87289148  0.25575818  1
  O  O206  1  0.01107267  0.87777554  0.74568179  1
  O  O207  1  0.50640740  0.36476362  0.26017932  1
  O  O208  1  0.50619633  0.36692294  0.75302350  1
  O  O209  1  0.50692815  0.87855857  0.26501753  1
  O  O210  1  0.49826431  0.86299103  0.76470593  1
  O  O211  1  0.50054401  0.13911300  0.25614605  1
  O  O212  1  0.49029960  0.13149561  0.75676376  1
  O  O213  1  0.51898606  0.61273167  0.23093380  1
  O  O214  1  0.50085625  0.63555278  0.74774803  1
  O  O215  1  0.99288453  0.12490267  0.24477637  1
  O  O216  1  1.00154930  0.12896076  0.74450996  1
  O  O217  1  0.99226408  0.63102779  0.23958353  1
  O  O218  1  0.99506127  0.61912548  0.74020783  1
  O  O219  1  0.37282622  0.25601691  0.00523376  1
  O  O220  1  0.37497342  0.24736237  0.51808930  1
  O  O221  1  0.35567661  0.76280599  -0.01171972  1
  O  O222  1  0.36654308  0.76167613  0.49743834  1
  O  O223  1  0.86774435  0.25681621  0.00264815  1
  O  O224  1  0.91313073  0.26562454  0.51743464  1
  O  O225  1  0.87531586  0.74853973  0.01281016  1
  O  O226  1  0.86826246  0.75318060  0.50939391  1
  O  O227  1  0.11693857  0.23930464  0.48760069  1
  O  O228  1  0.13399001  0.24944498  0.99114747  1
  O  O229  1  0.13696534  0.75009497  0.49043494  1
  O  O230  1  0.13376411  0.75126692  0.98906412  1
  O  O231  1  0.61623176  0.23652151  0.50015833  1
  O  O232  1  0.63193529  0.24657706  0.99234290  1
  O  O233  1  0.62851622  0.74542284  0.49910930  1
  O  O234  1  0.62347980  0.73275040  0.98707575  1
  O  O235  1  0.49348488  0.25156319  0.13556502  1
  O  O236  1  0.49322021  0.25125601  0.63719201  1
  O  O237  1  0.48280659  0.73890873  0.08911643  1
  O  O238  1  0.50373014  0.74519039  0.64538787  1
  O  O239  1  0.98963093  0.24962174  0.12558322  1
  O  O240  1  1.00939044  0.23583432  0.64236502  1
  O  O241  1  0.99333655  0.74445837  0.12991092  1
  O  O242  1  0.99054557  0.74012716  0.61656862  1
  O  O243  1  0.00651951  0.25925076  0.37143091  1
  O  O244  1  0.00421921  0.25351917  0.86518750  1
  O  O245  1  0.00819823  0.75622706  0.36964092  1
  O  O246  1  0.01532273  0.74697787  0.87785963  1
  O  O247  1  0.49103227  0.26247189  0.37294432  1
  O  O248  1  0.50667183  0.25493708  0.86490820  1
  O  O249  1  0.51252531  0.76087826  0.38532329  1
  O  O250  1  0.50610700  0.75428091  0.87225639  1
  O  O251  1  0.23669857  0.11890406  0.49502719  1
  O  O252  1  0.25333907  0.12900176  0.98735182  1
  O  O253  1  0.24393746  0.63833117  0.50100195  1
  O  O254  1  0.24543274  0.63456790  0.98761451  1
  O  O255  1  0.73906438  0.12085789  0.49195062  1
  O  O256  1  0.74012282  0.13731860  1.00298827  1
  O  O257  1  0.74148506  0.63004441  0.50312220  1
  O  O258  1  0.74820998  0.61668485  0.98494350  1
  O  O259  1  0.25898399  0.36943913  -0.00450096  1
  O  O260  1  0.23824458  0.39011874  0.51097056  1
  O  O261  1  0.25465418  0.86492367  -0.00131444  1
  O  O262  1  0.26097283  0.86636870  0.49291260  1
  O  O263  1  0.75492407  0.36711274  0.00202730  1
  O  O264  1  0.74875134  0.38416209  0.51303350  1
  O  O265  1  0.74249907  0.88358933  0.01490304  1
  O  O266  1  0.75591709  0.87306245  0.51181724  1
  O  O267  1  0.13049488  0.49982198  0.23937236  1
  O  O268  1  0.13678515  0.48989230  0.74747973  1
  O  O269  1  0.13438274  0.99226896  0.25105312  1
  O  O270  1  0.13238911  0.99191874  0.74515656  1
  O  O271  1  0.62820745  0.49858551  0.24608041  1
  O  O272  1  0.63375132  0.49333368  0.74969222  1
  O  O273  1  0.63303966  0.98778315  0.25622899  1
  O  O274  1  0.63812960  1.00146608  0.75692687  1
  O  O275  1  0.36977092  0.00165211  0.26554038  1
  O  O276  1  0.37093000  0.00366021  0.75594279  1
  O  O277  1  0.36509405  0.49221196  0.26743062  1
  O  O278  1  0.35804472  0.48879508  0.75374034  1
  O  O279  1  0.86152056  0.00161242  0.25455818  1
  O  O280  1  0.87014374  0.00384295  0.75921983  1
  O  O281  1  0.86674766  0.51076842  0.25070019  1
  O  O282  1  0.86931536  0.51300136  0.74490617  1
  O  O283  1  0.11661735  0.36571845  0.36954070  1
  O  O284  1  0.11718390  0.36881600  0.86612672  1
  O  O285  1  0.12112809  0.86382720  0.36798003  1
  O  O286  1  0.12947123  0.86042272  0.86549204  1
  O  O287  1  0.61445593  0.38295186  0.36359861  1
  O  O288  1  0.62107806  0.36460184  0.86860006  1
  O  O289  1  0.61934597  0.87056740  0.37202431  1
  O  O290  1  0.61672742  0.86496440  0.88413709  1
  O  O291  1  0.37897204  0.14183440  0.12850763  1
  O  O292  1  0.37219468  0.13205326  0.63734802  1
  O  O293  1  0.37814223  0.58651906  0.13782229  1
  O  O294  1  0.38773225  0.62644072  0.62367267  1
  O  O295  1  0.86950783  0.13808882  0.12318169  1
  O  O296  1  0.88823448  0.12303559  0.62348559  1
  O  O297  1  0.87725684  0.63309019  0.13376018  1
  O  O298  1  0.88414547  0.63206618  0.63091917  1
  O  O299  1  0.25932139  0.25369533  0.11973685  1
  O  O300  1  0.26047652  0.24462006  0.63235618  1
  O  O301  1  0.24616973  0.74248364  0.10657449  1
  O  O302  1  0.24751896  0.75163883  0.61681696  1
  O  O303  1  0.75602330  0.25768978  0.11609896  1
  O  O304  1  0.75152562  0.26725830  0.62874312  1
  O  O305  1  0.75801986  0.76718289  0.12779243  1
  O  O306  1  0.75677974  0.76019833  0.62470537  1
  O  O307  1  0.24439107  0.23926022  0.37354422  1
  O  O308  1  0.24715971  0.24036619  0.87657720  1
  O  O309  1  0.24901899  0.74249723  0.36924217  1
  O  O310  1  0.24170629  0.74142200  0.87840869  1
  O  O311  1  0.75111214  0.23782112  0.37442888  1
  O  O312  1  0.74137551  0.25511169  0.88186579  1
  O  O313  1  0.73826291  0.75047188  0.38523819  1
  O  O314  1  0.74479122  0.73987052  0.86828742  1
  O  O315  1  0.00218982  0.11258932  0.00344887  1
  O  O316  1  0.01128490  0.11597424  0.50684657  1
  O  O317  1  -0.00248394  0.62228784  0.01041278  1
  O  O318  1  0.00837074  0.61672969  0.50298386  1
  O  O319  1  0.51529913  0.12883812  0.00113432  1
  O  O320  1  0.51382358  0.11130402  0.49488501  1
  O  O321  1  0.51375605  0.60680802  -0.00992869  1
  O  O322  1  0.50607110  0.61958481  0.51132327  1
  O  O323  1  0.50125846  0.38399470  0.49735432  1
  O  O324  1  0.49762517  0.38081762  0.99195070  1
  O  O325  1  0.49644346  0.88527364  0.49458164  1
  O  O326  1  0.49049735  0.87510613  0.99032437  1
  O  O327  1  1.00642677  0.39243492  0.48641644  1
  O  O328  1  0.99114864  0.37487327  0.98809338  1
  O  O329  1  0.99629307  0.87795409  0.49525192  1
  O  O330  1  0.99992067  0.88670509  1.00230127  1
  O  O331  1  0.49059851  0.48992628  0.38476413  1
  O  O332  1  0.50060067  0.49013400  0.87665448  1
  O  O333  1  0.49366067  0.99507751  0.38344731  1
  O  O334  1  0.49360205  0.99176081  0.87959460  1
  O  O335  1  1.00043779  0.49537169  0.37978379  1
  O  O336  1  1.00617096  0.48774098  0.87313771  1
  O  O337  1  0.99979959  0.99135900  0.38171774  1
  O  O338  1  0.99086566  0.99746229  0.88382662  1
  O  O339  1  -0.00188626  -0.00099785  0.11259843  1
  O  O340  1  0.00859610  0.00420716  0.62201769  1
  O  O341  1  0.00375831  0.50792343  0.12441879  1
  O  O342  1  -0.00216113  0.51012155  0.61429935  1
  O  O343  1  0.49632459  0.00771365  0.12232788  1
  O  O344  1  0.49890721  -0.00261914  0.61248948  1
  O  O345  1  0.51491317  0.48662944  0.11176236  1
  O  O346  1  0.49992674  0.50611859  0.62147045  1
  O  O347  1  0.24569988  0.38776242  0.24905362  1
  O  O348  1  0.23650765  0.38023252  0.75360788  1
  O  O349  1  0.24063859  0.88788989  0.25739562  1
  O  O350  1  0.24594295  0.88454663  0.75403190  1
  O  O351  1  0.74214870  0.38365238  0.24858983  1
  O  O352  1  0.74712169  0.38236247  0.74405781  1
  O  O353  1  0.74157575  0.88327139  0.24702870  1
  O  O354  1  0.75220874  0.88282511  0.73939997  1
  O  O355  1  0.25471912  0.11884667  0.26174134  1
  O  O356  1  0.25768104  0.11539808  0.76089439  1
  O  O357  1  0.24359913  0.61517419  0.25012691  1
  O  O358  1  0.24721177  0.61835932  0.76205648  1
  O  O359  1  0.74750767  0.11882092  0.26188932  1
  O  O360  1  0.75136806  0.11026278  0.73931089  1
  O  O361  1  0.75570487  0.62159394  0.25141838  1
  O  O362  1  0.75819484  0.61825571  0.75521788  1
  O  O363  1  0.36826821  0.12079151  0.37946217  1
  O  O364  1  0.37152378  0.11382993  0.86888467  1
  O  O365  1  0.38113315  0.61617180  0.37984257  1
  O  O366  1  0.36131394  0.62721381  0.88063579  1
  O  O367  1  0.86122308  0.12399105  0.37907527  1
  O  O368  1  0.87373277  0.10743562  0.87485234  1
  O  O369  1  0.87423194  0.62795718  0.36256440  1
  O  O370  1  0.87086127  0.62965846  0.86481375  1
  O  O371  1  0.12366389  0.38259182  0.12516729  1
  O  O372  1  0.11560280  0.37184955  0.63069006  1
  O  O373  1  0.12286434  0.87583767  0.13826178  1
  O  O374  1  0.12423809  0.88458108  0.63057303  1
  O  O375  1  0.63246756  0.37092103  0.13926987  1
  O  O376  1  0.63525141  0.37788246  0.63178942  1
  O  O377  1  0.63495763  0.86761079  0.13480362  1
  O  O378  1  0.63910110  0.87123630  0.62445807  1
  O  O379  1  0.12390423  0.24898986  0.26239611  1
  O  O380  1  0.12092393  0.25547875  0.75638469  1
  O  O381  1  0.11992112  0.75638301  0.25447674  1
  O  O382  1  0.12727793  0.75721052  0.76033242  1
  O  O383  1  0.61817384  0.25854411  0.25015317  1
  O  O384  1  0.61911644  0.25183268  0.75508079  1
  O  O385  1  0.62816228  0.76297158  0.26330873  1
  O  O386  1  0.61577757  0.74459964  0.76546516  1
  O  O387  1  0.38247308  0.25436289  0.24226523  1
  O  O388  1  0.38086609  0.24134223  0.74365538  1
  O  O389  1  0.36743259  0.73220700  0.25912737  1
  O  O390  1  0.38778376  0.75062363  0.75867495  1
  O  O391  1  0.87441334  0.24873827  0.23840293  1
  O  O392  1  0.88420373  0.24478168  0.74485916  1
  O  O393  1  0.87869757  0.74534265  0.24491507  1
  O  O394  1  0.87257574  0.73949757  0.73896847  1
  O  O395  1  0.38220034  0.49751933  0.49426276  1
  O  O396  1  0.38588554  0.49133828  0.99158574  1
  O  O397  1  0.38293362  0.99799178  0.49402144  1
  O  O398  1  0.37381374  0.99162154  0.99370170  1
  O  O399  1  0.88446842  0.50049559  0.49589355  1
  O  O400  1  0.87474653  0.48452281  1.00535726  1
  O  O401  1  0.88232755  0.99098150  0.50135319  1
  O  O402  1  0.88482048  0.99980851  0.98977100  1
  O  O403  1  0.11217200  -0.00199446  -0.00123888  1
  O  O404  1  0.12268921  0.00202563  0.50721722  1
  O  O405  1  0.12108799  0.50154511  0.00953236  1
  O  O406  1  0.12423921  0.50418171  0.50632677  1
  O  O407  1  0.62739122  0.01861892  -0.00837551  1
  O  O408  1  0.61427822  0.00146726  0.49993132  1
  O  O409  1  0.62232865  0.50865045  -0.00587784  1
  O  O410  1  0.61269184  0.50970698  0.50173805  1
  O  O411  1  0.37386342  0.37171211  0.11021484  1
  O  O412  1  0.37270044  0.35797582  0.62448849  1
  O  O413  1  0.37602244  0.87650603  0.11846395  1
  O  O414  1  0.37866548  0.88132635  0.61306441  1
  O  O415  1  0.86841845  0.36543634  0.11673818  1
  O  O416  1  0.86017464  0.37802566  0.62478689  1
  O  O417  1  0.86014197  0.86936977  0.12923611  1
  O  O418  1  0.87172281  0.86622348  0.62061135  1
  O  O419  1  0.13087778  0.12919568  0.38230946  1
  O  O420  1  0.13504398  0.12901764  0.87432194  1
  O  O421  1  0.11892999  0.63929742  0.37949861  1
  O  O422  1  0.13185121  0.63663230  0.87492219  1
  O  O423  1  0.63892746  0.12173404  0.38561890  1
  O  O424  1  0.62229172  0.13798591  0.88399274  1
  O  O425  1  0.62331791  0.63462114  0.39028628  1
  O  O426  1  0.63755746  0.62950697  0.87852104  1
