# generated using pymatgen
data_V85Zn86O256
_symmetry_space_group_name_H-M   'P 1'
_cell_length_a   16.94408518
_cell_length_b   16.95369176
_cell_length_c   16.95421237
_cell_angle_alpha   90.05316169
_cell_angle_beta   90.04229071
_cell_angle_gamma   90.01621424
_symmetry_Int_Tables_number   1
_chemical_formula_structural   V85Zn86O256
_chemical_formula_sum   'V85 Zn86 O256'
_cell_volume   4870.34475870
_cell_formula_units_Z   1
loop_
 _symmetry_equiv_pos_site_id
 _symmetry_equiv_pos_as_xyz
  1  'x, y, z'
loop_
 _atom_site_type_symbol
 _atom_site_label
 _atom_site_symmetry_multiplicity
 _atom_site_fract_x
 _atom_site_fract_y
 _atom_site_fract_z
 _atom_site_occupancy
  V  V0  1  0.63121510  0.12018975  0.50075713  1
  V  V1  1  0.00965193  0.62285686  0.12321498  1
  V  V2  1  0.00126676  0.25187591  0.74943534  1
  V  V3  1  0.00915354  0.74821905  0.25213951  1
  V  V4  1  0.49941251  0.74273831  0.24482362  1
  V  V5  1  0.37078918  0.61822389  0.74515745  1
  V  V6  1  0.87549853  0.12588437  0.24737201  1
  V  V7  1  0.13006310  -0.00811099  0.12331430  1
  V  V8  1  0.12658606  0.12369435  0.49947089  1
  V  V9  1  -0.00643795  0.74260209  0.73906562  1
  V  V10  1  -0.00671530  0.49732117  -0.00159094  1
  V  V11  1  0.73941439  0.49442261  0.76003708  1
  V  V12  1  0.00629334  -0.00273450  0.50494866  1
  V  V13  1  0.49840107  0.38658738  0.38788084  1
  V  V14  1  0.87650386  0.61736517  0.76178951  1
  V  V15  1  0.36598311  0.75115701  0.62040784  1
  V  V16  1  0.29482940  0.18305298  0.43699984  1
  V  V17  1  0.36956601  0.12959577  0.25179293  1
  V  V18  1  0.49897155  0.12738660  0.12589082  1
  V  V19  1  0.36580063  0.87229083  0.49924011  1
  V  V20  1  0.12295210  0.12400496  0.00043481  1
  V  V21  1  0.75296640  0.87512812  0.12188175  1
  V  V22  1  0.13597854  0.39003909  0.74561240  1
  V  V23  1  0.87968629  0.37277468  0.50613887  1
  V  V24  1  0.62329628  0.25664015  0.86932147  1
  V  V25  1  0.74815525  0.11699205  0.87653225  1
  V  V26  1  0.00280542  0.37652398  0.38021583  1
  V  V27  1  0.75360653  0.26151592  0.00455187  1
  V  V28  1  -0.01359436  0.37885791  0.87679747  1
  V  V29  1  0.82551611  0.70243053  0.57353691  1
  V  V30  1  0.86904547  0.50355951  0.37776600  1
  V  V31  1  0.00206074  0.24720653  0.25005847  1
  V  V32  1  0.80387367  0.44277477  0.19124643  1
  V  V33  1  0.50024870  0.12516993  0.62822631  1
  V  V34  1  0.75054064  -0.00034302  0.24934467  1
  V  V35  1  0.24744848  0.75247943  0.00581875  1
  V  V36  1  0.49759872  0.74857892  0.74681483  1
  V  V37  1  0.37450639  0.12758040  0.74939344  1
  V  V38  1  0.24788581  0.62002733  0.87135436  1
  V  V39  1  0.01088435  0.87094862  0.37452780  1
  V  V40  1  0.36800426  0.50300279  0.38478932  1
  V  V41  1  0.25732237  0.38022831  0.60713135  1
  V  V42  1  0.24965411  0.25351139  -0.00054044  1
  V  V43  1  0.87797079  0.75438785  0.12143580  1
  V  V44  1  0.75643868  0.87771464  0.63356496  1
  V  V45  1  -0.00024601  0.12470082  0.12413878  1
  V  V46  1  0.25094030  -0.00121701  0.24915935  1
  V  V47  1  0.50524002  0.62163963  0.60836157  1
  V  V48  1  -0.01169142  -0.00487170  0.00086012  1
  V  V49  1  0.62673318  0.25262010  0.37240946  1
  V  V50  1  0.00924586  0.50556831  0.51435532  1
  V  V51  1  0.37192570  0.25452135  0.12333978  1
  V  V52  1  0.50111252  0.25885661  0.24713838  1
  V  V53  1  0.38550792  0.38086957  -0.00261572  1
  V  V54  1  0.24349630  0.64313683  0.37460573  1
  V  V55  1  0.49658539  0.87578725  0.87414758  1
  V  V56  1  0.12231827  0.74662618  0.87577341  1
  V  V57  1  0.62398035  0.87395291  0.25080975  1
  V  V58  1  0.62425991  0.74675793  0.87712550  1
  V  V59  1  0.75117991  0.12287605  0.37493532  1
  V  V60  1  0.63376583  0.74781060  0.38336628  1
  V  V61  1  0.75249308  0.75179161  0.00005039  1
  V  V62  1  0.60026932  0.49861955  0.12573611  1
  V  V63  1  0.61032336  0.62155911  0.00652687  1
  V  V64  1  0.12748655  0.24936643  0.37967057  1
  V  V65  1  0.13048306  0.38086030  0.24590883  1
  V  V66  1  0.36826900  0.87693269  0.00750979  1
  V  V67  1  -0.00932901  0.87001207  0.87912063  1
  V  V68  1  0.37925719  0.50156388  0.87656772  1
  V  V69  1  0.49792242  0.00161655  0.00004008  1
  V  V70  1  0.87795096  -0.00281142  0.37434003  1
  V  V71  1  0.63031297  -0.00242405  0.63450900  1
  V  V72  1  0.75340342  0.24632705  0.50335218  1
  V  V73  1  0.24935034  0.12425934  0.87196421  1
  V  V74  1  0.12343319  0.25235369  0.87354916  1
  V  V75  1  0.12925087  0.63681841  0.50922460  1
  V  V76  1  0.87318267  0.11500571  0.75267692  1
  V  V77  1  0.12317275  0.87947909  0.74688302  1
  V  V78  1  0.87311906  0.87350090  0.50324057  1
  V  V79  1  0.73921073  0.37080587  0.63415732  1
  V  V80  1  0.86512650  0.62872082  0.25040489  1
  V  V81  1  0.00565616  0.12120407  0.62840746  1
  V  V82  1  0.50174041  -0.00451705  0.49968457  1
  V  V83  1  0.37190708  0.00367806  0.37625150  1
  V  V84  1  0.62434025  0.00174249  0.12499391  1
  Zn  Zn85  1  0.37746825  0.74875069  0.12371063  1
  Zn  Zn86  1  0.37583250  0.61781076  0.24182964  1
  Zn  Zn87  1  0.23826376  0.87615403  0.61717461  1
  Zn  Zn88  1  0.62937381  0.38299872  0.24575806  1
  Zn  Zn89  1  0.62100899  0.50180288  0.61460314  1
  Zn  Zn90  1  0.36950298  0.25251808  0.61406600  1
  Zn  Zn91  1  0.87577772  0.24743683  0.62801762  1
  Zn  Zn92  1  0.13534597  0.86915647  0.24980180  1
  Zn  Zn93  1  0.50238738  0.26091416  0.74396029  1
  Zn  Zn94  1  0.74931877  0.61498686  0.88276801  1
  Zn  Zn95  1  0.62443735  0.12808179  -0.00019298  1
  Zn  Zn96  1  0.50677852  0.38772008  0.86388330  1
  Zn  Zn97  1  0.86568193  -0.00972980  0.87563582  1
  Zn  Zn98  1  0.24421678  0.00166405  0.74454815  1
  Zn  Zn99  1  0.87276746  0.26387949  0.12249813  1
  Zn  Zn100  1  0.70203623  0.59374187  0.43088196  1
  Zn  Zn101  1  0.24995645  0.50715190  0.24125461  1
  Zn  Zn102  1  0.37169854  -0.00098083  0.87316152  1
  Zn  Zn103  1  0.62956436  0.87524396  0.75282394  1
  Zn  Zn104  1  0.24066800  0.38971369  0.11257718  1
  Zn  Zn105  1  0.13298024  0.60856571  0.00566123  1
  Zn  Zn106  1  0.50110528  0.87426309  0.37528524  1
  Zn  Zn107  1  0.18797445  0.18728352  0.18717017  1
  Zn  Zn108  1  0.18889018  0.19454304  0.68341806  1
  Zn  Zn109  1  0.19318322  0.68676036  0.18655610  1
  Zn  Zn110  1  0.18630554  0.69003319  0.68917646  1
  Zn  Zn111  1  0.68758615  0.19107681  0.18517871  1
  Zn  Zn112  1  0.68960834  0.18381091  0.69195505  1
  Zn  Zn113  1  0.68342684  0.68526798  0.18547214  1
  Zn  Zn114  1  0.68492585  0.68112527  0.69466302  1
  Zn  Zn115  1  0.31727895  0.32393266  0.31221867  1
  Zn  Zn116  1  0.31660311  0.31311001  0.80901135  1
  Zn  Zn117  1  0.31605700  0.81770512  0.31239009  1
  Zn  Zn118  1  0.31003745  0.80832203  0.81352300  1
  Zn  Zn119  1  0.81787896  0.30835716  0.31897983  1
  Zn  Zn120  1  0.80928141  0.30428916  0.81262110  1
  Zn  Zn121  1  0.81527133  0.81064062  0.31235649  1
  Zn  Zn122  1  0.81297650  0.80442874  0.80993566  1
  Zn  Zn123  1  0.18741443  0.44223099  0.43620225  1
  Zn  Zn124  1  0.18404362  0.43859228  0.93098036  1
  Zn  Zn125  1  0.18991539  0.94323327  0.43408101  1
  Zn  Zn126  1  0.18203412  0.93672678  0.93360812  1
  Zn  Zn127  1  0.68817226  0.42732360  0.44056573  1
  Zn  Zn128  1  0.68468398  0.43758130  0.94465401  1
  Zn  Zn129  1  0.69066041  0.93138701  0.44022880  1
  Zn  Zn130  1  0.68361828  0.93555038  0.93923456  1
  Zn  Zn131  1  0.31203671  0.06468493  0.06233815  1
  Zn  Zn132  1  0.31394077  0.05188249  0.57374760  1
  Zn  Zn133  1  0.31403224  0.56456051  0.06557276  1
  Zn  Zn134  1  0.30511774  0.56115293  0.56336825  1
  Zn  Zn135  1  0.80985030  0.06809134  0.06134480  1
  Zn  Zn136  1  0.81842356  0.05796231  0.56661216  1
  Zn  Zn137  1  0.81738730  0.57189713  0.05698920  1
  Zn  Zn138  1  0.79446697  0.53797908  0.55725554  1
  Zn  Zn139  1  0.42867251  0.43811917  0.18994415  1
  Zn  Zn140  1  0.43522988  0.43769115  0.68186086  1
  Zn  Zn141  1  0.43691489  0.93687079  0.18810279  1
  Zn  Zn142  1  0.43366464  0.93842671  0.68802377  1
  Zn  Zn143  1  0.96664667  0.44235860  0.19089834  1
  Zn  Zn144  1  0.93432675  0.43834437  0.69144984  1
  Zn  Zn145  1  0.94103182  0.93526161  0.18752882  1
  Zn  Zn146  1  0.94251261  0.93535259  0.68840724  1
  Zn  Zn147  1  0.06636514  0.06040798  0.31475255  1
  Zn  Zn148  1  0.05817122  0.06018126  0.81755738  1
  Zn  Zn149  1  0.06034308  0.56513881  0.31937715  1
  Zn  Zn150  1  0.05927590  0.56021103  0.81550093  1
  Zn  Zn151  1  0.56107616  0.06431622  0.31129150  1
  Zn  Zn152  1  0.56255578  0.06502407  0.81386690  1
  Zn  Zn153  1  0.56081780  0.56264131  0.30914591  1
  Zn  Zn154  1  0.56066951  0.56583719  0.81050521  1
  Zn  Zn155  1  0.45843763  0.18688843  0.43635823  1
  Zn  Zn156  1  0.43734833  0.18911052  0.93640643  1
  Zn  Zn157  1  0.43681783  0.69074536  0.42956982  1
  Zn  Zn158  1  0.43273033  0.68900211  0.93704761  1
  Zn  Zn159  1  0.94099232  0.18607901  0.43764188  1
  Zn  Zn160  1  0.93336402  0.18870076  0.93710517  1
  Zn  Zn161  1  0.94727505  0.68277303  0.43326602  1
  Zn  Zn162  1  0.93805112  0.68379850  0.93900776  1
  Zn  Zn163  1  0.05787385  0.31273224  0.06019341  1
  Zn  Zn164  1  0.06935015  0.31237577  0.56723111  1
  Zn  Zn165  1  0.06302202  0.81184116  0.06091639  1
  Zn  Zn166  1  0.05733678  0.80715726  0.56406852  1
  Zn  Zn167  1  0.56631680  0.31529897  0.05791378  1
  Zn  Zn168  1  0.56348289  0.30835529  0.56216007  1
  Zn  Zn169  1  0.56280641  0.81465518  0.06174291  1
  Zn  Zn170  1  0.56241857  0.81114120  0.56446955  1
  O  O171  1  0.11794611  0.11886498  0.11906380  1
  O  O172  1  0.11436487  0.13228629  0.61389244  1
  O  O173  1  0.11297792  0.63403760  0.12218913  1
  O  O174  1  0.13459533  0.62751373  0.60922229  1
  O  O175  1  0.61667389  0.11901089  0.12630765  1
  O  O176  1  0.62182973  0.11700164  0.62120972  1
  O  O177  1  0.62410969  0.61535256  0.11430465  1
  O  O178  1  0.60830034  0.62930345  0.62583580  1
  O  O179  1  0.38839448  0.38713247  0.37594064  1
  O  O180  1  0.37221588  0.38609121  0.88047811  1
  O  O181  1  0.38088354  0.88409673  0.38353659  1
  O  O182  1  0.38528155  0.87473575  0.87866207  1
  O  O183  1  0.88078143  0.37936871  0.38806891  1
  O  O184  1  0.88893692  0.36690265  0.86855025  1
  O  O185  1  0.88280579  0.87854933  0.38296364  1
  O  O186  1  0.88566524  0.87255558  0.86966279  1
  O  O187  1  0.25966828  0.00465609  0.36541629  1
  O  O188  1  0.24658195  0.01411775  0.87197950  1
  O  O189  1  0.26047402  0.50171408  0.36984976  1
  O  O190  1  0.25764096  0.51438264  0.87716737  1
  O  O191  1  0.75691370  0.00351773  0.36982797  1
  O  O192  1  0.74865839  0.01035558  0.88181707  1
  O  O193  1  0.76520309  0.50113127  0.37904349  1
  O  O194  1  0.74509050  0.49585450  0.86512959  1
  O  O195  1  0.24402594  0.50096598  0.12736048  1
  O  O196  1  0.25314946  0.48152500  0.62537149  1
  O  O197  1  0.24010998  1.00634173  0.13083045  1
  O  O198  1  0.24793076  0.98766946  0.63258938  1
  O  O199  1  0.75336243  0.49989845  0.12613785  1
  O  O200  1  0.75052515  0.48485395  0.64514292  1
  O  O201  1  0.74583085  0.99642422  0.13014049  1
  O  O202  1  0.74209345  0.99052580  0.62086424  1
  O  O203  1  0.01099893  0.36528618  0.25987336  1
  O  O204  1  0.00489161  0.36871553  0.75610192  1
  O  O205  1  0.00103441  0.86719191  0.25927838  1
  O  O206  1  0.00549526  0.86438359  0.75715490  1
  O  O207  1  0.49941202  0.36614670  0.25577630  1
  O  O208  1  0.49258019  0.37274734  0.75241672  1
  O  O209  1  0.51412965  0.87579554  0.25126436  1
  O  O210  1  0.49950401  0.86461995  0.75583505  1
  O  O211  1  0.49184828  0.13869201  0.24849691  1
  O  O212  1  0.49397095  0.12664385  0.74186718  1
  O  O213  1  0.49731706  0.64045022  0.25150294  1
  O  O214  1  0.49094048  0.63706979  0.74603132  1
  O  O215  1  0.99430423  0.12788721  0.24713505  1
  O  O216  1  0.99893360  0.13024080  0.74461665  1
  O  O217  1  0.99578457  0.63036670  0.24307820  1
  O  O218  1  0.98540007  0.62656203  0.75575423  1
  O  O219  1  0.36654577  0.25677143  0.00200420  1
  O  O220  1  0.36788572  0.23339786  0.49275673  1
  O  O221  1  0.36515662  0.76012093  -0.00228692  1
  O  O222  1  0.38317401  0.76199972  0.50675596  1
  O  O223  1  0.86009887  0.24611467  0.00358401  1
  O  O224  1  0.87349932  0.25622783  0.50184975  1
  O  O225  1  0.86555469  0.74441177  0.00894773  1
  O  O226  1  0.89109972  0.75631949  0.51031599  1
  O  O227  1  0.12054992  0.24260463  0.48769287  1
  O  O228  1  0.13064107  0.24516608  0.99463387  1
  O  O229  1  0.11636189  0.73567033  0.49776643  1
  O  O230  1  0.12964114  0.75172527  0.98723720  1
  O  O231  1  0.63256424  0.24015716  0.49338264  1
  O  O232  1  0.63553160  0.24767204  0.99285624  1
  O  O233  1  0.62190586  0.75790585  0.48225432  1
  O  O234  1  0.62841162  0.74170789  0.99640482  1
  O  O235  1  0.49602662  0.24879803  0.13085313  1
  O  O236  1  0.49880245  0.23566047  0.62210952  1
  O  O237  1  0.50331127  0.75851824  0.14121408  1
  O  O238  1  0.49286419  0.74387675  0.63178374  1
  O  O239  1  0.99374195  0.24330530  0.12988351  1
  O  O240  1  0.99885731  0.24265613  0.63347554  1
  O  O241  1  0.99320940  0.74711588  0.12927471  1
  O  O242  1  0.99696947  0.74687645  0.64000389  1
  O  O243  1  0.00791035  0.25553762  0.37086615  1
  O  O244  1  0.00423515  0.25691435  0.87014226  1
  O  O245  1  -0.00368165  0.75916290  0.36415957  1
  O  O246  1  0.00487871  0.75326645  0.87160178  1
  O  O247  1  0.50755951  0.26184870  0.36654077  1
  O  O248  1  0.51750231  0.24437063  0.87521344  1
  O  O249  1  0.50994777  0.75545317  0.36182073  1
  O  O250  1  0.50617651  0.75550821  0.86931147  1
  O  O251  1  0.24200711  0.11863196  0.50368840  1
  O  O252  1  0.24590443  0.13502889  0.99239546  1
  O  O253  1  0.23837647  0.62255304  0.48822628  1
  O  O254  1  0.24743591  0.63582502  0.98935584  1
  O  O255  1  0.75122668  0.12678319  0.49560859  1
  O  O256  1  0.74665140  0.13223378  0.99110345  1
  O  O257  1  0.77759586  0.64437343  0.50416504  1
  O  O258  1  0.74017742  0.63757890  0.99973636  1
  O  O259  1  0.25116337  0.36324563  -0.00557086  1
  O  O260  1  0.24180987  0.37330094  0.50818934  1
  O  O261  1  0.25869741  0.86832642  -0.01330719  1
  O  O262  1  0.26172409  0.87927019  0.49753695  1
  O  O263  1  0.75111097  0.36046849  -0.00244387  1
  O  O264  1  0.76094535  0.36309381  0.50876931  1
  O  O265  1  0.74251827  0.86132714  0.00676031  1
  O  O266  1  0.76697522  0.87555317  0.50777839  1
  O  O267  1  0.12007650  0.48243634  0.25816789  1
  O  O268  1  0.12185314  0.48792516  0.75211569  1
  O  O269  1  0.13453544  1.00215756  0.24179582  1
  O  O270  1  0.11831849  0.98206621  0.75610186  1
  O  O271  1  0.62057147  0.50281924  0.23090672  1
  O  O272  1  0.63756565  0.50601042  0.74601889  1
  O  O273  1  0.63104265  0.99465319  0.24661731  1
  O  O274  1  0.61940693  0.99671677  0.73757002  1
  O  O275  1  0.37191065  0.00842654  0.25529083  1
  O  O276  1  0.37366468  0.01277496  0.75364630  1
  O  O277  1  0.37145802  0.50133050  0.26330754  1
  O  O278  1  0.37557636  0.51484787  0.75426550  1
  O  O279  1  0.87060389  0.00525338  0.25407622  1
  O  O280  1  0.88476514  0.01149130  0.75458725  1
  O  O281  1  0.87266870  0.50187478  0.25163126  1
  O  O282  1  0.86644240  0.51260262  0.74816771  1
  O  O283  1  0.12265253  0.36637773  0.36904726  1
  O  O284  1  0.11712445  0.36777688  0.86220945  1
  O  O285  1  0.11398772  0.88063466  0.37215382  1
  O  O286  1  0.11223019  0.86647775  0.86723112  1
  O  O287  1  0.61556917  0.37430308  0.36934805  1
  O  O288  1  0.62306159  0.36089769  0.88120413  1
  O  O289  1  0.62479549  0.86997810  0.36636620  1
  O  O290  1  0.61254936  0.86715527  0.87477805  1
  O  O291  1  0.38095329  0.13427416  0.13003612  1
  O  O292  1  0.38400444  0.12647714  0.63139510  1
  O  O293  1  0.36914525  0.63656911  0.13026973  1
  O  O294  1  0.37989671  0.63207205  0.62857738  1
  O  O295  1  0.88004585  0.12235975  0.13786146  1
  O  O296  1  0.88753890  0.12478309  0.63262306  1
  O  O297  1  0.88575380  0.63639647  0.13178220  1
  O  O298  1  0.86358615  0.62956146  0.63228570  1
  O  O299  1  0.25399445  0.25185382  0.11384571  1
  O  O300  1  0.25377834  0.26844694  0.63060689  1
  O  O301  1  0.24505314  0.75440208  0.10872159  1
  O  O302  1  0.26270367  0.75727273  0.62886572  1
  O  O303  1  0.75258004  0.24743863  0.11089334  1
  O  O304  1  0.75375929  0.25311519  0.62344916  1
  O  O305  1  0.75669637  0.75377592  0.11894463  1
  O  O306  1  0.75170648  0.75417934  0.62584611  1
  O  O307  1  0.24517297  0.25054356  0.37203475  1
  O  O308  1  0.24506864  0.24074182  0.87946761  1
  O  O309  1  0.25274783  0.74168552  0.37334840  1
  O  O310  1  0.24057332  0.74163861  0.88032032  1
  O  O311  1  0.74554571  0.24273338  0.38113487  1
  O  O312  1  0.74077443  0.24156961  0.88287283  1
  O  O313  1  0.73411563  0.75468664  0.36991988  1
  O  O314  1  0.73673934  0.75138833  0.88175430  1
  O  O315  1  0.00370649  0.11763237  0.00326210  1
  O  O316  1  0.00498786  0.11680490  0.50754501  1
  O  O317  1  0.00424055  0.61910803  0.00713185  1
  O  O318  1  0.01279577  0.61293739  0.49695011  1
  O  O319  1  0.49922764  0.11855657  0.00688778  1
  O  O320  1  0.50981218  0.11289599  0.50750820  1
  O  O321  1  0.51230679  0.63363252  -0.00056022  1
  O  O322  1  0.49733178  0.63179448  0.51068498  1
  O  O323  1  0.50638993  0.37320607  0.48574370  1
  O  O324  1  0.48731351  0.36951883  0.99048313  1
  O  O325  1  0.49604845  0.88713557  0.50150397  1
  O  O326  1  0.49254648  0.88060589  0.99238875  1
  O  O327  1  0.99729027  0.38186156  0.50013511  1
  O  O328  1  0.99982341  0.37842754  0.98557841  1
  O  O329  1  0.99541660  0.88053129  0.49541038  1
  O  O330  1  1.00289099  0.88282634  0.99164441  1
  O  O331  1  0.49398961  0.49190860  0.37304752  1
  O  O332  1  0.48483582  0.50584982  0.87271946  1
  O  O333  1  0.49415108  1.00201909  0.38435758  1
  O  O334  1  0.49913425  0.99205598  0.88093943  1
  O  O335  1  0.98981945  0.49256814  0.38217537  1
  O  O336  1  0.99587356  0.48460682  0.87701370  1
  O  O337  1  0.99484338  0.99300509  0.38135509  1
  O  O338  1  0.99675680  0.98955955  0.88569846  1
  O  O339  1  0.00584520  0.00507693  0.11900649  1
  O  O340  1  -0.00000682  0.00753408  0.61641518  1
  O  O341  1  0.00336307  0.51158656  0.11418258  1
  O  O342  1  -0.00355339  0.49712904  0.61189926  1
  O  O343  1  0.50311211  0.00682367  0.12087875  1
  O  O344  1  0.50618375  0.00802037  0.61902866  1
  O  O345  1  0.50168760  0.49932371  0.12255556  1
  O  O346  1  0.50148342  0.51698822  0.62351845  1
  O  O347  1  0.23637863  0.37429554  0.24826163  1
  O  O348  1  0.23662566  0.37584770  0.75572104  1
  O  O349  1  0.25183841  0.89169135  0.25173344  1
  O  O350  1  0.23028442  0.87268906  0.75825919  1
  O  O351  1  0.75035344  0.37817256  0.25127776  1
  O  O352  1  0.75512278  0.38191864  0.74641105  1
  O  O353  1  0.74128745  0.87905182  0.24396528  1
  O  O354  1  0.75003749  0.87038566  0.73817691  1
  O  O355  1  0.26028928  0.11671805  0.24489870  1
  O  O356  1  0.25425478  0.12579370  0.75597480  1
  O  O357  1  0.24896802  0.62598907  0.26418700  1
  O  O358  1  0.25950171  0.63470588  0.75855014  1
  O  O359  1  0.75744638  0.12159995  0.25473250  1
  O  O360  1  0.76169859  0.12739545  0.76124127  1
  O  O361  1  0.76538562  0.63078010  0.24510508  1
  O  O362  1  0.75658042  0.61223369  0.75609172  1
  O  O363  1  0.37038081  0.12670953  0.37430408  1
  O  O364  1  0.36551481  0.12453168  0.86912284  1
  O  O365  1  0.36326893  0.61901110  0.37205005  1
  O  O366  1  0.36760979  0.62232107  0.86733657  1
  O  O367  1  0.87341220  0.11926002  0.36509244  1
  O  O368  1  0.86657325  0.12084307  0.86923301  1
  O  O369  1  0.88420088  0.61481649  0.36315367  1
  O  O370  1  0.86793119  0.62580182  0.86543435  1
  O  O371  1  0.12207671  0.36473376  0.14236778  1
  O  O372  1  0.13427992  0.37140334  0.63991542  1
  O  O373  1  0.11924582  0.88906984  0.12785800  1
  O  O374  1  0.12063699  0.86475088  0.64274179  1
  O  O375  1  0.62055912  0.39389479  0.12267239  1
  O  O376  1  0.63681942  0.37615153  0.61876782  1
  O  O377  1  0.63160884  0.88218097  0.13180392  1
  O  O378  1  0.63441992  0.88125359  0.62550745  1
  O  O379  1  0.12190294  0.25227246  0.26170103  1
  O  O380  1  0.11275410  0.25142223  0.75523906  1
  O  O381  1  0.11336559  0.75276169  0.24320718  1
  O  O382  1  0.11525983  0.75323354  0.76026978  1
  O  O383  1  0.61817276  0.25494119  0.25405217  1
  O  O384  1  0.62598846  0.24663967  0.76534186  1
  O  O385  1  0.61787893  0.75769122  0.25264625  1
  O  O386  1  0.61686384  0.74983556  0.76068089  1
  O  O387  1  0.38067727  0.24989355  0.24452319  1
  O  O388  1  0.37897313  0.23600264  0.75017995  1
  O  O389  1  0.39243073  0.75987477  0.24927210  1
  O  O390  1  0.38124630  0.74534293  0.74220714  1
  O  O391  1  0.88118803  0.24156059  0.24833617  1
  O  O392  1  0.88750265  0.23738833  0.75132720  1
  O  O393  1  0.88480706  0.74425145  0.24377682  1
  O  O394  1  0.87984861  0.73188914  0.75157254  1
  O  O395  1  0.37314333  0.50714709  0.48390346  1
  O  O396  1  0.36839340  0.49079623  0.98980447  1
  O  O397  1  0.38455890  0.99622589  0.49606953  1
  O  O398  1  0.37932990  0.99451819  0.99632075  1
  O  O399  1  0.88386684  0.49235861  0.49502840  1
  O  O400  1  0.89128911  0.50798263  0.99934257  1
  O  O401  1  0.88697071  0.99239178  0.49514005  1
  O  O402  1  0.88547079  1.00224210  1.00110518  1
  O  O403  1  0.11829472  0.00530135  0.00641711  1
  O  O404  1  0.11368926  0.00704217  0.49452232  1
  O  O405  1  0.10708643  0.49841385  -0.01150067  1
  O  O406  1  0.11201606  0.50519806  0.49730191  1
  O  O407  1  0.61485119  0.00153197  0.00790041  1
  O  O408  1  0.62046418  0.00188104  0.50677522  1
  O  O409  1  0.62559984  0.51334422  0.01009037  1
  O  O410  1  0.67320335  0.51498019  0.50987752  1
  O  O411  1  0.36979062  0.36991302  0.11417766  1
  O  O412  1  0.36407617  0.37078755  0.61938801  1
  O  O413  1  0.37792122  0.87352067  0.11057163  1
  O  O414  1  0.37760079  0.86732490  0.61587650  1
  O  O415  1  0.87224160  0.38447293  0.14183235  1
  O  O416  1  0.86960497  0.37231322  0.61663741  1
  O  O417  1  0.86994608  0.86230957  0.13097312  1
  O  O418  1  0.86931273  0.88004403  0.61813142  1
  O  O419  1  0.12179346  0.13235005  0.38859029  1
  O  O420  1  0.12943782  0.13109750  0.88027759  1
  O  O421  1  0.13865032  0.62220729  0.38155057  1
  O  O422  1  0.13078753  0.63156453  0.87372733  1
  O  O423  1  0.63136783  0.12930917  0.38018087  1
  O  O424  1  0.63323930  0.13153310  0.87654635  1
  O  O425  1  0.62343519  0.64000334  0.36861953  1
  O  O426  1  0.62534409  0.63077456  0.88663170  1
