# generated using pymatgen
data_V85Zn86O256
_symmetry_space_group_name_H-M   'P 1'
_cell_length_a   16.94214307
_cell_length_b   16.95409163
_cell_length_c   16.95227634
_cell_angle_alpha   89.97505933
_cell_angle_beta   90.02743698
_cell_angle_gamma   89.97760832
_symmetry_Int_Tables_number   1
_chemical_formula_structural   V85Zn86O256
_chemical_formula_sum   'V85 Zn86 O256'
_cell_volume   4869.34751169
_cell_formula_units_Z   1
loop_
 _symmetry_equiv_pos_site_id
 _symmetry_equiv_pos_as_xyz
  1  'x, y, z'
loop_
 _atom_site_type_symbol
 _atom_site_label
 _atom_site_symmetry_multiplicity
 _atom_site_fract_x
 _atom_site_fract_y
 _atom_site_fract_z
 _atom_site_occupancy
  V  V0  1  0.12735239  0.12729139  -0.00106578  1
  V  V1  1  0.75882046  0.37781284  0.61199575  1
  V  V2  1  0.24112631  0.75244931  0.49746823  1
  V  V3  1  0.50392132  0.25911430  0.75039305  1
  V  V4  1  0.37469806  0.12701514  0.75345175  1
  V  V5  1  0.37909583  0.37799587  -0.00044241  1
  V  V6  1  0.62864509  0.63193044  0.50463744  1
  V  V7  1  0.36421661  0.62456217  0.75086521  1
  V  V8  1  0.25068657  0.25359680  0.50210787  1
  V  V9  1  0.50245856  0.25440298  0.24795409  1
  V  V10  1  0.62110157  -0.00375148  0.12863394  1
  V  V11  1  0.12438763  0.61208691  0.00233430  1
  V  V12  1  0.19380956  0.43795428  0.68429325  1
  V  V13  1  0.62211192  0.75255677  0.87608834  1
  V  V14  1  0.50521298  0.38295495  0.87299241  1
  V  V15  1  0.87067113  0.61951279  0.24930727  1
  V  V16  1  0.11921259  0.00027983  0.62702292  1
  V  V17  1  0.50059784  0.37727939  0.37471194  1
  V  V18  1  0.87480241  -0.00635858  0.37362835  1
  V  V19  1  0.75032075  0.74601377  0.00168914  1
  V  V20  1  0.74971302  0.49649448  0.75084076  1
  V  V21  1  0.62423834  0.13058081  0.00090390  1
  V  V22  1  0.12638995  0.25094484  0.37207600  1
  V  V23  1  0.02283234  0.36497360  0.86929702  1
  V  V24  1  0.37618832  0.87448486  0.49957340  1
  V  V25  1  -0.00100769  -0.00320790  0.50008357  1
  V  V26  1  0.88024330  0.12327333  0.24901546  1
  V  V27  1  0.24378084  0.63077962  0.37258031  1
  V  V28  1  0.50004049  0.75130480  0.75263659  1
  V  V29  1  0.25098326  0.12265328  0.37423500  1
  V  V30  1  0.00702093  0.74610977  0.25543201  1
  V  V31  1  0.75054812  0.12393165  0.37972301  1
  V  V32  1  0.37451519  0.50187510  0.37340891  1
  V  V33  1  0.38138417  0.62462484  0.24487222  1
  V  V34  1  0.24540184  0.37905455  0.12338174  1
  V  V35  1  0.62921364  0.00080912  0.63544580  1
  V  V36  1  0.12540076  0.73843825  0.87327527  1
  V  V37  1  0.49985341  0.51065844  0.50141358  1
  V  V38  1  -0.01141811  0.74663116  0.74869254  1
  V  V39  1  0.37572064  0.25214516  0.12334636  1
  V  V40  1  0.12916575  0.86991350  0.25546959  1
  V  V41  1  0.24812539  0.74591703  -0.00412887  1
  V  V42  1  0.37917644  0.74783894  0.12309598  1
  V  V43  1  0.38086054  0.74543343  0.62336857  1
  V  V44  1  0.74832442  -0.00256073  0.24664967  1
  V  V45  1  0.76082041  0.62396588  0.87014359  1
  V  V46  1  0.74752098  0.86827115  0.63472916  1
  V  V47  1  0.61780467  0.49925495  0.63401566  1
  V  V48  1  0.24298098  0.50218775  0.24519830  1
  V  V49  1  0.00398720  0.60703458  0.12276290  1
  V  V50  1  0.00678325  0.24641864  0.73173950  1
  V  V51  1  0.50808885  0.75177371  0.24746964  1
  V  V52  1  0.88117727  0.48321486  0.87295110  1
  V  V53  1  -0.00039244  0.87487448  0.87627573  1
  V  V54  1  0.36685535  0.50659367  0.87384162  1
  V  V55  1  0.75029398  0.63287466  0.37821966  1
  V  V56  1  0.12339337  0.12410383  0.50421012  1
  V  V57  1  0.00205272  0.37960592  0.38319305  1
  V  V58  1  0.63240333  0.25602050  0.87501829  1
  V  V59  1  0.50092638  0.12693291  0.62551050  1
  V  V60  1  0.61803011  0.62290962  0.00252897  1
  V  V61  1  0.50031134  -0.00374953  -0.00833766  1
  V  V62  1  -0.00006166  -0.00406848  0.00427713  1
  V  V63  1  0.12490597  0.61788144  0.50578406  1
  V  V64  1  0.37486532  0.12547070  0.24847635  1
  V  V65  1  0.24889968  -0.00022430  0.75100801  1
  V  V66  1  0.37226711  0.37882568  0.50502948  1
  V  V67  1  0.64668411  0.37439219  0.25210049  1
  V  V68  1  -0.00401097  0.61597163  0.63145583  1
  V  V69  1  0.86662755  0.86506651  0.50063715  1
  V  V70  1  0.37771039  0.87318628  -0.00725692  1
  V  V71  1  0.25093984  0.25018695  -0.01001820  1
  V  V72  1  -0.05841871  0.17949620  0.07243988  1
  V  V73  1  0.50870036  0.87632819  0.37008453  1
  V  V74  1  0.74530925  0.87082734  0.13076932  1
  V  V75  1  0.12423590  0.00108661  0.12822905  1
  V  V76  1  0.62709944  0.50320506  0.13472307  1
  V  V77  1  0.62392677  0.24828205  0.38379440  1
  V  V78  1  0.50207169  0.00163080  0.50160240  1
  V  V79  1  0.86883985  0.49944791  0.38494267  1
  V  V80  1  0.87948943  0.74737212  0.12479628  1
  V  V81  1  0.12322238  0.87335950  0.75003300  1
  V  V82  1  -0.00347669  0.24778073  0.25071226  1
  V  V83  1  0.37311427  0.25462123  0.62607938  1
  V  V84  1  0.86548039  0.12748156  0.73305561  1
  Zn  Zn85  1  0.81104358  0.22119908  0.54772917  1
  Zn  Zn86  1  0.87015763  -0.00246493  0.85959490  1
  Zn  Zn87  1  0.00259748  0.49382678  0.50898571  1
  Zn  Zn88  1  0.25085209  0.87418872  0.12536867  1
  Zn  Zn89  1  0.12340795  0.37934607  0.24612162  1
  Zn  Zn90  1  0.49920603  0.50491986  0.00546058  1
  Zn  Zn91  1  0.63102120  0.12821250  0.50543725  1
  Zn  Zn92  1  0.86758884  0.74223005  0.62421667  1
  Zn  Zn93  1  0.76330092  0.25261699  0.01467583  1
  Zn  Zn94  1  -0.07114881  0.42702275  0.03529076  1
  Zn  Zn95  1  0.62947886  0.75416682  0.37680617  1
  Zn  Zn96  1  0.76508500  0.37508752  0.11851466  1
  Zn  Zn97  1  0.25240823  -0.00222354  0.24778316  1
  Zn  Zn98  1  0.24980257  0.87368877  0.62480267  1
  Zn  Zn99  1  0.00405918  0.86666771  0.37841751  1
  Zn  Zn100  1  0.61968562  0.88066756  0.75951721  1
  Zn  Zn101  1  0.49936541  0.12506938  0.12357808  1
  Zn  Zn102  1  0.37668304  -0.00428590  0.87184104  1
  Zn  Zn103  1  0.24139309  0.12775935  0.87079907  1
  Zn  Zn104  1  0.74473962  0.11388918  0.86621716  1
  Zn  Zn105  1  0.87522067  0.87278659  -0.00043001  1
  Zn  Zn106  1  0.37764161  0.00016604  0.37309959  1
  Zn  Zn107  1  0.18739861  0.18791145  0.18220724  1
  Zn  Zn108  1  0.18925850  0.19005701  0.68489339  1
  Zn  Zn109  1  0.18897789  0.68654602  0.18185839  1
  Zn  Zn110  1  0.18533728  0.68675277  0.68425573  1
  Zn  Zn111  1  0.69156159  0.18658594  0.18754717  1
  Zn  Zn112  1  0.68601408  0.19356052  0.68787759  1
  Zn  Zn113  1  0.68917279  0.68235597  0.18942257  1
  Zn  Zn114  1  0.68470666  0.68411167  0.68985408  1
  Zn  Zn115  1  0.31311069  0.31449858  0.31250536  1
  Zn  Zn116  1  0.31476708  0.31959635  0.81203420  1
  Zn  Zn117  1  0.31662449  0.81242456  0.31322935  1
  Zn  Zn118  1  0.30943417  0.81032669  0.81247767  1
  Zn  Zn119  1  0.82824286  0.29716249  0.35691684  1
  Zn  Zn120  1  0.80915950  0.31495040  0.79756447  1
  Zn  Zn121  1  0.81472965  0.80880272  0.30987824  1
  Zn  Zn122  1  0.81025636  0.81363279  0.81382764  1
  Zn  Zn123  1  0.18932017  0.43891057  0.43752505  1
  Zn  Zn124  1  0.19042237  0.43576646  0.93256733  1
  Zn  Zn125  1  0.18829146  0.93784596  0.43439726  1
  Zn  Zn126  1  0.18688563  0.93424941  0.93685495  1
  Zn  Zn127  1  0.68540538  0.44409654  0.43727220  1
  Zn  Zn128  1  0.69072580  0.43710436  0.94229345  1
  Zn  Zn129  1  0.68750843  0.93812553  0.44373161  1
  Zn  Zn130  1  0.68613620  0.93255546  0.94340819  1
  Zn  Zn131  1  0.31134605  0.06122039  0.06264445  1
  Zn  Zn132  1  0.31227544  0.06289692  0.56565154  1
  Zn  Zn133  1  0.31196253  0.56455493  0.06060315  1
  Zn  Zn134  1  0.31275463  0.56714837  0.56449086  1
  Zn  Zn135  1  0.79296306  0.04323734  0.02924037  1
  Zn  Zn136  1  0.81231045  0.05051068  0.56575302  1
  Zn  Zn137  1  0.80615913  0.55917523  0.06097388  1
  Zn  Zn138  1  0.81061189  0.56258204  0.56377761  1
  Zn  Zn139  1  0.44047790  0.44029903  0.18490377  1
  Zn  Zn140  1  0.43277345  0.44305837  0.68769033  1
  Zn  Zn141  1  0.43724637  0.93547607  0.18302417  1
  Zn  Zn142  1  0.43838403  0.93488213  0.68702516  1
  Zn  Zn143  1  0.93217927  0.43270561  0.20616923  1
  Zn  Zn144  1  0.93657229  0.43477460  0.69440714  1
  Zn  Zn145  1  0.93980870  0.93299307  0.18685432  1
  Zn  Zn146  1  0.93557162  0.93738107  0.68569499  1
  Zn  Zn147  1  0.06206870  0.05828324  0.31386121  1
  Zn  Zn148  1  0.05394300  0.06906558  0.81274140  1
  Zn  Zn149  1  0.06239805  0.56491693  0.31519712  1
  Zn  Zn150  1  0.06573179  0.55527857  0.80789594  1
  Zn  Zn151  1  0.56272370  0.06391780  0.31155907  1
  Zn  Zn152  1  0.56047147  0.06816064  0.81412908  1
  Zn  Zn153  1  0.56513296  0.56428964  0.31266799  1
  Zn  Zn154  1  0.55779708  0.57174450  0.81265668  1
  Zn  Zn155  1  0.43836011  0.18840844  0.43772746  1
  Zn  Zn156  1  0.44046018  0.18889599  0.93502302  1
  Zn  Zn157  1  0.43593662  0.69002984  0.43250267  1
  Zn  Zn158  1  0.43861044  0.68805021  0.93305955  1
  Zn  Zn159  1  0.94363634  0.18150145  0.43729411  1
  Zn  Zn160  1  0.91886702  0.20420366  0.89262566  1
  Zn  Zn161  1  0.94024966  0.68392432  0.44033788  1
  Zn  Zn162  1  0.94045191  0.68223908  0.93939468  1
  Zn  Zn163  1  0.06907650  0.31585576  0.05663068  1
  Zn  Zn164  1  0.06651635  0.31406380  0.56735054  1
  Zn  Zn165  1  0.06530427  0.80909035  0.06677828  1
  Zn  Zn166  1  0.06028883  0.81055767  0.56563701  1
  Zn  Zn167  1  0.57071627  0.31926399  0.06391543  1
  Zn  Zn168  1  0.56238643  0.32121432  0.56445841  1
  Zn  Zn169  1  0.56130057  0.81269811  0.06175647  1
  Zn  Zn170  1  0.56253089  0.81377165  0.56517619  1
  O  O171  1  0.13066874  0.11334791  0.11406204  1
  O  O172  1  0.13108778  0.11651996  0.61008697  1
  O  O173  1  0.11588513  0.62619868  0.11598420  1
  O  O174  1  0.11235173  0.63041836  0.61634544  1
  O  O175  1  0.62119261  0.11720922  0.11821428  1
  O  O176  1  0.61964312  0.11866080  0.62451140  1
  O  O177  1  0.62943425  0.61331963  0.11954029  1
  O  O178  1  0.62977647  0.61183831  0.61642069  1
  O  O179  1  0.38111514  0.38110130  0.38231539  1
  O  O180  1  0.38545492  0.38375330  0.88065736  1
  O  O181  1  0.38472582  0.87759194  0.38607856  1
  O  O182  1  0.36981666  0.87498835  0.88813651  1
  O  O183  1  0.88588847  0.39485971  0.36651878  1
  O  O184  1  0.87331698  0.38216824  0.87433377  1
  O  O185  1  0.87342548  0.87793289  0.38289175  1
  O  O186  1  0.88611925  0.87704443  0.87690785  1
  O  O187  1  0.25450167  0.01254931  0.37297363  1
  O  O188  1  0.24966061  0.00072247  0.86149411  1
  O  O189  1  0.25742352  0.50799542  0.36671833  1
  O  O190  1  0.26772506  0.49681848  0.87628200  1
  O  O191  1  0.75127785  0.00673910  0.36960441  1
  O  O192  1  0.76466879  0.00581281  0.91278783  1
  O  O193  1  0.76371030  0.50963450  0.37913685  1
  O  O194  1  0.75399813  0.50478395  0.86810575  1
  O  O195  1  0.25875273  0.49156440  0.13373173  1
  O  O196  1  0.25582995  0.49521858  0.62675592  1
  O  O197  1  0.23920188  0.99582426  0.12574886  1
  O  O198  1  0.23995862  0.99940245  0.63493849  1
  O  O199  1  0.73393796  0.49488219  0.12353923  1
  O  O200  1  0.74130761  0.49733896  0.63160632  1
  O  O201  1  0.74189893  0.98956550  0.12368606  1
  O  O202  1  0.73713975  0.98686704  0.62240019  1
  O  O203  1  0.00628339  0.36465353  0.26299989  1
  O  O204  1  -0.00624082  0.35899317  0.75901397  1
  O  O205  1  0.00834309  0.86304508  0.25135710  1
  O  O206  1  0.00370734  0.86779416  0.75567713  1
  O  O207  1  0.49946861  0.36510295  0.25666206  1
  O  O208  1  0.49167557  0.36857075  0.75796116  1
  O  O209  1  0.49197154  0.86656517  0.25936980  1
  O  O210  1  0.50026806  0.85992611  0.74629309  1
  O  O211  1  0.49293126  0.13759940  0.25021207  1
  O  O212  1  0.49206744  0.13418755  0.74476435  1
  O  O213  1  0.48772361  0.63366175  0.25829473  1
  O  O214  1  0.48822400  0.64264172  0.75143511  1
  O  O215  1  0.98869566  0.12759159  0.25427579  1
  O  O216  1  0.98785202  0.13789310  0.74901587  1
  O  O217  1  0.99671122  0.62923141  0.24217276  1
  O  O218  1  1.00588411  0.63127418  0.73823573  1
  O  O219  1  0.37100355  0.25531457  0.00464422  1
  O  O220  1  0.37360302  0.25971484  0.50431122  1
  O  O221  1  0.37052816  0.75292464  0.00390677  1
  O  O222  1  0.37065008  0.75620291  0.50544414  1
  O  O223  1  0.88558548  0.23023197  0.00317136  1
  O  O224  1  0.86829197  0.25743246  0.46139998  1
  O  O225  1  0.87116407  0.74637423  0.01172918  1
  O  O226  1  0.88223739  0.76259239  0.50275788  1
  O  O227  1  0.12825951  0.24083645  0.49216430  1
  O  O228  1  0.13896052  0.23919614  1.00748663  1
  O  O229  1  0.13702032  0.74519661  0.50354067  1
  O  O230  1  0.13170632  0.74487307  0.99317459  1
  O  O231  1  0.61595861  0.25062606  0.48745344  1
  O  O232  1  0.61327268  0.24240807  0.98884799  1
  O  O233  1  0.61370618  0.73505832  0.49872123  1
  O  O234  1  0.63050363  0.74350865  0.99669317  1
  O  O235  1  0.49562625  0.25175238  0.13338694  1
  O  O236  1  0.49595452  0.24897604  0.63161184  1
  O  O237  1  0.48815315  0.75523608  0.13188685  1
  O  O238  1  0.48636087  0.75408207  0.62906501  1
  O  O239  1  0.99941285  0.24667165  0.12825855  1
  O  O240  1  0.99498988  0.25396041  0.63202218  1
  O  O241  1  0.99228816  0.74275808  0.13331226  1
  O  O242  1  0.99681841  0.74260084  0.63486523  1
  O  O243  1  0.01357864  0.25267877  0.36843455  1
  O  O244  1  0.01036018  0.26146957  0.86795320  1
  O  O245  1  -0.00392307  0.74668217  0.35977102  1
  O  O246  1  0.00421720  0.75525965  0.86923839  1
  O  O247  1  0.50578932  0.25481668  0.36793631  1
  O  O248  1  0.50453861  0.25966415  0.86657208  1
  O  O249  1  0.50061325  0.75946916  0.36560455  1
  O  O250  1  0.51093664  0.74953460  0.86838393  1
  O  O251  1  0.24585624  0.12942246  0.49125651  1
  O  O252  1  0.24556131  0.13230902  0.99630789  1
  O  O253  1  0.24503676  0.63276439  0.49343694  1
  O  O254  1  0.24206426  0.63846368  1.00496474  1
  O  O255  1  0.75094607  0.12359623  0.49249308  1
  O  O256  1  0.73312807  0.13763338  1.00065977  1
  O  O257  1  0.74053093  0.62270419  0.49291943  1
  O  O258  1  0.74042255  0.62970927  0.99274329  1
  O  O259  1  0.25692489  0.36910204  0.00535680  1
  O  O260  1  0.26261372  0.36748195  0.48942167  1
  O  O261  1  0.25444695  0.86250419  0.00141308  1
  O  O262  1  0.25768137  0.86925110  0.49785710  1
  O  O263  1  0.74552323  0.36368201  0.00258704  1
  O  O264  1  0.74919822  0.38569289  0.51178579  1
  O  O265  1  0.75380788  0.86300852  0.01448227  1
  O  O266  1  0.75740882  0.87710593  0.51197940  1
  O  O267  1  0.13975059  0.50128840  0.25411550  1
  O  O268  1  0.13857004  0.49908090  0.74549620  1
  O  O269  1  0.12722262  0.99348178  0.24364385  1
  O  O270  1  0.12739388  0.99878901  0.74323261  1
  O  O271  1  0.62338758  0.49151596  0.24388166  1
  O  O272  1  0.62495354  0.50790661  0.73769152  1
  O  O273  1  0.63034738  1.00635843  0.23625552  1
  O  O274  1  0.61493752  0.99871118  0.74012773  1
  O  O275  1  0.37658417  0.01390935  0.24929180  1
  O  O276  1  0.36685734  0.00669167  0.74815276  1
  O  O277  1  0.37065816  0.50828883  0.25337882  1
  O  O278  1  0.38091536  0.51794516  0.75603224  1
  O  O279  1  0.87094646  0.00385219  0.25248042  1
  O  O280  1  0.88128897  0.02026350  0.74102038  1
  O  O281  1  0.88247680  0.51565322  0.26661419  1
  O  O282  1  0.86460414  0.49972132  0.76397275  1
  O  O283  1  0.12330261  0.36584728  0.37097765  1
  O  O284  1  0.12088561  0.37604856  0.86557126  1
  O  O285  1  0.12370192  0.87853158  0.36065884  1
  O  O286  1  0.11410239  0.86662914  0.87030443  1
  O  O287  1  0.62058430  0.36971753  0.36989006  1
  O  O288  1  0.61181825  0.37172246  0.87825662  1
  O  O289  1  0.61303913  0.87387635  0.38152989  1
  O  O290  1  0.63359726  0.85873651  0.87588895  1
  O  O291  1  0.37619908  0.13237725  0.13242131  1
  O  O292  1  0.38072298  0.13076143  0.63513530  1
  O  O293  1  0.37318553  0.63279539  0.13446365  1
  O  O294  1  0.37458085  0.63375751  0.63655403  1
  O  O295  1  0.87814624  0.12435492  0.12949015  1
  O  O296  1  0.85987231  0.13615607  0.62746602  1
  O  O297  1  0.87908609  0.62695622  0.13183911  1
  O  O298  1  0.89053720  0.62717001  0.61929077  1
  O  O299  1  0.25899332  0.25814813  0.11846123  1
  O  O300  1  0.26218565  0.24284590  0.61426163  1
  O  O301  1  0.26294794  0.75143978  0.11764406  1
  O  O302  1  0.26050185  0.75203331  0.61456592  1
  O  O303  1  0.74298836  0.26164140  0.12762916  1
  O  O304  1  0.74090087  0.27105697  0.62296656  1
  O  O305  1  0.75747846  0.75263125  0.12449504  1
  O  O306  1  0.74884278  0.76243442  0.62983417  1
  O  O307  1  0.24233852  0.24182749  0.37711671  1
  O  O308  1  0.25731095  0.25013151  0.88672223  1
  O  O309  1  0.25911819  0.74167737  0.38511858  1
  O  O310  1  0.23656829  0.75312824  0.88239038  1
  O  O311  1  0.73583307  0.23116404  0.36467586  1
  O  O312  1  0.73539503  0.25385064  0.86864722  1
  O  O313  1  0.74819842  0.73876162  0.37219707  1
  O  O314  1  0.74675269  0.74183078  0.88026548  1
  O  O315  1  0.00481069  0.11915912  0.01296241  1
  O  O316  1  0.01024420  0.10836959  0.49320036  1
  O  O317  1  0.01087793  0.62767738  0.01123946  1
  O  O318  1  0.00974432  0.62507929  0.51125620  1
  O  O319  1  0.50741048  0.11808881  0.00109602  1
  O  O320  1  0.49944131  0.11731621  0.50707276  1
  O  O321  1  0.51425277  0.62764736  -0.00274353  1
  O  O322  1  0.50251205  0.61461214  0.49265835  1
  O  O323  1  0.49371348  0.38788494  0.49333058  1
  O  O324  1  0.49382854  0.37742786  0.99243958  1
  O  O325  1  0.49414262  0.88240392  0.49512085  1
  O  O326  1  0.49091372  0.88364694  1.00326349  1
  O  O327  1  1.00865624  0.37556797  0.48679449  1
  O  O328  1  1.01023762  0.37406163  0.97841608  1
  O  O329  1  0.99534067  0.88235373  0.49892998  1
  O  O330  1  1.00290838  0.87851704  0.99274741  1
  O  O331  1  0.49444935  0.49687068  0.38079453  1
  O  O332  1  0.49478856  0.49582276  0.87640097  1
  O  O333  1  0.49950682  0.99532560  0.38234903  1
  O  O334  1  0.49876310  1.00229267  0.88736601  1
  O  O335  1  0.99538993  0.49457033  0.37885354  1
  O  O336  1  0.98790286  0.48488637  0.86201556  1
  O  O337  1  0.99269171  0.99292161  0.38219142  1
  O  O338  1  0.99869617  0.99061854  0.88425001  1
  O  O339  1  0.01549822  -0.00855453  0.12047894  1
  O  O340  1  0.01192482  -0.00464649  0.61704400  1
  O  O341  1  -0.00515055  0.50669004  0.12697905  1
  O  O342  1  -0.00382503  0.51173638  0.62798373  1
  O  O343  1  0.50653641  0.00118932  0.11654063  1
  O  O344  1  0.50533541  0.00474597  0.61868123  1
  O  O345  1  0.51832180  0.49636709  0.12307429  1
  O  O346  1  0.50986972  0.49856103  0.61738885  1
  O  O347  1  0.25182290  0.38438223  0.24238300  1
  O  O348  1  0.25297827  0.37295838  0.73787278  1
  O  O349  1  0.24546494  0.87649940  0.24951078  1
  O  O350  1  0.24254531  0.88270961  0.74783732  1
  O  O351  1  0.74413721  0.36966574  0.26265360  1
  O  O352  1  0.74513288  0.39016781  0.73911517  1
  O  O353  1  0.75468394  0.87956648  0.23848637  1
  O  O354  1  0.74666622  0.87654276  0.73895295  1
  O  O355  1  0.25793456  0.12634157  0.25674113  1
  O  O356  1  0.25655102  0.11947256  0.75129637  1
  O  O357  1  0.25741308  0.62127344  0.25461235  1
  O  O358  1  0.26511309  0.63659598  0.75018252  1
  O  O359  1  0.76146167  0.11635526  0.25448598  1
  O  O360  1  0.75972017  0.12916059  0.74754156  1
  O  O361  1  0.76113448  0.62671679  0.25995116  1
  O  O362  1  0.74364974  0.61253962  0.75957716  1
  O  O363  1  0.36751650  0.12664093  0.36746453  1
  O  O364  1  0.37482111  0.12292362  0.86169243  1
  O  O365  1  0.36488233  0.62106393  0.36709722  1
  O  O366  1  0.37695755  0.62081611  0.86315239  1
  O  O367  1  0.86806066  0.11265026  0.36670314  1
  O  O368  1  0.86424380  0.11575278  0.85818226  1
  O  O369  1  0.86994639  0.61944984  0.37179890  1
  O  O370  1  0.86348899  0.62292341  0.87596330  1
  O  O371  1  0.14078945  0.37199788  0.12757060  1
  O  O372  1  0.13384158  0.38478390  0.62022681  1
  O  O373  1  0.12871558  0.87969230  0.13665012  1
  O  O374  1  0.12743715  0.88248214  0.63139874  1
  O  O375  1  0.62630660  0.38459792  0.14013166  1
  O  O376  1  0.63146561  0.39519168  0.61974330  1
  O  O377  1  0.63313331  0.88247681  0.12194258  1
  O  O378  1  0.63408549  0.88046575  0.62737480  1
  O  O379  1  0.11567535  0.24563525  0.25576407  1
  O  O380  1  0.10750059  0.24075162  0.74151668  1
  O  O381  1  0.11871842  0.75605858  0.24358342  1
  O  O382  1  0.11797707  0.75380557  0.75737527  1
  O  O383  1  0.61655602  0.25642077  0.25927371  1
  O  O384  1  0.61071011  0.24758195  0.75822516  1
  O  O385  1  0.61098177  0.74329790  0.25055394  1
  O  O386  1  0.61698707  0.74919572  0.75883747  1
  O  O387  1  0.38088769  0.24268671  0.24638531  1
  O  O388  1  0.38261980  0.24429563  0.74589508  1
  O  O389  1  0.38151745  0.74350738  0.24163121  1
  O  O390  1  0.37802659  0.74591683  0.74354339  1
  O  O391  1  0.88998221  0.24004684  0.26304002  1
  O  O392  1  0.88372621  0.23703540  0.75839362  1
  O  O393  1  0.88268121  0.73912536  0.24169757  1
  O  O394  1  0.88607133  0.75251676  0.74941417  1
  O  O395  1  0.38017939  0.49690135  0.49519893  1
  O  O396  1  0.37935849  0.49826278  0.99311533  1
  O  O397  1  0.38493679  0.99380088  0.50114424  1
  O  O398  1  0.38154531  0.99212515  0.99905402  1
  O  O399  1  0.88220063  0.50770842  0.48729193  1
  O  O400  1  0.87325874  0.50837050  0.97807761  1
  O  O401  1  0.88326334  0.98952313  0.49603341  1
  O  O402  1  0.89517179  0.99358355  1.01330174  1
  O  O403  1  0.11739626  0.00200885  0.00694941  1
  O  O404  1  0.12029011  0.00310700  0.50538230  1
  O  O405  1  0.13444413  0.51333955  -0.00550279  1
  O  O406  1  0.12504842  0.51454902  0.49464719  1
  O  O407  1  0.61700225  0.00608455  0.00894651  1
  O  O408  1  0.61304169  0.00184404  0.50999327  1
  O  O409  1  0.62272087  0.50854950  0.00898670  1
  O  O410  1  0.61586885  0.51010500  0.50576516  1
  O  O411  1  0.36885923  0.37145601  0.11892582  1
  O  O412  1  0.38314918  0.37137798  0.61136943  1
  O  O413  1  0.37199935  0.86693895  0.11314244  1
  O  O414  1  0.37238501  0.87034183  0.61219617  1
  O  O415  1  0.87979568  0.38403885  0.12361092  1
  O  O416  1  0.85845419  0.38465401  0.62450074  1
  O  O417  1  0.86962532  0.86158331  0.12543390  1
  O  O418  1  0.86154252  0.87392108  0.62035198  1
  O  O419  1  0.13231642  0.12916337  0.38179945  1
  O  O420  1  0.12310482  0.11653727  0.89349349  1
  O  O421  1  0.13821410  0.62578915  0.38083358  1
  O  O422  1  0.11359064  0.63420904  0.88234110  1
  O  O423  1  0.63084442  0.13057040  0.37895036  1
  O  O424  1  0.62657021  0.13454955  0.88169881  1
  O  O425  1  0.63510071  0.62453037  0.38299840  1
  O  O426  1  0.63307841  0.63360425  0.88309304  1
