# generated using pymatgen
data_V85Zn86O256
_symmetry_space_group_name_H-M   'P 1'
_cell_length_a   16.94280332
_cell_length_b   16.93556353
_cell_length_c   16.93959728
_cell_angle_alpha   90.04856847
_cell_angle_beta   90.02515473
_cell_angle_gamma   90.00319604
_symmetry_Int_Tables_number   1
_chemical_formula_structural   V85Zn86O256
_chemical_formula_sum   'V85 Zn86 O256'
_cell_volume   4860.57674101
_cell_formula_units_Z   1
loop_
 _symmetry_equiv_pos_site_id
 _symmetry_equiv_pos_as_xyz
  1  'x, y, z'
loop_
 _atom_site_type_symbol
 _atom_site_label
 _atom_site_symmetry_multiplicity
 _atom_site_fract_x
 _atom_site_fract_y
 _atom_site_fract_z
 _atom_site_occupancy
  V  V0  1  0.86558575  0.74828261  0.11750715  1
  V  V1  1  0.87363755  0.50505261  0.88097217  1
  V  V2  1  0.13093897  0.87291627  0.24064576  1
  V  V3  1  0.13039382  0.62142595  -0.01298095  1
  V  V4  1  0.74599489  -0.00012974  0.24563362  1
  V  V5  1  0.00196316  0.50487413  0.01603803  1
  V  V6  1  0.49801237  0.61688873  0.62460542  1
  V  V7  1  0.12426136  0.12436182  0.49928390  1
  V  V8  1  0.25067724  0.24891890  0.49728342  1
  V  V9  1  0.74965730  0.24714848  0.00218464  1
  V  V10  1  0.36831849  0.87519356  0.00778398  1
  V  V11  1  0.38026534  0.24023028  0.62539871  1
  V  V12  1  0.00304399  0.38701505  0.38351957  1
  V  V13  1  0.37588626  0.74446478  0.62881949  1
  V  V14  1  0.37109283  0.37677199  0.00112883  1
  V  V15  1  0.87452749  0.37747433  0.00380705  1
  V  V16  1  0.25062417  0.74051817  0.49535156  1
  V  V17  1  0.35685385  0.61958196  0.25281229  1
  V  V18  1  0.37401360  0.87217028  0.49988202  1
  V  V19  1  -0.00632731  0.00254820  0.00077829  1
  V  V20  1  0.00011948  0.88199220  0.87508792  1
  V  V21  1  0.75483259  0.25719748  0.51313987  1
  V  V22  1  0.50129696  0.87002882  0.87782653  1
  V  V23  1  0.00013328  0.74470777  0.23772666  1
  V  V24  1  -0.00908952  0.12230288  0.62652805  1
  V  V25  1  0.49675543  0.74888702  0.25146956  1
  V  V26  1  0.63136415  0.49598327  0.62459219  1
  V  V27  1  0.62936450  0.24480769  0.87737612  1
  V  V28  1  0.25325588  0.37421330  0.62603169  1
  V  V29  1  0.62624236  0.86581189  0.75308439  1
  V  V30  1  0.38211398  0.13011171  0.25103194  1
  V  V31  1  0.75057315  0.00180287  0.76290012  1
  V  V32  1  0.50300774  0.37472054  0.87308992  1
  V  V33  1  0.24412696  0.12435196  0.37406351  1
  V  V34  1  0.87621916  0.11737995  0.76463893  1
  V  V35  1  0.24935603  0.25066062  -0.00103478  1
  V  V36  1  0.74678184  0.64064932  0.88137836  1
  V  V37  1  0.00136255  0.87358268  0.37038459  1
  V  V38  1  0.74840794  0.50303032  0.26304999  1
  V  V39  1  0.87426996  0.12398065  0.25305955  1
  V  V40  1  0.61597303  0.37084026  0.24968574  1
  V  V41  1  0.37538618  -0.00004570  0.37576007  1
  V  V42  1  -0.05676526  0.29291151  0.69296345  1
  V  V43  1  0.62345463  0.87872363  0.24482948  1
  V  V44  1  0.37379143  0.51113151  0.86992104  1
  V  V45  1  0.49815123  0.74323085  0.75484304  1
  V  V46  1  0.63128785  0.11684986  0.00046626  1
  V  V47  1  0.62291368  -0.00050674  0.62860461  1
  V  V48  1  0.01209389  0.12825652  0.12891541  1
  V  V49  1  0.87353883  0.62391210  0.25478698  1
  V  V50  1  0.62666559  0.12518338  0.50678226  1
  V  V51  1  0.50714017  0.12329183  0.12837288  1
  V  V52  1  0.25012608  0.12344116  0.86917713  1
  V  V53  1  0.12762747  0.36912907  0.74835745  1
  V  V54  1  0.14703657  0.49740120  0.13062127  1
  V  V55  1  0.49673837  0.62471475  0.12798652  1
  V  V56  1  0.63074207  0.74555490  0.37153919  1
  V  V57  1  0.00048342  0.62622479  0.61358052  1
  V  V58  1  0.38604919  0.37862566  0.50146263  1
  V  V59  1  0.50317540  0.24066901  0.74769557  1
  V  V60  1  0.01051913  0.74915573  0.75744288  1
  V  V61  1  0.38179489  0.25360915  0.12520018  1
  V  V62  1  0.25198383  -0.00029302  0.23916273  1
  V  V63  1  0.12552798  -0.00554745  0.62863889  1
  V  V64  1  0.74993500  0.37696130  0.12877760  1
  V  V65  1  0.12924366  0.74139104  0.37079363  1
  V  V66  1  0.24114316  0.75456852  -0.00699369  1
  V  V67  1  0.87366635  0.87416427  0.49837992  1
  V  V68  1  0.12446491  0.50098244  0.61827932  1
  V  V69  1  -0.00031709  -0.00200013  0.49831740  1
  V  V70  1  0.49896226  0.00005158  0.00333204  1
  V  V71  1  0.00522668  0.25375873  0.26432801  1
  V  V72  1  0.25321017  0.51172876  0.75233275  1
  V  V73  1  0.74849546  0.74683509  0.49755617  1
  V  V74  1  0.50063897  0.50127503  -0.00079529  1
  V  V75  1  0.61973237  0.62136020  0.49562434  1
  V  V76  1  0.62119398  0.24897281  0.37417456  1
  V  V77  1  -0.00197893  0.37107393  0.87718528  1
  V  V78  1  0.87686777  0.25086842  0.12970200  1
  V  V79  1  0.87326440  0.63039613  0.75225124  1
  V  V80  1  0.87482743  0.75104726  0.62500578  1
  V  V81  1  0.36734072  0.50151303  0.37685585  1
  V  V82  1  0.62604692  0.50063254  0.12514438  1
  V  V83  1  0.62679459  0.63943058  -0.00111381  1
  V  V84  1  0.50024669  0.00381846  0.50462844  1
  Zn  Zn85  1  0.25417951  -0.00630880  0.75022962  1
  Zn  Zn86  1  0.87218622  -0.00179539  0.37431289  1
  Zn  Zn87  1  0.50179995  0.87457429  0.37638362  1
  Zn  Zn88  1  0.63170436  0.37056274  0.74337059  1
  Zn  Zn89  1  0.13281708  0.87125145  0.76088758  1
  Zn  Zn90  1  0.49971920  0.37781231  0.37441345  1
  Zn  Zn91  1  0.86688508  0.87589668  -0.00609951  1
  Zn  Zn92  1  0.12544632  0.61678271  0.49058139  1
  Zn  Zn93  1  0.74375973  0.87596246  0.11661351  1
  Zn  Zn94  1  0.87458235  0.50521014  0.38994402  1
  Zn  Zn95  1  0.12514846  0.12562697  -0.00347776  1
  Zn  Zn96  1  0.24911231  0.87209217  0.62793426  1
  Zn  Zn97  1  0.74975422  0.87588690  0.62595264  1
  Zn  Zn98  1  0.87402555  0.37872790  0.50909247  1
  Zn  Zn99  1  0.12786950  -0.00537067  0.12074814  1
  Zn  Zn100  1  0.37970932  0.11840187  0.74861315  1
  Zn  Zn101  1  0.37371098  -0.00130391  0.87260538  1
  Zn  Zn102  1  0.14277458  0.38175815  0.25722909  1
  Zn  Zn103  1  0.12142690  0.24884383  0.87292454  1
  Zn  Zn104  1  0.74893384  0.49808021  0.75229658  1
  Zn  Zn105  1  0.36262241  0.75336909  0.12935991  1
  Zn  Zn106  1  0.75015256  0.12506485  0.37812458  1
  Zn  Zn107  1  0.20581977  0.21881112  0.20150569  1
  Zn  Zn108  1  0.18631528  0.18513600  0.68476963  1
  Zn  Zn109  1  0.18151604  0.68530253  0.17290974  1
  Zn  Zn110  1  0.18868975  0.68743509  0.68325145  1
  Zn  Zn111  1  0.68768749  0.18816530  0.18882345  1
  Zn  Zn112  1  0.69014435  0.18301328  0.69018454  1
  Zn  Zn113  1  0.68769749  0.68499845  0.18812403  1
  Zn  Zn114  1  0.68791562  0.68483054  0.68628382  1
  Zn  Zn115  1  0.31578390  0.31431182  0.31521231  1
  Zn  Zn116  1  0.31481683  0.31349031  0.81311496  1
  Zn  Zn117  1  0.31161603  0.81283310  0.31239901  1
  Zn  Zn118  1  0.31342091  0.81037868  0.81618165  1
  Zn  Zn119  1  0.81080136  0.31438586  0.32112998  1
  Zn  Zn120  1  0.80547170  0.31599932  0.81602182  1
  Zn  Zn121  1  0.81183818  0.81235544  0.30892141  1
  Zn  Zn122  1  0.81605483  0.81678342  0.81525383  1
  Zn  Zn123  1  0.19037195  0.43318696  0.43542219  1
  Zn  Zn124  1  0.18841552  0.43876049  0.93542587  1
  Zn  Zn125  1  0.18818649  0.93340286  0.43502288  1
  Zn  Zn126  1  0.18193087  0.94019417  0.93743169  1
  Zn  Zn127  1  0.68547543  0.43487074  0.44153556  1
  Zn  Zn128  1  0.68788835  0.44040903  0.93793956  1
  Zn  Zn129  1  0.68760227  0.93564075  0.43179330  1
  Zn  Zn130  1  0.68589585  0.93252697  0.93866479  1
  Zn  Zn131  1  0.31507434  0.06869932  0.05893952  1
  Zn  Zn132  1  0.31109570  0.06025172  0.56448019  1
  Zn  Zn133  1  0.31173253  0.56745993  0.05901899  1
  Zn  Zn134  1  0.31219683  0.56085224  0.56269621  1
  Zn  Zn135  1  0.81405232  0.06208849  0.06747876  1
  Zn  Zn136  1  0.80953253  0.06129670  0.56518616  1
  Zn  Zn137  1  0.81104283  0.56876860  0.06755770  1
  Zn  Zn138  1  0.80885527  0.56475469  0.55920827  1
  Zn  Zn139  1  0.43221320  0.44063059  0.18817140  1
  Zn  Zn140  1  0.43966876  0.43311313  0.69023919  1
  Zn  Zn141  1  0.43945680  0.93999066  0.18638482  1
  Zn  Zn142  1  0.43790913  0.93382481  0.68808891  1
  Zn  Zn143  1  0.93717154  0.43648429  0.19602456  1
  Zn  Zn144  1  0.93533751  0.45629649  0.68586224  1
  Zn  Zn145  1  0.93656896  0.93699402  0.18439229  1
  Zn  Zn146  1  0.93752518  0.93699671  0.68983797  1
  Zn  Zn147  1  0.06417366  0.06035529  0.30976497  1
  Zn  Zn148  1  0.06319007  0.06241687  0.81174732  1
  Zn  Zn149  1  0.06316694  0.56185400  0.30302269  1
  Zn  Zn150  1  0.06027211  0.55696351  0.80874013  1
  Zn  Zn151  1  0.56368175  0.06170159  0.31774920  1
  Zn  Zn152  1  0.56404723  0.05912884  0.81800895  1
  Zn  Zn153  1  0.55563726  0.55815445  0.31521908  1
  Zn  Zn154  1  0.56450267  0.56440530  0.81273694  1
  Zn  Zn155  1  0.43997198  0.18697121  0.43806575  1
  Zn  Zn156  1  0.43821126  0.18584484  0.93554536  1
  Zn  Zn157  1  0.43802414  0.68295312  0.43466800  1
  Zn  Zn158  1  0.43348751  0.69176641  0.94123985  1
  Zn  Zn159  1  0.93342188  0.18916674  0.44064924  1
  Zn  Zn160  1  0.93784693  0.18883978  0.94172354  1
  Zn  Zn161  1  0.93722511  0.68969345  0.43089516  1
  Zn  Zn162  1  0.94560245  0.68713716  0.93874347  1
  Zn  Zn163  1  0.06535066  0.31582439  0.06595329  1
  Zn  Zn164  1  0.06952070  0.31358781  0.55412360  1
  Zn  Zn165  1  0.06116742  0.81048446  0.05634403  1
  Zn  Zn166  1  0.06290762  0.80931371  0.56049745  1
  Zn  Zn167  1  0.56101006  0.31148132  0.06155830  1
  Zn  Zn168  1  0.56374112  0.30904450  0.56321936  1
  Zn  Zn169  1  0.55717406  0.81301272  0.06688581  1
  Zn  Zn170  1  0.56081723  0.81242174  0.56455851  1
  O  O171  1  0.11455607  0.13157941  0.12938197  1
  O  O172  1  0.11523780  0.11374928  0.62135194  1
  O  O173  1  0.12612395  0.60481599  0.11241379  1
  O  O174  1  0.11727100  0.61854262  0.62086521  1
  O  O175  1  0.61342629  0.13207885  0.11849639  1
  O  O176  1  0.62618567  0.11645567  0.61490462  1
  O  O177  1  0.61656083  0.62038564  0.12024508  1
  O  O178  1  0.61687615  0.61891152  0.61775514  1
  O  O179  1  0.37900265  0.37677555  0.38446231  1
  O  O180  1  0.38845577  0.37855316  0.88151117  1
  O  O181  1  0.37673035  0.87978857  0.38580398  1
  O  O182  1  0.38632067  0.87534489  0.88709354  1
  O  O183  1  0.88865384  0.37960221  0.37586798  1
  O  O184  1  0.87944631  0.38378999  0.88383113  1
  O  O185  1  0.88441814  0.87337637  0.37918139  1
  O  O186  1  0.89234633  0.87245030  0.87763164  1
  O  O187  1  0.25701579  0.00687389  0.36835622  1
  O  O188  1  0.25033555  0.00961618  0.87350594  1
  O  O189  1  0.26560660  0.48779405  0.36968093  1
  O  O190  1  0.26179120  0.49281994  0.86471719  1
  O  O191  1  0.75257631  0.00298969  0.36402269  1
  O  O192  1  0.73969571  0.00216180  0.86150479  1
  O  O193  1  0.74924163  0.49547694  0.36540943  1
  O  O194  1  0.76425764  0.50802360  0.88044525  1
  O  O195  1  0.24595679  0.49565994  0.12073638  1
  O  O196  1  0.24566436  0.49334382  0.63260046  1
  O  O197  1  0.24912143  1.01049085  0.13636662  1
  O  O198  1  0.23950040  0.99639651  0.62581903  1
  O  O199  1  0.74389060  0.49326743  0.13113549  1
  O  O200  1  0.73365051  0.50928586  0.62983842  1
  O  O201  1  0.75267125  0.99816545  0.14104544  1
  O  O202  1  0.73721423  0.99683276  0.63195204  1
  O  O203  1  0.00093884  0.36383509  0.26044287  1
  O  O204  1  0.00002288  0.36844954  0.75244546  1
  O  O205  1  0.00701221  0.86920430  0.25534137  1
  O  O206  1  0.00094599  0.86844078  0.75998580  1
  O  O207  1  0.51334378  0.37774910  0.24525055  1
  O  O208  1  0.50709072  0.36383775  0.75894342  1
  O  O209  1  0.50344916  0.86693462  0.25194722  1
  O  O210  1  0.50589152  0.86500827  0.75761016  1
  O  O211  1  0.49425157  0.11514852  0.24142178  1
  O  O212  1  0.50056109  0.13696034  0.75781618  1
  O  O213  1  0.49631452  0.63060757  0.24048726  1
  O  O214  1  0.50657526  0.63745207  0.74289209  1
  O  O215  1  0.99302973  0.13244605  0.24837576  1
  O  O216  1  0.98702504  0.12100499  0.74276263  1
  O  O217  1  0.99092493  0.63498333  0.25098629  1
  O  O218  1  0.99363079  0.63269918  0.74584048  1
  O  O219  1  0.37383646  0.25853816  0.00329776  1
  O  O220  1  0.37249852  0.25436542  0.50824722  1
  O  O221  1  0.36534528  0.75801544  0.00553726  1
  O  O222  1  0.37047133  0.75477940  0.50160292  1
  O  O223  1  0.86954192  0.25576395  0.00886106  1
  O  O224  1  0.85922423  0.25269709  0.50070107  1
  O  O225  1  0.88181809  0.74582913  0.01625388  1
  O  O226  1  0.86623568  0.75285175  0.50194599  1
  O  O227  1  0.13935125  0.23818008  0.50534482  1
  O  O228  1  0.13613921  0.25150103  0.99868935  1
  O  O229  1  0.13368790  0.75010515  0.48886980  1
  O  O230  1  0.13078868  0.73572416  1.00050661  1
  O  O231  1  0.63095406  0.24181949  0.49746836  1
  O  O232  1  0.62860186  0.24111773  0.99549968  1
  O  O233  1  0.62914099  0.74683729  0.49180344  1
  O  O234  1  0.61686373  0.73830152  1.00408390  1
  O  O235  1  0.48940205  0.23960333  0.11810982  1
  O  O236  1  0.49378009  0.25287969  0.63552719  1
  O  O237  1  0.49461164  0.74253152  0.13743589  1
  O  O238  1  0.49418305  0.74168318  0.63169293  1
  O  O239  1  0.99384672  0.24718711  0.13487073  1
  O  O240  1  1.00601707  0.24126743  0.62687333  1
  O  O241  1  0.99357314  0.75306261  0.13479129  1
  O  O242  1  0.99350026  0.74455497  0.63236825  1
  O  O243  1  -0.00484949  0.25625223  0.36762159  1
  O  O244  1  0.00046855  0.26623484  0.88224109  1
  O  O245  1  0.00729498  0.75981891  0.36543939  1
  O  O246  1  -0.00192042  0.75835271  0.86525276  1
  O  O247  1  0.51551775  0.25315531  0.38201220  1
  O  O248  1  0.50942410  0.25627072  0.87154888  1
  O  O249  1  0.50616494  0.74896130  0.36335598  1
  O  O250  1  0.49476380  0.75613942  0.86668926  1
  O  O251  1  0.24661850  0.12758380  0.49328397  1
  O  O252  1  0.24887743  0.13197897  0.98705457  1
  O  O253  1  0.24781029  0.63689933  0.50148862  1
  O  O254  1  0.23753562  0.63052892  0.99739484  1
  O  O255  1  0.74260532  0.13130879  0.49958026  1
  O  O256  1  0.74090668  0.13175798  1.01114747  1
  O  O257  1  0.73643292  0.63968932  0.50405608  1
  O  O258  1  0.73878720  0.62357424  0.99496348  1
  O  O259  1  0.26396699  0.36771352  -0.00823976  1
  O  O260  1  0.25758762  0.36391868  0.50594544  1
  O  O261  1  0.25350630  0.86560970  -0.00508399  1
  O  O262  1  0.25934603  0.86612673  0.50179842  1
  O  O263  1  0.75549986  0.37051788  0.00826060  1
  O  O264  1  0.74935975  0.36127411  0.50243332  1
  O  O265  1  0.75429015  0.87890346  0.00407944  1
  O  O266  1  0.75323345  0.86397791  0.49970367  1
  O  O267  1  0.13090861  0.49841452  0.23644321  1
  O  O268  1  0.13089287  0.48947679  0.74080547  1
  O  O269  1  0.13475156  0.99129842  0.24756974  1
  O  O270  1  0.12630954  0.99566175  0.74030141  1
  O  O271  1  0.63066582  0.49461292  0.24520886  1
  O  O272  1  0.62381796  0.50186311  0.73588856  1
  O  O273  1  0.63122627  0.99005196  0.25718755  1
  O  O274  1  0.62788639  0.99329460  0.74421532  1
  O  O275  1  0.36939038  0.00761736  0.25389931  1
  O  O276  1  0.37414431  0.00105727  0.75182234  1
  O  O277  1  0.37170982  0.51404103  0.25247021  1
  O  O278  1  0.36628648  0.49309459  0.75775288  1
  O  O279  1  0.87010621  0.00826430  0.25152081  1
  O  O280  1  0.86658873  0.00879777  0.74888986  1
  O  O281  1  0.86504803  0.50807047  0.25097864  1
  O  O282  1  0.87470030  0.51583357  0.76104931  1
  O  O283  1  0.11001676  0.37726641  0.37317563  1
  O  O284  1  0.11445382  0.37816048  0.86491851  1
  O  O285  1  0.11949415  0.86611553  0.36336506  1
  O  O286  1  0.10799973  0.87384875  0.87662348  1
  O  O287  1  0.62177665  0.36917212  0.36764547  1
  O  O288  1  0.61347129  0.36816098  0.88157465  1
  O  O289  1  0.62140292  0.86322961  0.36527983  1
  O  O290  1  0.61032091  0.87797698  0.86714388  1
  O  O291  1  0.38746002  0.12881375  0.13135587  1
  O  O292  1  0.37286069  0.13681602  0.62596019  1
  O  O293  1  0.38095761  0.62528665  0.13572340  1
  O  O294  1  0.38346862  0.63550834  0.61736085  1
  O  O295  1  0.88399083  0.13192980  0.13785152  1
  O  O296  1  0.88720723  0.12169039  0.62953842  1
  O  O297  1  0.87206993  0.63836193  0.13723372  1
  O  O298  1  0.88110140  0.63010177  0.63397151  1
  O  O299  1  0.26981568  0.23546030  0.10519167  1
  O  O300  1  0.25891557  0.25294347  0.61734309  1
  O  O301  1  0.24990774  0.74544514  0.10451833  1
  O  O302  1  0.25932926  0.75060015  0.61610211  1
  O  O303  1  0.75676841  0.25799963  0.12305921  1
  O  O304  1  0.74275390  0.24797560  0.61180429  1
  O  O305  1  0.76246356  0.75219012  0.13078393  1
  O  O306  1  0.75649904  0.75210512  0.61717693  1
  O  O307  1  0.26136238  0.23726227  0.39047229  1
  O  O308  1  0.25076004  0.24504615  0.88378447  1
  O  O309  1  0.24014884  0.75488149  0.38169324  1
  O  O310  1  0.25774585  0.74483067  0.89307085  1
  O  O311  1  0.73791930  0.24783861  0.38602813  1
  O  O312  1  0.73674493  0.25328487  0.88560646  1
  O  O313  1  0.73829255  0.75179910  0.37980204  1
  O  O314  1  0.75383656  0.73952216  0.87321895  1
  O  O315  1  0.00176556  0.12220784  0.01125133  1
  O  O316  1  0.00359504  0.11985872  0.50579384  1
  O  O317  1  0.01421016  0.61491654  -0.00317234  1
  O  O318  1  0.00187117  0.63477075  0.51065463  1
  O  O319  1  0.50565418  0.11723171  0.00611066  1
  O  O320  1  0.50655388  0.11084497  0.49894428  1
  O  O321  1  0.50226981  0.62210712  0.01172294  1
  O  O322  1  0.51125463  0.63173585  0.50954464  1
  O  O323  1  0.48842281  0.37249400  0.50169198  1
  O  O324  1  0.49238973  0.38096735  0.99390066  1
  O  O325  1  0.49329611  0.88315675  0.49868006  1
  O  O326  1  0.49506034  0.88027289  0.99595116  1
  O  O327  1  0.99708179  0.36943549  0.48682057  1
  O  O328  1  0.99438659  0.38405521  0.99428132  1
  O  O329  1  0.99546759  0.87679648  0.48998150  1
  O  O330  1  0.99661513  0.88234047  0.99211259  1
  O  O331  1  0.47964060  0.49386355  0.36831210  1
  O  O332  1  0.49690637  0.49194770  0.87792956  1
  O  O333  1  0.49277601  0.99682387  0.38525899  1
  O  O334  1  0.49798075  0.99196685  0.88752382  1
  O  O335  1  0.99872340  0.48979509  0.37061861  1
  O  O336  1  0.98885599  0.49144851  0.87985561  1
  O  O337  1  1.00083810  0.98737794  0.37770778  1
  O  O338  1  1.00221939  0.99103334  0.88288744  1
  O  O339  1  0.00380927  0.01097670  0.12250624  1
  O  O340  1  0.00499654  0.00483353  0.61883324  1
  O  O341  1  -0.00304970  0.49730705  0.11649612  1
  O  O342  1  0.01219078  0.51391875  0.62913051  1
  O  O343  1  0.49869201  0.00754786  0.11244144  1
  O  O344  1  0.51303109  -0.00643428  0.61884455  1
  O  O345  1  0.50405487  0.50831890  0.12106800  1
  O  O346  1  0.50365777  0.51314011  0.63156343  1
  O  O347  1  0.23846929  0.32476796  0.23850981  1
  O  O348  1  0.24332481  0.37926728  0.74413555  1
  O  O349  1  0.24373471  0.88627965  0.25310319  1
  O  O350  1  0.24827755  0.87313361  0.74689732  1
  O  O351  1  0.74209820  0.38205448  0.24577659  1
  O  O352  1  0.74299910  0.38432011  0.75690224  1
  O  O353  1  0.74070242  0.88191511  0.24893978  1
  O  O354  1  0.74206268  0.88090156  0.75096857  1
  O  O355  1  0.25878719  0.12229982  0.25840236  1
  O  O356  1  0.25232706  0.12665842  0.75992308  1
  O  O357  1  0.25982988  0.63300316  0.24542744  1
  O  O358  1  0.24571415  0.61095530  0.74596319  1
  O  O359  1  0.75717832  0.11947628  0.25171668  1
  O  O360  1  0.76683548  0.11721072  0.74511221  1
  O  O361  1  0.75604916  0.61305596  0.24643537  1
  O  O362  1  0.75780433  0.62400141  0.75943963  1
  O  O363  1  0.37127539  0.11970795  0.36830935  1
  O  O364  1  0.36621657  0.12324152  0.87208104  1
  O  O365  1  0.37493534  0.61871438  0.36149430  1
  O  O366  1  0.38427231  0.60971724  0.87786634  1
  O  O367  1  0.87493701  0.12338624  0.36368935  1
  O  O368  1  0.88126532  0.12600343  0.86316008  1
  O  O369  1  0.87581106  0.62378231  0.36152867  1
  O  O370  1  0.87107480  0.62212991  0.87215478  1
  O  O371  1  0.12117521  0.39440171  0.12572541  1
  O  O372  1  0.13000419  0.38127861  0.62942480  1
  O  O373  1  0.11988684  0.87334594  0.13725861  1
  O  O374  1  0.12273427  0.88635654  0.62254328  1
  O  O375  1  0.63024986  0.37776789  0.13081809  1
  O  O376  1  0.61622001  0.39328690  0.62272314  1
  O  O377  1  0.62397530  0.86933351  0.14057156  1
  O  O378  1  0.62593170  0.88058662  0.63494188  1
  O  O379  1  0.10367655  0.24285937  0.25362636  1
  O  O380  1  0.12925028  0.26438931  0.74934785  1
  O  O381  1  0.11981001  0.75301598  0.25147112  1
  O  O382  1  0.11312046  0.75157931  0.74169829  1
  O  O383  1  0.63086074  0.25894887  0.26029632  1
  O  O384  1  0.62151605  0.24785131  0.75898681  1
  O  O385  1  0.61777853  0.75228274  0.25608319  1
  O  O386  1  0.61854400  0.76050602  0.74416646  1
  O  O387  1  0.37924980  0.23632652  0.24178476  1
  O  O388  1  0.38490049  0.25069975  0.74165267  1
  O  O389  1  0.38046372  0.74065488  0.25068154  1
  O  O390  1  0.38463964  0.75393503  0.73896421  1
  O  O391  1  0.88091684  0.24410408  0.24855819  1
  O  O392  1  0.87518234  0.24161042  0.75304544  1
  O  O393  1  0.88230625  0.74412537  0.24523143  1
  O  O394  1  0.88141099  0.74247310  0.74630784  1
  O  O395  1  0.36920708  0.48948236  0.49317270  1
  O  O396  1  0.38031456  0.49389815  0.99373197  1
  O  O397  1  0.38194775  0.99250164  0.49981739  1
  O  O398  1  0.38119036  0.99362699  0.99839779  1
  O  O399  1  0.87002302  0.49346398  0.50352679  1
  O  O400  1  0.88233103  0.50052226  0.99793455  1
  O  O401  1  0.88085302  0.99294477  0.49801592  1
  O  O402  1  0.88952859  1.00063432  1.00805290  1
  O  O403  1  0.11309854  0.00541005  0.00549857  1
  O  O404  1  0.11885602  0.00391814  0.50400614  1
  O  O405  1  0.12107394  0.50398469  0.00532864  1
  O  O406  1  0.13437710  0.49957239  0.51332973  1
  O  O407  1  0.61723186  0.01125823  -0.00311179  1
  O  O408  1  0.62004560  0.00362061  0.50547842  1
  O  O409  1  0.61692724  0.50515398  0.00772529  1
  O  O410  1  0.62802398  0.50977998  0.51031917  1
  O  O411  1  0.38286205  0.36598027  0.11475939  1
  O  O412  1  0.37155961  0.36713726  0.61916466  1
  O  O413  1  0.37949018  0.87463271  0.11187313  1
  O  O414  1  0.37802126  0.86283024  0.61308073  1
  O  O415  1  0.87038988  0.37075035  0.12284900  1
  O  O416  1  0.89252029  0.36171343  0.63512166  1
  O  O417  1  0.87426941  0.85871801  0.12706766  1
  O  O418  1  0.87449642  0.86824664  0.61755482  1
  O  O419  1  0.13798179  0.11883817  0.37883153  1
  O  O420  1  0.13226913  0.13078178  0.87434327  1
  O  O421  1  0.11778594  0.63715577  0.37351402  1
  O  O422  1  0.12389397  0.61204707  0.88779167  1
  O  O423  1  0.62564809  0.13058044  0.38828935  1
  O  O424  1  0.62088230  0.13395203  0.88755730  1
  O  O425  1  0.61725641  0.63227605  0.38298585  1
  O  O426  1  0.63482009  0.61926654  0.88659134  1
