# generated using pymatgen
data_V85Zn86O256
_symmetry_space_group_name_H-M   'P 1'
_cell_length_a   16.91959847
_cell_length_b   16.91769409
_cell_length_c   16.91481692
_cell_angle_alpha   90.02495418
_cell_angle_beta   89.99756615
_cell_angle_gamma   90.04913548
_symmetry_Int_Tables_number   1
_chemical_formula_structural   V85Zn86O256
_chemical_formula_sum   'V85 Zn86 O256'
_cell_volume   4841.70494838
_cell_formula_units_Z   1
loop_
 _symmetry_equiv_pos_site_id
 _symmetry_equiv_pos_as_xyz
  1  'x, y, z'
loop_
 _atom_site_type_symbol
 _atom_site_label
 _atom_site_symmetry_multiplicity
 _atom_site_fract_x
 _atom_site_fract_y
 _atom_site_fract_z
 _atom_site_occupancy
  V  V0  1  0.62601023  0.37612099  0.25261699  1
  V  V1  1  0.12112732  0.12790994  -0.00289997  1
  V  V2  1  0.49871474  0.87453862  0.87764996  1
  V  V3  1  0.11696243  0.25188738  0.85850593  1
  V  V4  1  0.62793487  0.25052923  0.38573649  1
  V  V5  1  0.37510135  0.24866069  0.63598715  1
  V  V6  1  0.00154919  0.87352901  0.36422363  1
  V  V7  1  0.25190196  0.75167401  0.49992142  1
  V  V8  1  0.87067851  0.51001777  0.37790201  1
  V  V9  1  0.36854822  0.25063289  0.12659839  1
  V  V10  1  0.62425256  0.50748271  0.61293086  1
  V  V11  1  0.25288810  0.00197997  0.74930453  1
  V  V12  1  0.62746294  0.87330262  0.25112623  1
  V  V13  1  0.62307399  0.49994965  0.12507223  1
  V  V14  1  0.37287905  0.50308832  0.86230529  1
  V  V15  1  0.88228318  0.01366671  0.37109104  1
  V  V16  1  -0.00896485  -0.00287734  -0.00267717  1
  V  V17  1  0.88577617  0.12617670  0.74360007  1
  V  V18  1  -0.00514220  0.12256725  0.13104773  1
  V  V19  1  0.24783779  0.49879520  0.24677714  1
  V  V20  1  0.63656388  0.62306146  -0.00189479  1
  V  V21  1  0.36799489  0.74878198  0.12958047  1
  V  V22  1  -0.00125644  0.37463771  0.85862354  1
  V  V23  1  0.37569358  0.00601994  0.87524815  1
  V  V24  1  0.25068200  0.12907198  0.87055891  1
  V  V25  1  0.87842877  0.87568447  0.49641353  1
  V  V26  1  0.89097047  0.75001093  0.12208975  1
  V  V27  1  0.62407434  0.24960041  0.87536240  1
  V  V28  1  0.48937692  0.73652787  0.75456359  1
  V  V29  1  0.23347044  0.37689155  0.62765686  1
  V  V30  1  0.50119905  0.37986258  0.38197673  1
  V  V31  1  0.74879895  0.12369853  0.87181983  1
  V  V32  1  0.75543107  0.87099280  0.11742548  1
  V  V33  1  0.49489009  0.12384848  0.13017541  1
  V  V34  1  0.00333913  -0.00063924  0.50657807  1
  V  V35  1  0.49722738  0.11582733  0.62538784  1
  V  V36  1  0.00086842  0.50127882  0.50337020  1
  V  V37  1  0.74895580  0.51490210  0.25239360  1
  V  V38  1  0.74850256  0.36551186  0.62109483  1
  V  V39  1  0.49756012  0.37466580  0.87460890  1
  V  V40  1  -0.00612500  0.24665356  0.25593688  1
  V  V41  1  0.86987844  0.36809154  0.49495101  1
  V  V42  1  0.49518863  0.24762752  0.25372431  1
  V  V43  1  0.25701168  0.12575760  0.36642500  1
  V  V44  1  0.12527732  0.25229587  0.37362663  1
  V  V45  1  0.63335103  0.74528000  0.87611295  1
  V  V46  1  0.12243378  0.75091632  0.36708210  1
  V  V47  1  -0.00763946  0.86739339  0.87352029  1
  V  V48  1  0.74945488  0.24923929  0.00293402  1
  V  V49  1  0.25609360  0.62694576  0.37174336  1
  V  V50  1  0.62701143  0.37653557  0.74959637  1
  V  V51  1  0.74516574  0.87289478  0.61926209  1
  V  V52  1  0.62950352  0.73592613  0.37538970  1
  V  V53  1  0.86770777  0.62729747  0.75698596  1
  V  V54  1  0.49930082  0.74593339  0.24968546  1
  V  V55  1  0.75309548  0.12955284  0.38152079  1
  V  V56  1  0.62332545  0.12424439  0.00118851  1
  V  V57  1  0.38459344  0.00353038  0.37473449  1
  V  V58  1  0.49608103  0.50378243  -0.00007373  1
  V  V59  1  0.12513539  0.62179252  0.50387296  1
  V  V60  1  0.74499945  0.00065575  0.74566249  1
  V  V61  1  0.37934155  0.50503095  0.37406986  1
  V  V62  1  0.00359420  0.62661733  0.63451341  1
  V  V63  1  0.25569139  -0.00564711  0.24667904  1
  V  V64  1  0.89364577  0.63150637  0.24801505  1
  V  V65  1  0.74997756  0.37463871  0.12892135  1
  V  V66  1  0.12693792  0.12315121  0.50505840  1
  V  V67  1  0.12197607  0.86660290  0.75120824  1
  V  V68  1  0.25197380  0.25071695  0.49955768  1
  V  V69  1  0.87418681  0.24600375  0.13042583  1
  V  V70  1  0.24812057  0.62532105  0.87229091  1
  V  V71  1  0.36282574  0.87633190  0.00540771  1
  V  V72  1  0.88157928  0.75050791  0.62704342  1
  V  V73  1  0.12976270  -0.00526988  0.12410311  1
  V  V74  1  0.75848081  0.00536138  0.24896851  1
  V  V75  1  0.24950269  0.87642716  0.62414250  1
  V  V76  1  0.62584859  -0.00014377  0.12638230  1
  V  V77  1  0.38568065  0.87864796  0.50114034  1
  V  V78  1  0.00532045  0.49597237  0.01711604  1
  V  V79  1  0.37637065  0.38132576  0.50525200  1
  V  V80  1  0.75330824  0.73688917  0.49081766  1
  V  V81  1  0.22819542  0.50016742  0.74465916  1
  V  V82  1  0.87725822  0.37420041  0.00086821  1
  V  V83  1  0.12319563  0.62139540  0.01467742  1
  V  V84  1  0.62274032  0.87104644  0.74833804  1
  Zn  Zn85  1  0.49516283  0.24414853  0.75373773  1
  Zn  Zn86  1  0.37044729  0.37646132  0.00037548  1
  Zn  Zn87  1  0.87198662  0.50549895  0.88124443  1
  Zn  Zn88  1  0.24476596  0.38707850  0.11544736  1
  Zn  Zn89  1  0.00210188  0.37975257  0.37465464  1
  Zn  Zn90  1  0.50903691  0.87907832  0.38158829  1
  Zn  Zn91  1  0.12155961  0.00353517  0.62926209  1
  Zn  Zn92  1  0.12782245  0.86876440  0.23997268  1
  Zn  Zn93  1  0.75989184  0.74928394  -0.00318210  1
  Zn  Zn94  1  0.24475818  0.75151089  0.00200762  1
  Zn  Zn95  1  0.60822368  -0.01619153  0.60710039  1
  Zn  Zn96  1  0.62119694  0.11507954  0.49954367  1
  Zn  Zn97  1  0.37213662  0.73991810  0.63400418  1
  Zn  Zn98  1  0.24683961  0.25500788  -0.00217025  1
  Zn  Zn99  1  0.49069662  0.60799332  0.60186676  1
  Zn  Zn100  1  0.49853821  -0.00098684  0.00304398  1
  Zn  Zn101  1  0.12220350  0.74523493  0.87392009  1
  Zn  Zn102  1  0.49669323  0.62444517  0.12842307  1
  Zn  Zn103  1  0.74901608  0.50142373  0.75681775  1
  Zn  Zn104  1  0.88105536  0.24997005  0.63371546  1
  Zn  Zn105  1  0.87063684  -0.00412971  0.87589264  1
  Zn  Zn106  1  0.12013641  0.37967408  0.24064854  1
  Zn  Zn107  1  0.18167174  0.18556831  0.18871911  1
  Zn  Zn108  1  0.18926621  0.18792190  0.68638313  1
  Zn  Zn109  1  0.19225425  0.68406350  0.18953350  1
  Zn  Zn110  1  0.19025314  0.68608092  0.68764583  1
  Zn  Zn111  1  0.68427236  0.18690284  0.19473315  1
  Zn  Zn112  1  0.68138768  0.18704189  0.68371177  1
  Zn  Zn113  1  0.68749297  0.68905084  0.18179131  1
  Zn  Zn114  1  0.68739118  0.68978429  0.68532609  1
  Zn  Zn115  1  0.31484600  0.31623929  0.31219365  1
  Zn  Zn116  1  0.30645637  0.31884163  0.81298545  1
  Zn  Zn117  1  0.31472353  0.81749012  0.31320082  1
  Zn  Zn118  1  0.30937253  0.81441967  0.81826801  1
  Zn  Zn119  1  0.81444164  0.31635442  0.31791003  1
  Zn  Zn120  1  0.81322601  0.31161887  0.81229112  1
  Zn  Zn121  1  0.81558939  0.81384306  0.30921912  1
  Zn  Zn122  1  0.81343027  0.81074041  0.80769782  1
  Zn  Zn123  1  0.18896229  0.43854886  0.43745195  1
  Zn  Zn124  1  0.18275432  0.43593042  0.93433244  1
  Zn  Zn125  1  0.19060761  0.93846696  0.43368521  1
  Zn  Zn126  1  0.18234785  0.93982985  0.93528257  1
  Zn  Zn127  1  0.68945114  0.44361182  0.43695357  1
  Zn  Zn128  1  0.69073028  0.43920464  0.93619670  1
  Zn  Zn129  1  0.69141990  0.93721411  0.43565777  1
  Zn  Zn130  1  0.68582881  0.93671347  0.93728883  1
  Zn  Zn131  1  0.31143149  0.06668797  0.06011424  1
  Zn  Zn132  1  0.31587977  0.06385553  0.56046756  1
  Zn  Zn133  1  0.31435374  0.56698779  0.05947525  1
  Zn  Zn134  1  0.31061064  0.56193058  0.56581296  1
  Zn  Zn135  1  0.81261424  0.06280893  0.06264408  1
  Zn  Zn136  1  0.81090064  0.05965040  0.56108468  1
  Zn  Zn137  1  0.81777633  0.56300886  0.06759941  1
  Zn  Zn138  1  0.81105385  0.55801043  0.57029420  1
  Zn  Zn139  1  0.43330600  0.43580647  0.19097995  1
  Zn  Zn140  1  0.43979792  0.43733775  0.68686217  1
  Zn  Zn141  1  0.43776475  0.93440637  0.19028833  1
  Zn  Zn142  1  0.43328079  0.93217243  0.69143426  1
  Zn  Zn143  1  0.93547412  0.43445607  0.19332119  1
  Zn  Zn144  1  0.93285741  0.44262630  0.68199394  1
  Zn  Zn145  1  0.93846241  0.93544111  0.18585883  1
  Zn  Zn146  1  0.93426786  0.93800779  0.69022219  1
  Zn  Zn147  1  0.06778309  0.06352512  0.31324155  1
  Zn  Zn148  1  0.06415340  0.05626608  0.81255943  1
  Zn  Zn149  1  0.06627581  0.56277540  0.31725143  1
  Zn  Zn150  1  0.05732408  0.56115639  0.82019570  1
  Zn  Zn151  1  0.56676637  0.06329675  0.31295834  1
  Zn  Zn152  1  0.56099482  0.06185352  0.80563361  1
  Zn  Zn153  1  0.56059759  0.56367888  0.31393562  1
  Zn  Zn154  1  0.56612657  0.56125971  0.81360190  1
  Zn  Zn155  1  0.43757641  0.18938456  0.44372232  1
  Zn  Zn156  1  0.43618283  0.18775474  0.94252080  1
  Zn  Zn157  1  0.44025798  0.69032386  0.43882284  1
  Zn  Zn158  1  0.43473556  0.68686903  0.94004064  1
  Zn  Zn159  1  0.94737300  0.19694971  0.46369463  1
  Zn  Zn160  1  0.93489740  0.18750346  0.93369669  1
  Zn  Zn161  1  0.93937703  0.68734211  0.43644254  1
  Zn  Zn162  1  0.94422904  0.68575116  0.94242064  1
  Zn  Zn163  1  0.06413589  0.31150676  0.06286966  1
  Zn  Zn164  1  0.05517202  0.30899840  0.56218822  1
  Zn  Zn165  1  0.06314095  0.81327043  0.05582148  1
  Zn  Zn166  1  0.06516342  0.81293299  0.55868358  1
  Zn  Zn167  1  0.55910404  0.31314126  0.06342204  1
  Zn  Zn168  1  0.55984056  0.31107357  0.56527076  1
  Zn  Zn169  1  0.56137283  0.81102106  0.06241504  1
  Zn  Zn170  1  0.55527429  0.77681144  0.55515627  1
  O  O171  1  0.11411379  0.11855979  0.11624368  1
  O  O172  1  0.13156769  0.12290434  0.61000484  1
  O  O173  1  0.12985870  0.62345692  0.11378117  1
  O  O174  1  0.11789610  0.63390904  0.61295941  1
  O  O175  1  0.61703177  0.12131630  0.12154808  1
  O  O176  1  0.61090341  0.12079318  0.62160851  1
  O  O177  1  0.61998756  0.61755740  0.11699364  1
  O  O178  1  0.62495753  0.60893293  0.63307697  1
  O  O179  1  0.38304309  0.38160733  0.38338784  1
  O  O180  1  0.38281344  0.38213748  0.87656619  1
  O  O181  1  0.37893100  0.88429923  0.38417774  1
  O  O182  1  0.37990182  0.88457653  0.88380891  1
  O  O183  1  0.87642750  0.39589592  0.37661636  1
  O  O184  1  0.88565124  0.36990167  0.88442317  1
  O  O185  1  0.88405525  0.88260118  0.37709658  1
  O  O186  1  0.88783730  0.87610180  0.86840661  1
  O  O187  1  0.25897776  0.00753983  0.36700758  1
  O  O188  1  0.25501624  0.00753160  0.86965859  1
  O  O189  1  0.25848908  0.50834215  0.37145707  1
  O  O190  1  0.25282658  0.50221171  0.86221758  1
  O  O191  1  0.76262740  0.00557437  0.36680475  1
  O  O192  1  0.74824316  0.00397964  0.86567523  1
  O  O193  1  0.75740879  0.50184856  0.36466544  1
  O  O194  1  0.75973652  0.49498520  0.87096409  1
  O  O195  1  0.26205013  0.50518607  0.14377996  1
  O  O196  1  0.24736858  0.49322790  0.63706062  1
  O  O197  1  0.24183999  1.01116882  0.13333689  1
  O  O198  1  0.25089009  0.99451200  0.63285501  1
  O  O199  1  0.74487365  0.49410096  0.13230639  1
  O  O200  1  0.73843366  0.49049789  0.63261965  1
  O  O201  1  0.74772191  0.99512265  0.13171588  1
  O  O202  1  0.74869684  0.98553125  0.62875767  1
  O  O203  1  0.00231192  0.36528405  0.25627656  1
  O  O204  1  -0.01026966  0.37788019  0.75964057  1
  O  O205  1  0.00672460  0.87889631  0.26055411  1
  O  O206  1  0.00819035  0.88423327  0.76270782  1
  O  O207  1  0.50471977  0.37022889  0.26241290  1
  O  O208  1  0.50619528  0.37288620  0.76211100  1
  O  O209  1  0.51255586  0.86632894  0.25027014  1
  O  O210  1  0.50284332  0.87210737  0.76480214  1
  O  O211  1  0.50749065  0.13584971  0.24236911  1
  O  O212  1  0.50135867  0.12907433  0.73510083  1
  O  O213  1  0.50309800  0.64062984  0.24905305  1
  O  O214  1  0.50064968  0.63649672  0.75430988  1
  O  O215  1  1.00425541  0.13035686  0.24107533  1
  O  O216  1  0.98427541  0.11290757  0.75071227  1
  O  O217  1  0.99206007  0.62259025  0.25050510  1
  O  O218  1  0.99649104  0.62117333  0.73797633  1
  O  O219  1  0.37270763  0.25374228  0.01160304  1
  O  O220  1  0.36848679  0.26273571  0.50672776  1
  O  O221  1  0.37270659  0.75907243  0.00950787  1
  O  O222  1  0.36039833  0.76100665  0.49620944  1
  O  O223  1  0.86842397  0.25290707  0.00812616  1
  O  O224  1  0.85871633  0.27221170  0.46723170  1
  O  O225  1  0.87632985  0.74114340  0.01651000  1
  O  O226  1  0.86808721  0.75468765  0.50331474  1
  O  O227  1  0.13302308  0.24230443  0.49182921  1
  O  O228  1  0.12266401  0.23650833  0.99108116  1
  O  O229  1  0.13640571  0.74594253  0.49113648  1
  O  O230  1  0.12486238  0.73443070  0.99903225  1
  O  O231  1  0.62359337  0.25015840  0.48781135  1
  O  O232  1  0.62937217  0.24499925  0.99668290  1
  O  O233  1  0.64805059  0.76268602  0.48705425  1
  O  O234  1  0.62534078  0.74024868  0.99353238  1
  O  O235  1  0.49211801  0.24547269  0.13312435  1
  O  O236  1  0.49012741  0.24577896  0.63028524  1
  O  O237  1  0.49231103  0.74991366  0.13225648  1
  O  O238  1  0.49427090  0.76211730  0.65288378  1
  O  O239  1  0.99449441  0.24053090  0.13386952  1
  O  O240  1  0.97397131  0.23593656  0.57276329  1
  O  O241  1  0.98992526  0.75721179  0.12619750  1
  O  O242  1  0.98931750  0.74362031  0.61505230  1
  O  O243  1  0.00876762  0.24888018  0.37131393  1
  O  O244  1  0.00407827  0.26314300  0.87855808  1
  O  O245  1  0.01100009  0.75952029  0.38136219  1
  O  O246  1  0.00218329  0.76376871  0.87798425  1
  O  O247  1  0.50548906  0.25593109  0.37013683  1
  O  O248  1  0.50366672  0.25747430  0.87615052  1
  O  O249  1  0.51150171  0.75704933  0.36562537  1
  O  O250  1  0.50519649  0.75583790  0.87045039  1
  O  O251  1  0.24564267  0.12990659  0.48994831  1
  O  O252  1  0.24019881  0.12684552  0.98701848  1
  O  O253  1  0.24299849  0.63142943  0.49356842  1
  O  O254  1  0.23607304  0.62093496  0.99310795  1
  O  O255  1  0.74942862  0.12173062  0.48506068  1
  O  O256  1  0.74341936  0.12912703  0.99427557  1
  O  O257  1  0.75657663  0.63897328  0.50504781  1
  O  O258  1  0.73978186  0.62480510  1.00591748  1
  O  O259  1  0.25167437  0.37282058  -0.00173823  1
  O  O260  1  0.25634577  0.37137077  0.50740894  1
  O  O261  1  0.25906500  0.87467936  -0.00597754  1
  O  O262  1  0.25279520  0.86927474  0.50699618  1
  O  O263  1  0.75526952  0.36810081  0.00907058  1
  O  O264  1  0.75819531  0.38658693  0.50980732  1
  O  O265  1  0.74744103  0.87536113  0.01386971  1
  O  O266  1  0.76186779  0.87068261  0.50537225  1
  O  O267  1  0.14246483  0.49891674  0.25965033  1
  O  O268  1  0.12992900  0.49956310  0.75070511  1
  O  O269  1  0.13353841  0.99991869  0.23988948  1
  O  O270  1  0.13682248  0.99046717  0.74885393  1
  O  O271  1  0.63120754  0.49666897  0.24627092  1
  O  O272  1  0.62594772  0.48622896  0.74952067  1
  O  O273  1  0.63400560  0.99200564  0.24554682  1
  O  O274  1  0.63330493  0.98991355  0.74468630  1
  O  O275  1  0.36781018  -0.00334181  0.25848771  1
  O  O276  1  0.36130243  -0.00689632  0.76118314  1
  O  O277  1  0.36721899  0.49774821  0.26638789  1
  O  O278  1  0.37307199  0.49748471  0.76073881  1
  O  O279  1  0.86953403  -0.00258624  0.25707740  1
  O  O280  1  0.86025165  0.00641888  0.75098766  1
  O  O281  1  0.87013882  0.51263344  0.25447450  1
  O  O282  1  0.87353244  0.51764152  0.74750837  1
  O  O283  1  0.12616597  0.36131695  0.37578964  1
  O  O284  1  0.10815338  0.36657916  0.87454100  1
  O  O285  1  0.11921895  0.86728256  0.37452610  1
  O  O286  1  0.11643060  0.87291147  0.86714615  1
  O  O287  1  0.61949144  0.37143668  0.37321700  1
  O  O288  1  0.61793861  0.36966450  0.87018280  1
  O  O289  1  0.63091390  0.86887990  0.36072643  1
  O  O290  1  0.61598492  0.86797616  0.87166869  1
  O  O291  1  0.38923970  0.13051996  0.12039880  1
  O  O292  1  0.38312872  0.13582212  0.62120676  1
  O  O293  1  0.37904742  0.64404755  0.11879011  1
  O  O294  1  0.38057805  0.62790410  0.61947264  1
  O  O295  1  0.88659785  0.12923888  0.12260467  1
  O  O296  1  0.86520117  0.12235863  0.64092384  1
  O  O297  1  0.87639156  0.63635579  0.13794104  1
  O  O298  1  0.88258366  0.63243145  0.63202047  1
  O  O299  1  0.26394496  0.23803461  0.12764820  1
  O  O300  1  0.25641478  0.25700479  0.62050399  1
  O  O301  1  0.26340255  0.75055514  0.12492087  1
  O  O302  1  0.25152081  0.75741782  0.61749863  1
  O  O303  1  0.75403964  0.25236536  0.12519751  1
  O  O304  1  0.75105138  0.26169212  0.62518799  1
  O  O305  1  0.75896940  0.75794921  0.12280084  1
  O  O306  1  0.75777667  0.75722326  0.61530875  1
  O  O307  1  0.24718222  0.24413150  0.37675790  1
  O  O308  1  0.24037191  0.24390041  0.87304006  1
  O  O309  1  0.24723697  0.74467620  0.37978896  1
  O  O310  1  0.24599653  0.73971370  0.87870652  1
  O  O311  1  0.73845571  0.23992829  0.35941007  1
  O  O312  1  0.74309990  0.24404321  0.88179775  1
  O  O313  1  0.75028113  0.75102605  0.38382277  1
  O  O314  1  0.73801554  0.75863601  0.87874343  1
  O  O315  1  0.00406749  0.11850627  0.00423120  1
  O  O316  1  0.01642893  0.10752264  0.48402032  1
  O  O317  1  0.01254147  0.60965152  -0.00283013  1
  O  O318  1  0.00722582  0.62167204  0.50701949  1
  O  O319  1  0.50821824  0.12352477  0.00925703  1
  O  O320  1  0.50108004  0.13182101  0.51883109  1
  O  O321  1  0.50682360  0.61323553  -0.00076771  1
  O  O322  1  0.51915870  0.67290473  0.51376993  1
  O  O323  1  0.49222982  0.37008205  0.48979725  1
  O  O324  1  0.50176965  0.38586480  0.98952530  1
  O  O325  1  0.48790524  0.86523853  0.50331874  1
  O  O326  1  0.49440504  0.87619192  0.98931773  1
  O  O327  1  0.98989200  0.38706932  0.49609707  1
  O  O328  1  0.99564431  0.38363784  0.99937228  1
  O  O329  1  0.99785292  0.88192697  0.48919475  1
  O  O330  1  1.00550661  0.88394407  0.98420179  1
  O  O331  1  0.49370215  0.49238261  0.37379860  1
  O  O332  1  0.49254905  0.49500168  0.87984523  1
  O  O333  1  0.48907014  0.99871885  0.36807686  1
  O  O334  1  0.49147780  0.99467972  0.87541572  1
  O  O335  1  0.99259231  0.50395884  0.38617026  1
  O  O336  1  0.99409824  0.48533263  0.88268642  1
  O  O337  1  0.99705508  0.99299304  0.37805621  1
  O  O338  1  0.99769229  0.99206796  0.88285723  1
  O  O339  1  0.00500646  0.00532656  0.11842419  1
  O  O340  1  0.00127207  -0.00744383  0.61117555  1
  O  O341  1  -0.00004057  0.49384444  0.11607975  1
  O  O342  1  -0.00491766  0.51098069  0.61153751  1
  O  O343  1  0.50648756  0.00788600  0.12787971  1
  O  O344  1  0.49356107  0.01015059  0.63119849  1
  O  O345  1  0.50234134  0.49954168  0.11804451  1
  O  O346  1  0.51719276  0.49643114  0.62706702  1
  O  O347  1  0.24994109  0.39108634  0.25353769  1
  O  O348  1  0.24866662  0.38991996  0.74193919  1
  O  O349  1  0.24579800  0.88963652  0.25360395  1
  O  O350  1  0.24424490  0.88040652  0.74397267  1
  O  O351  1  0.74512207  0.38403815  0.24593884  1
  O  O352  1  0.74333813  0.37393918  0.74192319  1
  O  O353  1  0.74660910  0.88393591  0.24118974  1
  O  O354  1  0.74473242  0.87890595  0.74034241  1
  O  O355  1  0.24582989  0.11740864  0.26188843  1
  O  O356  1  0.24551756  0.11705202  0.76140970  1
  O  O357  1  0.25014171  0.61637326  0.26450763  1
  O  O358  1  0.24454722  0.61041542  0.75590616  1
  O  O359  1  0.74564416  0.11114593  0.25859085  1
  O  O360  1  0.74568660  0.11558121  0.75413755  1
  O  O361  1  0.75564940  0.61636245  0.24315663  1
  O  O362  1  0.76468762  0.62796098  0.74682127  1
  O  O363  1  0.36832035  0.11814799  0.38218771  1
  O  O364  1  0.36712732  0.11483698  0.88126994  1
  O  O365  1  0.36841235  0.61833755  0.38476406  1
  O  O366  1  0.35892983  0.61619104  0.88386928  1
  O  O367  1  0.87283523  0.11654687  0.37990649  1
  O  O368  1  0.86449594  0.12148592  0.86474567  1
  O  O369  1  0.87825133  0.62022997  0.36224369  1
  O  O370  1  0.88563332  0.62912591  0.85930970  1
  O  O371  1  0.13629281  0.36000111  0.13048570  1
  O  O372  1  0.13409185  0.36736136  0.61804013  1
  O  O373  1  0.12194830  0.88994835  0.12081116  1
  O  O374  1  0.13489513  0.87709820  0.62968544  1
  O  O375  1  0.62819371  0.38070140  0.13143476  1
  O  O376  1  0.62970294  0.37899599  0.63151708  1
  O  O377  1  0.63288963  0.87771446  0.13350664  1
  O  O378  1  0.63170017  0.86705518  0.62913919  1
  O  O379  1  0.11358894  0.24685627  0.25961332  1
  O  O380  1  0.12005461  0.24258991  0.75888880  1
  O  O381  1  0.13235611  0.75046233  0.26215737  1
  O  O382  1  0.12840919  0.76291247  0.75001804  1
  O  O383  1  0.61345890  0.25859528  0.25682916  1
  O  O384  1  0.62286257  0.26103105  0.75672426  1
  O  O385  1  0.62266933  0.75570328  0.25402015  1
  O  O386  1  0.61755961  0.75268147  0.75915690  1
  O  O387  1  0.38769741  0.25448613  0.24565263  1
  O  O388  1  0.37158205  0.25600525  0.73917132  1
  O  O389  1  0.38276607  0.76006643  0.23794615  1
  O  O390  1  0.38577196  0.75132980  0.75899268  1
  O  O391  1  0.88659899  0.25300688  0.24888833  1
  O  O392  1  0.87263984  0.23190456  0.75065341  1
  O  O393  1  0.87462739  0.73748830  0.24370568  1
  O  O394  1  0.87450573  0.74078681  0.73847629  1
  O  O395  1  0.36874616  0.48794880  0.49152229  1
  O  O396  1  0.38234132  0.49870980  0.99195089  1
  O  O397  1  0.36874623  0.98936302  0.48942016  1
  O  O398  1  0.37633268  0.99392739  0.99419432  1
  O  O399  1  0.87937371  0.50100920  0.49278881  1
  O  O400  1  0.88790453  0.49568619  1.00305985  1
  O  O401  1  0.88445861  0.99609025  0.49143196  1
  O  O402  1  0.88667435  1.00239600  0.99811000  1
  O  O403  1  0.11732912  0.01084221  0.00382594  1
  O  O404  1  0.12154184  0.00518251  0.50019066  1
  O  O405  1  0.11366829  0.50614398  -0.00153514  1
  O  O406  1  0.11675871  0.51163145  0.49310552  1
  O  O407  1  0.62292814  0.00583658  0.00868711  1
  O  O408  1  0.62428066  -0.00018172  0.49654134  1
  O  O409  1  0.61808066  0.50493231  0.00437867  1
  O  O410  1  0.62716993  0.50172769  0.51355064  1
  O  O411  1  0.36936015  0.36506082  0.12428855  1
  O  O412  1  0.36990893  0.37047075  0.61935285  1
  O  O413  1  0.38159942  0.86555386  0.11440390  1
  O  O414  1  0.36305547  0.87204536  0.61945847  1
  O  O415  1  0.86959999  0.36703841  0.12112246  1
  O  O416  1  0.86699682  0.37228405  0.61482590  1
  O  O417  1  0.86946991  0.85976220  0.13256473  1
  O  O418  1  0.86993205  0.86689771  0.62025440  1
  O  O419  1  0.13633172  0.13340963  0.38147817  1
  O  O420  1  0.12876243  0.12925850  0.87927795  1
  O  O421  1  0.13280892  0.63348843  0.38470257  1
  O  O422  1  0.13309126  0.62380971  0.88148978  1
  O  O423  1  0.63321770  0.13404000  0.37601523  1
  O  O424  1  0.62861314  0.12883512  0.87973823  1
  O  O425  1  0.62887929  0.63639234  0.37057555  1
  O  O426  1  0.62194874  0.63396974  0.88422074  1
