# generated using pymatgen
data_V85Zn86O256
_symmetry_space_group_name_H-M   'P 1'
_cell_length_a   16.91870113
_cell_length_b   16.92606824
_cell_length_c   16.92488114
_cell_angle_alpha   89.99386814
_cell_angle_beta   90.01776897
_cell_angle_gamma   90.03039160
_symmetry_Int_Tables_number   1
_chemical_formula_structural   V85Zn86O256
_chemical_formula_sum   'V85 Zn86 O256'
_cell_volume   4846.72801651
_cell_formula_units_Z   1
loop_
 _symmetry_equiv_pos_site_id
 _symmetry_equiv_pos_as_xyz
  1  'x, y, z'
loop_
 _atom_site_type_symbol
 _atom_site_label
 _atom_site_symmetry_multiplicity
 _atom_site_fract_x
 _atom_site_fract_y
 _atom_site_fract_z
 _atom_site_occupancy
  V  V0  1  0.74697634  0.36493744  0.12333505  1
  V  V1  1  0.74816854  0.87530737  0.12488685  1
  V  V2  1  0.38660883  0.87818960  0.00236068  1
  V  V3  1  0.00146312  0.37392516  0.37584505  1
  V  V4  1  0.87482226  0.00078705  0.87417022  1
  V  V5  1  0.50646690  0.25085974  0.75446892  1
  V  V6  1  0.25688185  0.12466030  0.37443872  1
  V  V7  1  0.49924096  0.12867204  0.62353950  1
  V  V8  1  0.24655257  0.24436920  0.50376346  1
  V  V9  1  0.50284645  0.38105749  0.88261954  1
  V  V10  1  0.00150311  -0.00058797  -0.00096863  1
  V  V11  1  0.12479563  -0.00616660  0.61334716  1
  V  V12  1  -0.00299391  0.62701516  0.13929661  1
  V  V13  1  -0.00255713  0.49636914  0.00306480  1
  V  V14  1  0.87690498  0.24985131  0.63179265  1
  V  V15  1  0.37506920  0.74873479  0.12537416  1
  V  V16  1  0.12251064  0.86894600  0.24861474  1
  V  V17  1  0.74880465  0.37654300  0.62431265  1
  V  V18  1  0.74776153  0.50435458  0.75071831  1
  V  V19  1  0.25093470  0.87470920  0.12421858  1
  V  V20  1  -0.00124163  0.12643969  0.12614327  1
  V  V21  1  0.37212480  0.49835042  0.88133924  1
  V  V22  1  0.24740342  0.62024939  0.87037318  1
  V  V23  1  0.49836757  0.62961843  0.62935746  1
  V  V24  1  0.62286267  0.49445803  0.12480762  1
  V  V25  1  0.87711036  0.74310362  0.13456882  1
  V  V26  1  0.49916288  -0.00728303  0.49752397  1
  V  V27  1  -0.00568476  0.88101593  0.37232260  1
  V  V28  1  0.37432063  0.49927919  0.36672276  1
  V  V29  1  0.37510803  0.37412020  0.49491237  1
  V  V30  1  0.87741187  0.12260303  0.25873329  1
  V  V31  1  0.62178380  0.36568202  0.26436025  1
  V  V32  1  0.87716524  0.87122237  -0.00072704  1
  V  V33  1  0.88037000  0.74828831  0.62068387  1
  V  V34  1  0.12866373  0.50132100  0.64372822  1
  V  V35  1  0.75367134  0.62665857  0.36460466  1
  V  V36  1  0.25482790  0.00411678  0.24923312  1
  V  V37  1  0.00353502  0.50994086  0.50504438  1
  V  V38  1  0.38303794  0.00221776  0.87992740  1
  V  V39  1  0.90235297  0.47663004  0.85098101  1
  V  V40  1  0.75261598  0.74624398  -0.00210081  1
  V  V41  1  0.24728878  0.61985292  0.37252605  1
  V  V42  1  0.61967398  0.50018037  0.62471874  1
  V  V43  1  0.49069945  0.24289457  0.26283319  1
  V  V44  1  0.37669270  -0.00993650  0.37535128  1
  V  V45  1  0.74206230  0.25166044  0.49677266  1
  V  V46  1  0.62528862  0.00335123  0.62310161  1
  V  V47  1  0.87780353  0.50466244  0.36519905  1
  V  V48  1  0.62171606  0.75203817  0.37237487  1
  V  V49  1  0.12402084  0.62573741  0.00242008  1
  V  V50  1  0.75214008  -0.00022346  0.25574992  1
  V  V51  1  0.12513560  0.13054775  -0.00424849  1
  V  V52  1  0.61871156  0.87206226  0.74949311  1
  V  V53  1  0.74728720  0.12689563  0.89077989  1
  V  V54  1  0.61956965  0.01092364  0.11483649  1
  V  V55  1  0.61744209  0.87894099  0.25277148  1
  V  V56  1  0.87301033  0.36775431  0.00095094  1
  V  V57  1  0.87533168  0.37609080  0.49754894  1
  V  V58  1  0.62407179  0.61727417  -0.00083247  1
  V  V59  1  0.62341416  0.62516574  0.49667756  1
  V  V60  1  0.23907638  -0.00575446  0.75458173  1
  V  V61  1  0.62813852  0.24623325  0.89353670  1
  V  V62  1  0.49823246  0.61942831  0.12179225  1
  V  V63  1  0.13051534  0.37603809  0.25434922  1
  V  V64  1  0.49651063  0.75089234  0.25408325  1
  V  V65  1  0.36871325  0.26492476  0.63726059  1
  V  V66  1  0.01059047  0.13380160  0.62479896  1
  V  V67  1  0.75137221  0.87638973  0.62326379  1
  V  V68  1  0.37757513  0.62783576  0.75307753  1
  V  V69  1  0.12530432  0.75800142  0.87311727  1
  V  V70  1  0.11652124  0.26944648  0.86212650  1
  V  V71  1  0.87936416  0.62892439  0.74837436  1
  V  V72  1  0.49820579  0.49463301  0.49376672  1
  V  V73  1  0.74971991  0.75089293  0.49831656  1
  V  V74  1  0.75148124  0.00469934  0.74950825  1
  V  V75  1  0.61903673  0.74742230  0.87253324  1
  V  V76  1  0.48561283  0.13135193  0.11869874  1
  V  V77  1  0.74454548  0.12773171  0.37546032  1
  V  V78  1  0.37885143  0.37087375  0.00716843  1
  V  V79  1  0.12218951  0.23939981  0.37909295  1
  V  V80  1  0.12136478  0.74969519  0.37869203  1
  V  V81  1  0.37356342  0.12261155  0.75125865  1
  V  V82  1  0.25405437  0.36642788  0.12921506  1
  V  V83  1  0.13307228  0.49989980  0.13136989  1
  V  V84  1  0.00498476  0.75690470  0.74553283  1
  Zn  Zn85  1  0.25018812  0.25031828  0.00005031  1
  Zn  Zn86  1  0.24906432  0.13034037  0.87675606  1
  Zn  Zn87  1  0.50093966  0.87537038  0.87511320  1
  Zn  Zn88  1  0.24774830  0.86526656  0.63043503  1
  Zn  Zn89  1  0.00426240  0.87817527  0.87054916  1
  Zn  Zn90  1  -0.00723346  0.00804590  0.49385016  1
  Zn  Zn91  1  0.25067527  0.74947286  -0.00048724  1
  Zn  Zn92  1  0.37712649  0.75514817  0.63213342  1
  Zn  Zn93  1  0.75085294  0.49864576  0.24743475  1
  Zn  Zn94  1  0.23429958  0.37394858  0.63407190  1
  Zn  Zn95  1  -0.00177199  0.25036816  0.25063622  1
  Zn  Zn96  1  0.86998303  0.24557018  0.12324561  1
  Zn  Zn97  1  0.87317508  0.88036221  0.49346323  1
  Zn  Zn98  1  0.61931094  0.13149211  0.49372210  1
  Zn  Zn99  1  0.25606562  0.74754057  0.50751579  1
  Zn  Zn100  1  0.87931515  0.13083757  0.75250659  1
  Zn  Zn101  1  0.12613695  0.00047578  0.12495219  1
  Zn  Zn102  1  0.75629843  0.62046937  0.87627730  1
  Zn  Zn103  1  0.37119814  0.87245105  0.50744525  1
  Zn  Zn104  1  0.62395076  0.37566632  0.75305616  1
  Zn  Zn105  1  0.12633940  0.62721135  0.50901710  1
  Zn  Zn106  1  0.36915001  0.61938339  0.24533751  1
  Zn  Zn107  1  0.18481308  0.18689033  0.18947996  1
  Zn  Zn108  1  0.18516871  0.18610636  0.69258247  1
  Zn  Zn109  1  0.18791882  0.68762711  0.19076951  1
  Zn  Zn110  1  0.18675099  0.68094952  0.68826145  1
  Zn  Zn111  1  0.68396819  0.18760768  0.18987684  1
  Zn  Zn112  1  0.68851717  0.18747643  0.68790450  1
  Zn  Zn113  1  0.68593713  0.68775907  0.18497765  1
  Zn  Zn114  1  0.68834849  0.68797156  0.68668853  1
  Zn  Zn115  1  0.31199744  0.31258997  0.31401725  1
  Zn  Zn116  1  0.30910863  0.31087771  0.81758378  1
  Zn  Zn117  1  0.30891971  0.80927927  0.31453814  1
  Zn  Zn118  1  0.31315094  0.81138236  0.81460162  1
  Zn  Zn119  1  0.81196582  0.31099699  0.30996951  1
  Zn  Zn120  1  0.80710090  0.31213402  0.81230982  1
  Zn  Zn121  1  0.80999687  0.81297177  0.30974813  1
  Zn  Zn122  1  0.81048527  0.81475151  0.81190284  1
  Zn  Zn123  1  0.19006241  0.43521455  0.44154079  1
  Zn  Zn124  1  0.18790662  0.43715485  0.94248251  1
  Zn  Zn125  1  0.19086354  0.93171161  0.43921582  1
  Zn  Zn126  1  0.19148815  0.94022479  0.93936521  1
  Zn  Zn127  1  0.68984700  0.44097413  0.43698142  1
  Zn  Zn128  1  0.69207398  0.43550832  0.93651472  1
  Zn  Zn129  1  0.68572947  0.93978404  0.43582738  1
  Zn  Zn130  1  0.68795661  0.93626161  0.93672295  1
  Zn  Zn131  1  0.31231925  0.06295097  0.06158123  1
  Zn  Zn132  1  0.31131488  0.06363752  0.56455613  1
  Zn  Zn133  1  0.31144880  0.55670164  0.05939965  1
  Zn  Zn134  1  0.30876862  0.56223070  0.56315377  1
  Zn  Zn135  1  0.81431193  0.05897629  0.06853987  1
  Zn  Zn136  1  0.81773094  0.06534403  0.55947020  1
  Zn  Zn137  1  0.81356121  0.55618222  0.06121291  1
  Zn  Zn138  1  0.81341119  0.56545225  0.55900787  1
  Zn  Zn139  1  0.44333417  0.43093859  0.19004376  1
  Zn  Zn140  1  0.41380622  0.42838628  0.70065858  1
  Zn  Zn141  1  0.43855765  0.94266652  0.18733469  1
  Zn  Zn142  1  0.43665884  0.94037256  0.68773519  1
  Zn  Zn143  1  0.94108317  0.43493054  0.18592686  1
  Zn  Zn144  1  0.93841663  0.43928297  0.67994639  1
  Zn  Zn145  1  0.93701898  0.93684660  0.18733370  1
  Zn  Zn146  1  0.93932352  0.93839815  0.68314079  1
  Zn  Zn147  1  0.06844830  0.05859807  0.31040623  1
  Zn  Zn148  1  0.05929927  0.07025718  0.81105491  1
  Zn  Zn149  1  0.06459220  0.56083580  0.31491950  1
  Zn  Zn150  1  0.06031993  0.56926071  0.81190659  1
  Zn  Zn151  1  0.55953309  0.06523954  0.31098833  1
  Zn  Zn152  1  0.56539907  0.06329006  0.81469252  1
  Zn  Zn153  1  0.56191858  0.56089062  0.30843984  1
  Zn  Zn154  1  0.56004107  0.56166652  0.81375773  1
  Zn  Zn155  1  0.43245449  0.18631069  0.43814032  1
  Zn  Zn156  1  0.43858406  0.18978470  0.94095508  1
  Zn  Zn157  1  0.43376578  0.68613474  0.43976071  1
  Zn  Zn158  1  0.43764926  0.68834855  0.94040505  1
  Zn  Zn159  1  0.93348905  0.18651120  0.44293861  1
  Zn  Zn160  1  0.93997270  0.18992743  0.93353691  1
  Zn  Zn161  1  0.93830212  0.69219941  0.43097265  1
  Zn  Zn162  1  0.94026676  0.68099963  0.93491677  1
  Zn  Zn163  1  0.06269708  0.31183360  0.06139338  1
  Zn  Zn164  1  0.06283911  0.31664191  0.56290342  1
  Zn  Zn165  1  0.06141307  0.80999586  0.06322266  1
  Zn  Zn166  1  0.06337233  0.81530478  0.55889843  1
  Zn  Zn167  1  0.55822551  0.30743279  0.06793252  1
  Zn  Zn168  1  0.55723231  0.31727816  0.56133043  1
  Zn  Zn169  1  0.56515749  0.80911098  0.06620648  1
  Zn  Zn170  1  0.56163059  0.81169652  0.56358480  1
  O  O171  1  0.11735933  0.12308547  0.11520256  1
  O  O172  1  0.11527208  0.11887102  0.62714363  1
  O  O173  1  0.12130623  0.61914861  0.12180114  1
  O  O174  1  0.12244446  0.60780777  0.62451982  1
  O  O175  1  0.62582615  0.11304646  0.12497076  1
  O  O176  1  0.61600760  0.12122299  0.62326149  1
  O  O177  1  0.61983146  0.61701069  0.11852704  1
  O  O178  1  0.62088896  0.61724016  0.61948943  1
  O  O179  1  0.36879803  0.38449344  0.38552250  1
  O  O180  1  0.38186345  0.38122023  0.88335191  1
  O  O181  1  0.36870698  0.88696392  0.37887647  1
  O  O182  1  0.37780593  0.88051833  0.88453519  1
  O  O183  1  0.87953207  0.38245604  0.37914949  1
  O  O184  1  0.85968192  0.38011387  0.88867230  1
  O  O185  1  0.89143660  0.86786026  0.36897411  1
  O  O186  1  0.87465266  0.88267587  0.88301303  1
  O  O187  1  0.25375580  0.00580159  0.36999101  1
  O  O188  1  0.25812735  0.00298349  0.86572036  1
  O  O189  1  0.25634059  0.51075107  0.37997574  1
  O  O190  1  0.25830039  0.50806816  0.88400367  1
  O  O191  1  0.74772660  0.00597184  0.36248785  1
  O  O192  1  0.75349571  0.00571086  0.86821897  1
  O  O193  1  0.76019745  0.50933297  0.37440958  1
  O  O194  1  0.75508263  0.49823743  0.85810483  1
  O  O195  1  0.23737603  0.49295360  0.12437876  1
  O  O196  1  0.23349038  0.49592317  0.62403894  1
  O  O197  1  0.24927755  0.99306285  0.13270296  1
  O  O198  1  0.23651038  1.00545259  0.63654440  1
  O  O199  1  0.73843187  0.49415208  0.12821669  1
  O  O200  1  0.74080880  0.49867954  0.62908502  1
  O  O201  1  0.73933818  0.99605710  0.13464139  1
  O  O202  1  0.74479570  0.99734310  0.63146092  1
  O  O203  1  0.01010222  0.37241240  0.25744955  1
  O  O204  1  -0.03590935  0.42272070  0.78793852  1
  O  O205  1  0.01028107  0.88076162  0.25786398  1
  O  O206  1  -0.00526948  0.86165987  0.75305708  1
  O  O207  1  0.51406713  0.36054890  0.24764248  1
  O  O208  1  0.49895990  0.36507806  0.76103898  1
  O  O209  1  0.50675405  0.86542264  0.24395640  1
  O  O210  1  0.51536127  0.87961407  0.75004556  1
  O  O211  1  0.50605177  0.13709186  0.24092265  1
  O  O212  1  0.49646153  0.12729697  0.74068497  1
  O  O213  1  0.49933604  0.63142447  0.23648198  1
  O  O214  1  0.49298477  0.61904572  0.74129686  1
  O  O215  1  0.99447401  0.12130038  0.24418351  1
  O  O216  1  0.99534952  0.12193257  0.73150790  1
  O  O217  1  1.00337145  0.62175038  0.23873403  1
  O  O218  1  0.98631933  0.63699709  0.75036885  1
  O  O219  1  0.36966767  0.26580448  -0.00501417  1
  O  O220  1  0.36696822  0.25712838  0.50632140  1
  O  O221  1  0.37219953  0.75870484  0.00739028  1
  O  O222  1  0.37790492  0.75303002  0.50877660  1
  O  O223  1  0.88065118  0.26322901  0.00259088  1
  O  O224  1  0.86474414  0.25741262  0.50954240  1
  O  O225  1  0.86831264  0.75112111  0.00157204  1
  O  O226  1  0.86986830  0.75453048  0.50500283  1
  O  O227  1  0.13461703  0.25773069  0.49082481  1
  O  O228  1  0.12660475  0.24365163  0.99454894  1
  O  O229  1  0.12573405  0.74532367  0.49224448  1
  O  O230  1  0.12579600  0.74101027  0.99390812  1
  O  O231  1  0.63771682  0.25189158  0.50727503  1
  O  O232  1  0.62676980  0.25337451  0.99220202  1
  O  O233  1  0.62781596  0.74593590  0.49164227  1
  O  O234  1  0.63352344  0.73969756  0.99666975  1
  O  O235  1  0.50292965  0.23657526  0.13680762  1
  O  O236  1  0.49538185  0.24585789  0.63479635  1
  O  O237  1  0.49513405  0.74170255  0.13365360  1
  O  O238  1  0.50342781  0.73313052  0.62426927  1
  O  O239  1  1.00007500  0.23573931  0.12687486  1
  O  O240  1  0.99449946  0.24218160  0.62077830  1
  O  O241  1  0.98961757  0.74016157  0.12121850  1
  O  O242  1  0.99192239  0.75548988  0.63045603  1
  O  O243  1  0.00682243  0.25434368  0.37841461  1
  O  O244  1  0.01723809  0.24762331  0.87471870  1
  O  O245  1  0.01319959  0.75902155  0.37338162  1
  O  O246  1  0.00839804  0.75044911  0.86807299  1
  O  O247  1  0.50162142  0.23827793  0.36371039  1
  O  O248  1  0.50931088  0.25601640  0.87147303  1
  O  O249  1  0.50405918  0.74021586  0.36060931  1
  O  O250  1  0.51529250  0.75193057  0.88114622  1
  O  O251  1  0.25304219  0.13635952  0.49284848  1
  O  O252  1  0.23941630  0.12712284  1.00006756  1
  O  O253  1  0.24736025  0.62632313  0.48770441  1
  O  O254  1  0.23740728  0.62471447  0.99630267  1
  O  O255  1  0.74921580  0.13441328  0.49245069  1
  O  O256  1  0.75557921  0.11822228  0.98980100  1
  O  O257  1  0.74290090  0.63157955  0.49011513  1
  O  O258  1  0.74435938  0.62977181  0.99777829  1
  O  O259  1  0.25805176  0.37567030  0.01278744  1
  O  O260  1  0.25951219  0.36539254  0.50660177  1
  O  O261  1  0.25627577  0.87558783  0.01345848  1
  O  O262  1  0.25112571  0.86896297  0.50914133  1
  O  O263  1  0.75910648  0.38254100  0.01307863  1
  O  O264  1  0.75536399  0.37152180  0.50430682  1
  O  O265  1  0.75483745  0.86620467  0.00562674  1
  O  O266  1  0.74813510  0.86776893  0.50405863  1
  O  O267  1  0.11988876  0.48931476  0.24307556  1
  O  O268  1  0.11998277  0.50125929  0.74292407  1
  O  O269  1  0.13805402  0.98787330  0.24815245  1
  O  O270  1  0.13709672  1.00578962  0.74914681  1
  O  O271  1  0.62441781  0.48701458  0.24217406  1
  O  O272  1  0.63045952  0.50105966  0.74139765  1
  O  O273  1  0.62946839  0.99356633  0.24408563  1
  O  O274  1  0.63246003  0.99411231  0.74450647  1
  O  O275  1  0.36338715  -0.00503913  0.25849021  1
  O  O276  1  0.36818384  0.00980568  0.75598214  1
  O  O277  1  0.38167690  0.49838124  0.26296430  1
  O  O278  1  0.37926765  0.51138759  0.77083546  1
  O  O279  1  0.86332386  0.00797694  0.24271149  1
  O  O280  1  0.86674194  -0.00110287  0.75528394  1
  O  O281  1  0.87486466  0.49538351  0.26214597  1
  O  O282  1  0.86243727  0.51427992  0.73929361  1
  O  O283  1  0.12255393  0.36771688  0.37014096  1
  O  O284  1  0.12433837  0.36897260  0.87824157  1
  O  O285  1  0.12038891  0.86807502  0.36750448  1
  O  O286  1  0.12675882  0.86144852  0.88211329  1
  O  O287  1  0.62933338  0.37875850  0.36218508  1
  O  O288  1  0.61952464  0.36824388  0.87467520  1
  O  O289  1  0.62825219  0.86906394  0.36079010  1
  O  O290  1  0.62491409  0.86725481  0.86798284  1
  O  O291  1  0.38640361  0.11964678  0.12746424  1
  O  O292  1  0.37986703  0.13464078  0.63476228  1
  O  O293  1  0.38142417  0.62593419  0.12400229  1
  O  O294  1  0.38295396  0.61779772  0.63692549  1
  O  O295  1  0.88180293  0.12555553  0.13481103  1
  O  O296  1  0.88122651  0.13636102  0.62878868  1
  O  O297  1  0.88445305  0.63028166  0.11821381  1
  O  O298  1  0.86792524  0.64062176  0.62996089  1
  O  O299  1  0.24463011  0.26315002  0.12577952  1
  O  O300  1  0.25089527  0.24783436  0.61754030  1
  O  O301  1  0.25734599  0.75686382  0.12487441  1
  O  O302  1  0.25530614  0.74670770  0.62903508  1
  O  O303  1  0.74880448  0.26104152  0.12724574  1
  O  O304  1  0.75613786  0.25679081  0.61984958  1
  O  O305  1  0.75375797  0.75222370  0.11349908  1
  O  O306  1  0.75427899  0.75640973  0.61690458  1
  O  O307  1  0.24469103  0.24181182  0.38073108  1
  O  O308  1  0.23683971  0.24962415  0.87872160  1
  O  O309  1  0.23982829  0.73991202  0.37741256  1
  O  O310  1  0.24234521  0.74146310  0.87814080  1
  O  O311  1  0.75551655  0.24189962  0.38502399  1
  O  O312  1  0.73922796  0.23849873  0.86905437  1
  O  O313  1  0.74464697  0.74440084  0.37830924  1
  O  O314  1  0.74347641  0.74841158  0.88594470  1
  O  O315  1  0.00271176  0.11769922  0.00678617  1
  O  O316  1  -0.00515741  0.12380991  0.51782311  1
  O  O317  1  0.01144007  0.62086866  0.00998565  1
  O  O318  1  -0.00107265  0.61169654  0.49353836  1
  O  O319  1  0.49850822  0.13072544  0.01803276  1
  O  O320  1  0.49826040  0.12236820  0.51245504  1
  O  O321  1  0.50928582  0.63013134  0.01322976  1
  O  O322  1  0.50547960  0.61489440  0.50683172  1
  O  O323  1  0.50135438  0.38899045  0.48896003  1
  O  O324  1  0.49319719  0.37012818  0.99481834  1
  O  O325  1  0.50025493  0.88997108  0.50536280  1
  O  O326  1  0.48985939  0.87202415  1.00343230  1
  O  O327  1  0.99343180  0.38394520  0.49314471  1
  O  O328  1  0.98959587  0.38632223  1.01126216  1
  O  O329  1  1.00059077  0.87697637  0.48225361  1
  O  O330  1  0.99567488  0.88334779  0.99885065  1
  O  O331  1  0.48859827  0.51168148  0.38326276  1
  O  O332  1  0.49742670  0.48614739  0.87609063  1
  O  O333  1  0.48946620  1.00928154  0.38492448  1
  O  O334  1  0.48759012  0.99764114  0.86993715  1
  O  O335  1  0.99383814  0.49520316  0.38284891  1
  O  O336  1  1.00113649  0.51590202  0.89662561  1
  O  O337  1  1.00760368  0.98567467  0.37518272  1
  O  O338  1  0.99418297  0.99993222  0.88140808  1
  O  O339  1  0.00121885  0.00905885  0.11734161  1
  O  O340  1  0.01426796  0.00703559  0.62508005  1
  O  O341  1  0.00693997  0.50763246  0.11950975  1
  O  O342  1  0.00749700  0.49909699  0.61081161  1
  O  O343  1  0.51226250  0.01364493  0.13286268  1
  O  O344  1  0.50447672  0.01068957  0.61938506  1
  O  O345  1  0.51280035  0.50551260  0.12824165  1
  O  O346  1  0.50979000  0.50706292  0.61760778  1
  O  O347  1  0.23877578  0.37260437  0.24643295  1
  O  O348  1  0.31465084  0.35454111  0.71376850  1
  O  O349  1  0.24622009  0.87933935  0.23978676  1
  O  O350  1  0.25339864  0.89158366  0.75198681  1
  O  O351  1  0.73887972  0.37564923  0.24313226  1
  O  O352  1  0.74690280  0.38566590  0.74057888  1
  O  O353  1  0.74276585  0.88246013  0.24413557  1
  O  O354  1  0.74202419  0.88578117  0.74516028  1
  O  O355  1  0.24381325  0.11494018  0.25870918  1
  O  O356  1  0.25916654  0.11698341  0.75358894  1
  O  O357  1  0.25073301  0.62598738  0.26581424  1
  O  O358  1  0.25645719  0.62202041  0.76571159  1
  O  O359  1  0.75601758  0.11966478  0.25588757  1
  O  O360  1  0.75116570  0.11302713  0.75372790  1
  O  O361  1  0.74296939  0.62206673  0.26102592  1
  O  O362  1  0.75761547  0.62112580  0.75202397  1
  O  O363  1  0.36139745  0.11459287  0.37779444  1
  O  O364  1  0.37443236  0.11876136  0.87095554  1
  O  O365  1  0.36318914  0.61812175  0.37248483  1
  O  O366  1  0.36904442  0.61873336  0.87739162  1
  O  O367  1  0.86736867  0.12694071  0.36465245  1
  O  O368  1  0.86803695  0.11984560  0.87194287  1
  O  O369  1  0.86609753  0.61814798  0.37842596  1
  O  O370  1  0.87651527  0.61085253  0.86274232  1
  O  O371  1  0.12992284  0.38100182  0.13374992  1
  O  O372  1  0.12030726  0.39233896  0.62543568  1
  O  O373  1  0.13258460  0.87486627  0.13024619  1
  O  O374  1  0.12431756  0.89096702  0.62708960  1
  O  O375  1  0.62984556  0.38001526  0.12783262  1
  O  O376  1  0.62759854  0.38639098  0.62649616  1
  O  O377  1  0.62925447  0.88096688  0.13459306  1
  O  O378  1  0.63192127  0.87982105  0.63106429  1
  O  O379  1  0.12133494  0.25645507  0.26125495  1
  O  O380  1  0.12942926  0.25607319  0.76190363  1
  O  O381  1  0.13045556  0.76306616  0.25674416  1
  O  O382  1  0.11523189  0.74109298  0.75991650  1
  O  O383  1  0.62070534  0.26134561  0.25135894  1
  O  O384  1  0.61470834  0.25082978  0.75323253  1
  O  O385  1  0.61764334  0.75762247  0.25146562  1
  O  O386  1  0.63468813  0.75888115  0.76058051  1
  O  O387  1  0.39115158  0.25612964  0.25509121  1
  O  O388  1  0.39071800  0.23335690  0.75831979  1
  O  O389  1  0.38126992  0.74738887  0.24451547  1
  O  O390  1  0.37572650  0.73296556  0.75678125  1
  O  O391  1  0.87842881  0.23920861  0.24640226  1
  O  O392  1  0.87082081  0.25414066  0.73589642  1
  O  O393  1  0.86559349  0.74872253  0.23347320  1
  O  O394  1  0.87782880  0.74561299  0.74360913  1
  O  O395  1  0.38089538  0.49515296  0.49254504  1
  O  O396  1  0.37652726  0.48989349  0.99078650  1
  O  O397  1  0.38180479  1.00052939  0.49465243  1
  O  O398  1  0.36980694  0.99113985  0.99092054  1
  O  O399  1  0.88460577  0.49631958  0.49440845  1
  O  O400  1  0.88357537  0.49143475  0.99189492  1
  O  O401  1  0.87941244  0.99219290  0.50523985  1
  O  O402  1  0.88506302  0.99432287  0.99690532  1
  O  O403  1  0.11437405  0.00569526  0.00020809  1
  O  O404  1  0.12487940  0.00051094  0.51183323  1
  O  O405  1  0.11824305  0.50544138  0.01144467  1
  O  O406  1  0.11034951  0.50110424  0.49657284  1
  O  O407  1  0.62712908  -0.00804615  0.01707624  1
  O  O408  1  0.61726603  0.00533872  0.50519496  1
  O  O409  1  0.63056105  0.51118066  0.00466228  1
  O  O410  1  0.61942630  0.50522689  0.50473696  1
  O  O411  1  0.36598902  0.38382848  0.11997789  1
  O  O412  1  0.40318251  0.37246536  0.59998414  1
  O  O413  1  0.36971847  0.87245533  0.12038600  1
  O  O414  1  0.37047615  0.87373770  0.62861125  1
  O  O415  1  0.86475847  0.37462805  0.12132133  1
  O  O416  1  0.87028741  0.37084447  0.61687519  1
  O  O417  1  0.86880477  0.86697580  0.11832415  1
  O  O418  1  0.86626870  0.86409766  0.62638005  1
  O  O419  1  0.13234496  0.13456450  0.37291658  1
  O  O420  1  0.12486355  0.12635890  0.88745592  1
  O  O421  1  0.13241859  0.63091858  0.37579649  1
  O  O422  1  0.13084433  0.63102719  0.88395361  1
  O  O423  1  0.64001604  0.12137457  0.37535218  1
  O  O424  1  0.63353824  0.13312001  0.87469545  1
  O  O425  1  0.63148872  0.63010737  0.37788721  1
  O  O426  1  0.62769716  0.62905724  0.88223780  1
