# generated using pymatgen
data_V85Zn86O256
_symmetry_space_group_name_H-M   'P 1'
_cell_length_a   16.95876745
_cell_length_b   16.96881047
_cell_length_c   16.94401845
_cell_angle_alpha   89.94282666
_cell_angle_beta   89.88322934
_cell_angle_gamma   89.91126047
_symmetry_Int_Tables_number   1
_chemical_formula_structural   V85Zn86O256
_chemical_formula_sum   'V85 Zn86 O256'
_cell_volume   4875.96367620
_cell_formula_units_Z   1
loop_
 _symmetry_equiv_pos_site_id
 _symmetry_equiv_pos_as_xyz
  1  'x, y, z'
loop_
 _atom_site_type_symbol
 _atom_site_label
 _atom_site_symmetry_multiplicity
 _atom_site_fract_x
 _atom_site_fract_y
 _atom_site_fract_z
 _atom_site_occupancy
  V  V0  1  0.24999692  0.62698292  0.88681967  1
  V  V1  1  0.87205176  0.25263544  0.62835815  1
  V  V2  1  0.87437690  0.12538333  0.75822471  1
  V  V3  1  0.87396600  0.74762703  0.62684477  1
  V  V4  1  0.49795010  0.49568020  0.50567379  1
  V  V5  1  0.12403875  0.12530648  -0.00222308  1
  V  V6  1  0.36562968  0.87326158  -0.00567809  1
  V  V7  1  -0.00444420  -0.00408307  0.00312224  1
  V  V8  1  0.63575030  0.39058486  0.75303303  1
  V  V9  1  0.50627529  0.49483020  0.00313860  1
  V  V10  1  0.75103132  0.24214170  0.00057564  1
  V  V11  1  0.74685819  0.00898530  0.75180563  1
  V  V12  1  0.11167645  0.50357429  0.12265809  1
  V  V13  1  0.87688402  0.62584585  0.24090410  1
  V  V14  1  0.37557837  0.36946605  0.00350528  1
  V  V15  1  0.50745731  0.12648833  0.61799223  1
  V  V16  1  0.12926038  0.74141458  0.37223966  1
  V  V17  1  0.37244498  0.48716156  0.37850113  1
  V  V18  1  0.86707067  0.61656311  0.75089818  1
  V  V19  1  0.86731025  -0.00059123  0.88224321  1
  V  V20  1  0.37101780  0.62565510  0.26018519  1
  V  V21  1  0.00752542  -0.00333726  0.51417317  1
  V  V22  1  0.24812246  0.50459545  0.25360402  1
  V  V23  1  0.13030035  0.00092641  0.12626339  1
  V  V24  1  -0.00604207  0.87298000  0.87894443  1
  V  V25  1  0.25008527  0.50043874  0.74907111  1
  V  V26  1  0.00149298  0.74861770  0.24082711  1
  V  V27  1  0.75658773  0.75043649  -0.00175086  1
  V  V28  1  0.74702157  0.39145343  0.62189976  1
  V  V29  1  0.49080812  0.13251525  0.12279901  1
  V  V30  1  0.89257130  0.38066682  0.50339744  1
  V  V31  1  0.25743835  0.37627887  0.61819435  1
  V  V32  1  0.37848027  0.12133471  0.75486871  1
  V  V33  1  0.49757421  -0.00026763  0.50115641  1
  V  V34  1  0.37300568  0.62601941  0.74920882  1
  V  V35  1  0.49863996  0.75133730  0.74781073  1
  V  V36  1  0.52026865  0.37351754  0.37383293  1
  V  V37  1  0.74849960  0.74982357  0.49882500  1
  V  V38  1  0.74469642  0.87774344  0.62533172  1
  V  V39  1  0.49869580  0.62330665  0.12453785  1
  V  V40  1  0.36929669  0.00815162  0.36835739  1
  V  V41  1  0.12787254  0.37562353  0.75103313  1
  V  V42  1  0.62443864  0.75120470  0.87604893  1
  V  V43  1  0.25258780  0.24835815  0.49299301  1
  V  V44  1  0.12475434  0.88127501  0.74303221  1
  V  V45  1  0.36863219  0.74850412  0.12016148  1
  V  V46  1  0.11978860  0.37694234  0.25992010  1
  V  V47  1  0.62190735  0.74807020  0.37461559  1
  V  V48  1  0.48979225  0.87341267  0.37997690  1
  V  V49  1  0.75412171  -0.00118664  0.25299964  1
  V  V50  1  0.00091002  0.87457342  0.37609925  1
  V  V51  1  0.74832720  0.48854791  0.24762094  1
  V  V52  1  0.12761121  0.11965206  0.50888641  1
  V  V53  1  0.87539913  0.87350870  0.50069611  1
  V  V54  1  0.00303098  0.24948453  0.75569086  1
  V  V55  1  0.62476015  0.61789425  0.50821023  1
  V  V56  1  -0.00040179  0.25127898  0.25298069  1
  V  V57  1  0.25472234  0.74780005  0.49432324  1
  V  V58  1  0.75801495  0.87329304  0.11989334  1
  V  V59  1  0.63412840  0.24383233  0.86729990  1
  V  V60  1  0.37273047  0.49789351  0.87569370  1
  V  V61  1  0.75137279  0.62275754  0.37318334  1
  V  V62  1  0.12808159  0.75032918  0.87986229  1
  V  V63  1  0.00142888  0.38735829  0.87941822  1
  V  V64  1  0.87642268  0.37759869  0.00600553  1
  V  V65  1  0.37901419  0.25168081  0.61952209  1
  V  V66  1  -0.00033637  0.62058115  0.61632320  1
  V  V67  1  0.49347764  -0.00068285  -0.00186044  1
  V  V68  1  0.12223144  0.49964631  0.61775873  1
  V  V69  1  0.62170984  -0.00165825  0.12529743  1
  V  V70  1  -0.00080305  0.74620378  0.75118801  1
  V  V71  1  0.86813625  0.24713501  0.12594498  1
  V  V72  1  0.50029975  0.25662794  0.25152045  1
  V  V73  1  0.25029782  0.87371644  0.12504389  1
  V  V74  1  0.49380840  0.88133382  0.87228456  1
  V  V75  1  0.25037776  0.24952922  0.00173232  1
  V  V76  1  0.37318224  0.75638692  0.62283337  1
  V  V77  1  0.85887666  0.49635283  0.87824684  1
  V  V78  1  0.24990576  0.37425016  0.12698061  1
  V  V79  1  0.62412169  0.88045366  0.74710496  1
  V  V80  1  0.10880847  0.62238356  0.00302976  1
  V  V81  1  0.88857814  0.49984464  0.38050165  1
  V  V82  1  0.12972992  0.88481402  0.25170194  1
  V  V83  1  0.49800428  0.74930851  0.25027848  1
  V  V84  1  0.50233654  0.37187410  0.87394403  1
  Zn  Zn85  1  0.12646956  0.62043460  0.49331665  1
  Zn  Zn86  1  0.86838281  -0.00022564  0.37983725  1
  Zn  Zn87  1  0.25061303  0.00320654  0.74803236  1
  Zn  Zn88  1  0.10868655  0.25453682  0.38639194  1
  Zn  Zn89  1  0.62820160  0.12257904  -0.00324606  1
  Zn  Zn90  1  0.36561891  0.13348533  0.24398423  1
  Zn  Zn91  1  0.25841523  0.11963762  0.87767393  1
  Zn  Zn92  1  0.69007607  0.18807303  0.42088173  1
  Zn  Zn93  1  0.12721144  0.25144611  0.87600062  1
  Zn  Zn94  1  0.66348602  0.04466435  0.57273084  1
  Zn  Zn95  1  0.62572739  0.62898573  0.00552320  1
  Zn  Zn96  1  0.50263828  0.62020007  0.62831189  1
  Zn  Zn97  1  0.22999821  0.11405280  0.36260819  1
  Zn  Zn98  1  0.74268589  0.61862133  0.87407964  1
  Zn  Zn99  1  0.84083726  0.15356988  0.28473693  1
  Zn  Zn100  1  0.88138210  0.74872887  0.11628366  1
  Zn  Zn101  1  0.62235348  0.87231231  0.24803264  1
  Zn  Zn102  1  0.24957449  0.88393079  0.61620266  1
  Zn  Zn103  1  0.62283526  0.48835929  0.14163317  1
  Zn  Zn104  1  0.00517670  0.12003181  0.63160212  1
  Zn  Zn105  1  0.50499047  0.25258341  0.74313138  1
  Zn  Zn106  1  -0.00209170  0.12507348  0.12747521  1
  Zn  Zn107  1  0.18397073  0.18954082  0.18686481  1
  Zn  Zn108  1  0.19225256  0.18847849  0.68565619  1
  Zn  Zn109  1  0.18713912  0.68674865  0.18508011  1
  Zn  Zn110  1  0.18826676  0.68911035  0.68753075  1
  Zn  Zn111  1  0.65944446  0.17210461  0.22547921  1
  Zn  Zn112  1  0.69210193  0.20198141  0.58912437  1
  Zn  Zn113  1  0.68635097  0.68424404  0.18612663  1
  Zn  Zn114  1  0.68677692  0.68882581  0.68894971  1
  Zn  Zn115  1  0.31460520  0.30848628  0.30748574  1
  Zn  Zn116  1  0.31425355  0.30667391  0.81056082  1
  Zn  Zn117  1  0.31157638  0.81534458  0.31278742  1
  Zn  Zn118  1  0.30882638  0.81198917  0.81191957  1
  Zn  Zn119  1  0.81144916  0.31854653  0.32194293  1
  Zn  Zn120  1  0.81067836  0.31408986  0.81399417  1
  Zn  Zn121  1  0.81276348  0.81354129  0.30891578  1
  Zn  Zn122  1  0.81176023  0.81323663  0.81214242  1
  Zn  Zn123  1  0.18970479  0.43698979  0.43780967  1
  Zn  Zn124  1  0.18511947  0.44017250  0.94015950  1
  Zn  Zn125  1  0.18878923  0.93397131  0.43960922  1
  Zn  Zn126  1  0.18814628  0.94177831  0.93048982  1
  Zn  Zn127  1  0.69236379  0.43858568  0.44139212  1
  Zn  Zn128  1  0.67811002  0.42313933  0.96642035  1
  Zn  Zn129  1  0.68230870  0.93218948  0.43057055  1
  Zn  Zn130  1  0.68379786  0.93544798  0.93914162  1
  Zn  Zn131  1  0.31120944  0.05917445  0.06010490  1
  Zn  Zn132  1  0.31543264  0.06094746  0.56260559  1
  Zn  Zn133  1  0.31233752  0.55790960  0.06597071  1
  Zn  Zn134  1  0.31304604  0.56755936  0.56038872  1
  Zn  Zn135  1  0.81155111  0.06557521  0.06884361  1
  Zn  Zn136  1  0.82752648  0.06536407  0.56314787  1
  Zn  Zn137  1  0.81110947  0.56166487  0.06060439  1
  Zn  Zn138  1  0.81360167  0.56053622  0.56125524  1
  Zn  Zn139  1  0.43456665  0.43486813  0.19046049  1
  Zn  Zn140  1  0.43918953  0.43509242  0.68958395  1
  Zn  Zn141  1  0.43563686  0.93677041  0.18872418  1
  Zn  Zn142  1  0.43504213  0.94181570  0.68270114  1
  Zn  Zn143  1  0.93364218  0.43555190  0.18950790  1
  Zn  Zn144  1  0.93857021  0.43876939  0.69209975  1
  Zn  Zn145  1  0.93896497  0.93440554  0.18670785  1
  Zn  Zn146  1  0.93404761  0.93306820  0.69283126  1
  Zn  Zn147  1  0.02660608  0.08437056  0.33905892  1
  Zn  Zn148  1  0.06199484  0.06066358  0.81793312  1
  Zn  Zn149  1  0.06105449  0.56454632  0.30643546  1
  Zn  Zn150  1  0.06159608  0.56330062  0.80916759  1
  Zn  Zn151  1  0.56128828  0.06189289  0.31485491  1
  Zn  Zn152  1  0.56026368  0.06521381  0.80820040  1
  Zn  Zn153  1  0.56188224  0.56121905  0.31685237  1
  Zn  Zn154  1  0.55823548  0.56344354  0.81766567  1
  Zn  Zn155  1  0.44302697  0.18888887  0.43636419  1
  Zn  Zn156  1  0.44207901  0.19151344  0.93966264  1
  Zn  Zn157  1  0.43633293  0.68267847  0.44030506  1
  Zn  Zn158  1  0.43687352  0.68961188  0.93723776  1
  Zn  Zn159  1  0.90044272  0.19774010  0.42981269  1
  Zn  Zn160  1  0.94014671  0.18654402  0.93866714  1
  Zn  Zn161  1  0.93839590  0.68858742  0.43359948  1
  Zn  Zn162  1  0.93421880  0.68320068  0.93413560  1
  Zn  Zn163  1  0.06088980  0.31389971  0.06649174  1
  Zn  Zn164  1  0.06514357  0.30841563  0.56947225  1
  Zn  Zn165  1  0.06584309  0.81333070  0.05950241  1
  Zn  Zn166  1  0.06462194  0.80488862  0.56094153  1
  Zn  Zn167  1  0.58729760  0.30128533  0.09045448  1
  Zn  Zn168  1  0.56633126  0.31504254  0.55379306  1
  Zn  Zn169  1  0.56054147  0.81378518  0.06103578  1
  Zn  Zn170  1  0.56032430  0.81286957  0.56004791  1
  O  O171  1  0.12365741  0.11642453  0.11401954  1
  O  O172  1  0.12291077  0.13090368  0.61495572  1
  O  O173  1  0.13001362  0.61743504  0.11392269  1
  O  O174  1  0.11586661  0.61731883  0.62797460  1
  O  O175  1  0.61007281  0.11099707  0.12481918  1
  O  O176  1  0.61080581  0.12738676  0.63668240  1
  O  O177  1  0.60967664  0.61983635  0.12494339  1
  O  O178  1  0.62501353  0.62970977  0.61230788  1
  O  O179  1  0.37557526  0.38617264  0.37262687  1
  O  O180  1  0.38243070  0.37663735  0.87928728  1
  O  O181  1  0.38429826  0.88418639  0.37034894  1
  O  O182  1  0.38241355  0.86780178  0.88143787  1
  O  O183  1  0.87260887  0.38479558  0.39612834  1
  O  O184  1  0.88298934  0.38180396  0.87879108  1
  O  O185  1  0.88400186  0.87353197  0.38184041  1
  O  O186  1  0.88726746  0.88202464  0.86952260  1
  O  O187  1  0.26519115  -0.00001409  0.38140898  1
  O  O188  1  0.24496168  0.00760520  0.86258034  1
  O  O189  1  0.25565913  0.49634420  0.36272547  1
  O  O190  1  0.25423850  0.50599201  0.86971753  1
  O  O191  1  0.74959377  -0.00691009  0.35820094  1
  O  O192  1  0.76148335  -0.00973576  0.87018348  1
  O  O193  1  0.75900711  0.50794348  0.36907851  1
  O  O194  1  0.75731735  0.49686103  0.88500972  1
  O  O195  1  0.24374790  0.49405173  0.13661425  1
  O  O196  1  0.24721678  0.49382613  0.62877038  1
  O  O197  1  0.23653474  0.99319003  0.11985119  1
  O  O198  1  0.26089586  0.99436583  0.63399703  1
  O  O199  1  0.75068390  0.50793047  0.14528354  1
  O  O200  1  0.75322153  0.49020167  0.63054778  1
  O  O201  1  0.74207854  0.98977946  0.12634391  1
  O  O202  1  0.75144860  0.99203925  0.63368125  1
  O  O203  1  0.00986910  0.36686105  0.24382450  1
  O  O204  1  0.00732464  0.36884713  0.75876092  1
  O  O205  1  0.00628695  0.86827372  0.25827759  1
  O  O206  1  0.00685456  0.86640540  0.75785438  1
  O  O207  1  0.49770238  0.37522084  0.26538573  1
  O  O208  1  0.51228861  0.37374559  0.75703750  1
  O  O209  1  0.49930973  0.86409714  0.25582704  1
  O  O210  1  0.50314848  0.87416199  0.75541579  1
  O  O211  1  0.49458102  0.13479253  0.23520017  1
  O  O212  1  0.49253984  0.13166976  0.74221715  1
  O  O213  1  0.49169285  0.62762377  0.24395376  1
  O  O214  1  0.49140752  0.63101349  0.74961109  1
  O  O215  1  1.01144474  0.14595417  0.24233449  1
  O  O216  1  0.99586016  0.13190229  0.75170836  1
  O  O217  1  0.98973041  0.63718075  0.25372262  1
  O  O218  1  0.98888930  0.62977782  0.74440951  1
  O  O219  1  0.36764150  0.26286461  -0.00333138  1
  O  O220  1  0.36850323  0.24288672  0.51103692  1
  O  O221  1  0.37993279  0.75995396  0.00907376  1
  O  O222  1  0.36393559  0.74355209  0.50656663  1
  O  O223  1  0.87409093  0.25189954  0.00870973  1
  O  O224  1  0.88258977  0.26687028  0.51673520  1
  O  O225  1  0.86151604  0.74621081  -0.00194585  1
  O  O226  1  0.86834786  0.75378081  0.50540373  1
  O  O227  1  0.13326941  0.24487231  0.50220540  1
  O  O228  1  0.13010001  0.24187210  1.00054639  1
  O  O229  1  0.13219486  0.74494844  0.48887627  1
  O  O230  1  0.12158812  0.74219155  0.98744200  1
  O  O231  1  0.64140235  0.25248067  0.50225818  1
  O  O232  1  0.63633881  0.24735727  0.99241044  1
  O  O233  1  0.63038480  0.74280547  0.49341242  1
  O  O234  1  0.62813889  0.74862330  0.99098631  1
  O  O235  1  0.49230472  0.23343570  0.11105166  1
  O  O236  1  0.49487138  0.24661576  0.62039516  1
  O  O237  1  0.49046393  0.74274555  0.12904163  1
  O  O238  1  0.49262405  0.74723944  0.63049707  1
  O  O239  1  0.99102607  0.25024541  0.13260745  1
  O  O240  1  0.99086580  0.25424023  0.64304161  1
  O  O241  1  0.99927508  0.75844696  0.13651419  1
  O  O242  1  0.99324099  0.74111037  0.63104918  1
  O  O243  1  -0.00848508  0.25314282  0.35747566  1
  O  O244  1  0.00106234  0.25809190  0.86608306  1
  O  O245  1  0.00868399  0.75871646  0.36874929  1
  O  O246  1  0.00308337  0.75614367  0.87182152  1
  O  O247  1  0.49929881  0.26594690  0.36801899  1
  O  O248  1  0.51156255  0.26282488  0.87771330  1
  O  O249  1  0.49950350  0.75476542  0.37203554  1
  O  O250  1  0.50480194  0.76003846  0.86894102  1
  O  O251  1  0.24362279  0.13193105  0.49673096  1
  O  O252  1  0.24474046  0.13320669  1.00000741  1
  O  O253  1  0.24350199  0.64130575  0.50503912  1
  O  O254  1  0.24780939  0.61868217  0.98897533  1
  O  O255  1  0.73847229  0.11830072  0.51797152  1
  O  O256  1  0.74949139  0.13618379  1.00232093  1
  O  O257  1  0.74492003  0.62657302  0.49074482  1
  O  O258  1  0.74450208  0.63382583  0.99626684  1
  O  O259  1  0.25506575  0.37144289  0.00582330  1
  O  O260  1  0.24603238  0.36805104  0.51243530  1
  O  O261  1  0.26047087  0.87926622  0.00284980  1
  O  O262  1  0.24268101  0.85487305  0.50290169  1
  O  O263  1  0.77067141  0.35703818  -0.01019807  1
  O  O264  1  0.75846179  0.38279143  0.51826486  1
  O  O265  1  0.74303332  0.86471427  0.00886346  1
  O  O266  1  0.75343068  0.87197104  0.50579158  1
  O  O267  1  0.13144895  0.49590459  0.24553797  1
  O  O268  1  0.13252667  0.49604190  0.74176037  1
  O  O269  1  0.11788503  0.98705821  0.24143559  1
  O  O270  1  0.11619474  0.98294140  0.75150960  1
  O  O271  1  0.64238979  0.50532430  0.25543152  1
  O  O272  1  0.62245683  0.48870686  0.75729217  1
  O  O273  1  0.63345551  0.99441155  0.24130968  1
  O  O274  1  0.63497285  0.99308348  0.75792099  1
  O  O275  1  0.37934438  0.00205606  0.26496875  1
  O  O276  1  0.38233740  0.01907517  0.75022597  1
  O  O277  1  0.36679691  0.50644184  0.25586440  1
  O  O278  1  0.37022877  0.50571247  0.75600549  1
  O  O279  1  0.85869543  -0.01095339  0.24897349  1
  O  O280  1  0.87095374  0.00565686  0.75946647  1
  O  O281  1  0.86754751  0.50713659  0.25779245  1
  O  O282  1  0.87680407  0.50706399  0.76185235  1
  O  O283  1  0.12690292  0.37439316  0.36369887  1
  O  O284  1  0.11864296  0.37595769  0.87017096  1
  O  O285  1  0.12201149  0.86494941  0.36673313  1
  O  O286  1  0.11376546  0.86670899  0.87003335  1
  O  O287  1  0.61873925  0.37841920  0.37390820  1
  O  O288  1  0.62092582  0.37048563  0.87010113  1
  O  O289  1  0.61150261  0.86341907  0.37026946  1
  O  O290  1  0.61569716  0.86653543  0.86956956  1
  O  O291  1  0.38798284  0.11367177  0.12500963  1
  O  O292  1  0.38669569  0.13358537  0.63237911  1
  O  O293  1  0.38147980  0.62967895  0.13181488  1
  O  O294  1  0.37531742  0.63485227  0.63475349  1
  O  O295  1  0.87951623  0.14044553  0.12603344  1
  O  O296  1  0.88157855  0.13576823  0.63924375  1
  O  O297  1  0.86977394  0.62830156  0.13777866  1
  O  O298  1  0.88066641  0.62629164  0.63141587  1
  O  O299  1  0.24301594  0.26141774  0.11178086  1
  O  O300  1  0.25855782  0.25826140  0.61649018  1
  O  O301  1  0.26286609  0.75312117  0.12607139  1
  O  O302  1  0.25649358  0.75304994  0.61722934  1
  O  O303  1  0.76572034  0.25091189  0.11825491  1
  O  O304  1  0.76894198  0.26778997  0.64095453  1
  O  O305  1  0.74726206  0.75591342  0.11581639  1
  O  O306  1  0.75542694  0.75559280  0.61863070  1
  O  O307  1  0.25164104  0.25534094  0.38921506  1
  O  O308  1  0.24749667  0.24948184  0.88860833  1
  O  O309  1  0.24534395  0.75129822  0.38429051  1
  O  O310  1  0.23949386  0.73901978  0.87107794  1
  O  O311  1  0.79314031  0.22052242  0.37211980  1
  O  O312  1  0.73943628  0.24961846  0.87971551  1
  O  O313  1  0.74536111  0.74339691  0.37975207  1
  O  O314  1  0.74075119  0.75333160  0.88171040  1
  O  O315  1  0.00715776  0.11391271  0.00247452  1
  O  O316  1  0.00756994  0.10931649  0.50938024  1
  O  O317  1  0.00949938  0.62613096  -0.00206557  1
  O  O318  1  0.00192815  0.63049692  0.51308351  1
  O  O319  1  0.49986501  0.11530527  0.00589899  1
  O  O320  1  0.50054647  0.11676055  0.50683321  1
  O  O321  1  0.49361533  0.61770156  0.01042059  1
  O  O322  1  0.50918969  0.61565463  0.50090534  1
  O  O323  1  0.50251193  0.38294340  0.48507852  1
  O  O324  1  0.48903316  0.38120909  0.99201723  1
  O  O325  1  0.49862236  0.88109176  0.49034411  1
  O  O326  1  0.49064580  0.88013228  0.99168808  1
  O  O327  1  0.99124768  0.37832081  0.51104721  1
  O  O328  1  0.99064441  0.36758575  0.98935386  1
  O  O329  1  0.99667001  0.87397188  0.49580634  1
  O  O330  1  1.00335879  0.88616192  0.99287432  1
  O  O331  1  0.49380897  0.48965158  0.38023032  1
  O  O332  1  0.48991550  0.48907223  0.87828565  1
  O  O333  1  0.49297346  0.99223161  0.37762897  1
  O  O334  1  0.50514001  0.98850853  0.88166601  1
  O  O335  1  0.98766116  0.50469874  0.37060576  1
  O  O336  1  0.99474164  0.48975830  0.87076249  1
  O  O337  1  1.00662422  0.98032084  0.38754787  1
  O  O338  1  0.99073728  0.99190798  0.88330938  1
  O  O339  1  0.00830350  -0.00122866  0.11900530  1
  O  O340  1  -0.00357153  -0.00667553  0.61725292  1
  O  O341  1  0.01274392  0.49934163  0.13364343  1
  O  O342  1  0.01067240  0.50881859  0.63322901  1
  O  O343  1  0.50448799  0.00109344  0.11720066  1
  O  O344  1  0.49640675  0.00892402  0.61238106  1
  O  O345  1  0.49864589  0.50532293  0.11906478  1
  O  O346  1  0.49255553  0.49941403  0.61015288  1
  O  O347  1  0.24278923  0.37959944  0.24255093  1
  O  O348  1  0.24615860  0.37917391  0.74247443  1
  O  O349  1  0.24025658  0.86942226  0.24014253  1
  O  O350  1  0.23100001  0.87151806  0.75173201  1
  O  O351  1  0.75480785  0.38970261  0.25412135  1
  O  O352  1  0.74109065  0.37989268  0.74772470  1
  O  O353  1  0.74416280  0.87985174  0.23935310  1
  O  O354  1  0.74600979  0.88243287  0.74229617  1
  O  O355  1  0.25309476  0.13871548  0.25580159  1
  O  O356  1  0.26759627  0.13153302  0.75043604  1
  O  O357  1  0.25853164  0.61608812  0.24498570  1
  O  O358  1  0.25478915  0.61926189  0.75806925  1
  O  O359  1  0.75370122  0.10268768  0.23127604  1
  O  O360  1  0.76072103  0.11021098  0.74872177  1
  O  O361  1  0.75755109  0.62534094  0.26175594  1
  O  O362  1  0.76304907  0.63144795  0.75290597  1
  O  O363  1  0.37957246  0.11332629  0.37089693  1
  O  O364  1  0.37970934  0.13760210  0.85884094  1
  O  O365  1  0.38058530  0.61562564  0.36273882  1
  O  O366  1  0.36749393  0.62180678  0.86973083  1
  O  O367  1  0.91016676  0.10565186  0.36401574  1
  O  O368  1  0.88093298  0.11479637  0.86603438  1
  O  O369  1  0.86784484  0.61973940  0.37094446  1
  O  O370  1  0.87121383  0.61330301  0.86816154  1
  O  O371  1  0.13415031  0.38493502  0.12930352  1
  O  O372  1  0.13293818  0.38256141  0.63216794  1
  O  O373  1  0.13080206  0.88007644  0.12973725  1
  O  O374  1  0.12235533  0.86435404  0.64155528  1
  O  O375  1  0.62921647  0.40141778  0.07236104  1
  O  O376  1  0.63956863  0.37310297  0.63961923  1
  O  O377  1  0.62731767  0.88495969  0.12485363  1
  O  O378  1  0.63720108  0.86989843  0.62843702  1
  O  O379  1  0.11401289  0.26213765  0.25054936  1
  O  O380  1  0.11951039  0.25585580  0.75190872  1
  O  O381  1  0.11936034  0.75559850  0.25383065  1
  O  O382  1  0.11728371  0.75228388  0.76185490  1
  O  O383  1  0.59838092  0.26823908  0.20902537  1
  O  O384  1  0.62545723  0.26232724  0.76605983  1
  O  O385  1  0.61541442  0.74588191  0.25656651  1
  O  O386  1  0.61864531  0.75974173  0.75478668  1
  O  O387  1  0.39285377  0.25367692  0.24484902  1
  O  O388  1  0.38075038  0.24521871  0.73636038  1
  O  O389  1  0.37833437  0.74195576  0.24425295  1
  O  O390  1  0.37883425  0.74435096  0.74497718  1
  O  O391  1  0.88269596  0.25692327  0.23830709  1
  O  O392  1  0.88200521  0.24245820  0.75270809  1
  O  O393  1  0.88385506  0.74277004  0.24953329  1
  O  O394  1  0.88019359  0.74351046  0.74541223  1
  O  O395  1  0.38284440  0.50959220  0.48789052  1
  O  O396  1  0.38158453  0.49072212  0.99491172  1
  O  O397  1  0.38860426  1.00386709  0.48532310  1
  O  O398  1  0.38583855  0.98929256  1.00187081  1
  O  O399  1  0.87777377  0.49182684  0.49558159  1
  O  O400  1  0.87281135  0.48943779  0.99445622  1
  O  O401  1  0.88610270  0.98919924  0.49963870  1
  O  O402  1  0.88204432  1.00580527  0.99404551  1
  O  O403  1  0.11717652  0.00496761  0.00620870  1
  O  O404  1  0.11983450  0.00509730  0.49996384  1
  O  O405  1  0.12712150  0.50958662  0.01036126  1
  O  O406  1  0.13081793  0.50254153  0.51316510  1
  O  O407  1  0.61335064  0.00119553  0.00525738  1
  O  O408  1  0.60688364  -0.00648745  0.49062372  1
  O  O409  1  0.60408810  0.51680488  -0.02588778  1
  O  O410  1  0.61495739  0.50805903  0.49421453  1
  O  O411  1  0.36043819  0.38310367  0.11646453  1
  O  O412  1  0.36684951  0.36745773  0.62944602  1
  O  O413  1  0.37057066  0.86729725  0.11806389  1
  O  O414  1  0.37359943  0.85944801  0.63258176  1
  O  O415  1  0.88093376  0.36461288  0.11517433  1
  O  O416  1  0.86950304  0.37655765  0.62157694  1
  O  O417  1  0.86152988  0.87012579  0.12597957  1
  O  O418  1  0.86364478  0.86799324  0.62252813  1
  O  O419  1  0.11835414  0.13283565  0.39274332  1
  O  O420  1  0.12331461  0.12781471  0.88872122  1
  O  O421  1  0.12153034  0.63761227  0.37207080  1
  O  O422  1  0.13028352  0.62957125  0.88106425  1
  O  O423  1  0.62776720  0.14763484  0.33514982  1
  O  O424  1  0.61757758  0.14146917  0.87575324  1
  O  O425  1  0.63213766  0.62956392  0.38379395  1
  O  O426  1  0.62397472  0.64258470  0.86929023  1
