# generated using pymatgen
data_V85Zn86O256
_symmetry_space_group_name_H-M   'P 1'
_cell_length_a   16.94008711
_cell_length_b   16.94047531
_cell_length_c   16.93260397
_cell_angle_alpha   90.00153622
_cell_angle_beta   89.97127153
_cell_angle_gamma   89.94243373
_symmetry_Int_Tables_number   1
_chemical_formula_structural   V85Zn86O256
_chemical_formula_sum   'V85 Zn86 O256'
_cell_volume   4859.19925280
_cell_formula_units_Z   1
loop_
 _symmetry_equiv_pos_site_id
 _symmetry_equiv_pos_as_xyz
  1  'x, y, z'
loop_
 _atom_site_type_symbol
 _atom_site_label
 _atom_site_symmetry_multiplicity
 _atom_site_fract_x
 _atom_site_fract_y
 _atom_site_fract_z
 _atom_site_occupancy
  V  V0  1  0.37561321  0.37734632  0.00051423  1
  V  V1  1  0.11248955  0.49833338  0.61850980  1
  V  V2  1  0.12522914  0.12498748  -0.00051131  1
  V  V3  1  0.12946973  0.62806083  -0.01188920  1
  V  V4  1  0.74006724  0.38037869  0.12434082  1
  V  V5  1  0.87542292  0.49924830  0.87618687  1
  V  V6  1  0.37370508  0.12504316  0.74931796  1
  V  V7  1  0.00677037  0.25048808  0.25487937  1
  V  V8  1  0.00192784  0.50149535  0.00220093  1
  V  V9  1  0.62713445  0.37650201  0.75001679  1
  V  V10  1  0.75121443  0.49794576  0.75204052  1
  V  V11  1  0.36876547  0.48455790  0.38525186  1
  V  V12  1  0.62071193  0.87725340  0.25301844  1
  V  V13  1  0.25158887  0.37664939  0.62121806  1
  V  V14  1  0.86682360  0.62448242  0.24407067  1
  V  V15  1  0.49817031  0.25136054  0.74938107  1
  V  V16  1  0.75243995  0.87095939  0.12916772  1
  V  V17  1  0.12636047  0.00007837  0.12388732  1
  V  V18  1  0.12910685  0.50374900  0.12981045  1
  V  V19  1  0.25166809  -0.00410613  0.74864890  1
  V  V20  1  -0.00268150  0.24745294  0.74883575  1
  V  V21  1  0.37750766  0.87284490  -0.00335409  1
  V  V22  1  0.31347694  0.82265361  0.55598910  1
  V  V23  1  0.62124190  0.12500557  0.00713853  1
  V  V24  1  0.87490901  0.37445154  0.00425526  1
  V  V25  1  0.88174276  0.49973319  0.38226497  1
  V  V26  1  0.12675597  0.37560230  0.25506738  1
  V  V27  1  0.75083570  0.24854893  0.00045858  1
  V  V28  1  0.69429406  0.44496821  0.29891551  1
  V  V29  1  0.49004241  0.75044044  0.25307490  1
  V  V30  1  -0.00066794  -0.00097091  -0.00283690  1
  V  V31  1  0.12925932  0.00027356  0.62664793  1
  V  V32  1  0.62813674  0.87840755  0.75212496  1
  V  V33  1  0.49455979  -0.00019300  0.49676617  1
  V  V34  1  0.63208567  0.00341430  0.62713994  1
  V  V35  1  0.49779050  0.38086842  0.87425209  1
  V  V36  1  0.00056397  0.37634757  0.38554869  1
  V  V37  1  0.49992734  0.62381103  0.12598066  1
  V  V38  1  0.10948148  0.62390684  0.50465684  1
  V  V39  1  0.24739651  0.50975110  0.75206882  1
  V  V40  1  0.12500576  0.24870101  0.87385068  1
  V  V41  1  0.12488561  0.87272544  0.25075475  1
  V  V42  1  0.63071350  0.13850270  0.49573790  1
  V  V43  1  0.49876857  0.00243004  0.00477378  1
  V  V44  1  0.12649877  0.74669854  0.37777918  1
  V  V45  1  0.87713001  0.12402128  0.25092763  1
  V  V46  1  0.74981600  0.00048934  0.25555994  1
  V  V47  1  0.00535844  0.86633993  0.87284037  1
  V  V48  1  0.37941598  0.23740256  0.12414709  1
  V  V49  1  0.24904548  0.74706349  -0.01935977  1
  V  V50  1  0.74969873  0.14097022  0.37678714  1
  V  V51  1  0.75182504  0.37225266  0.61343083  1
  V  V52  1  0.24984631  0.25003728  -0.00017084  1
  V  V53  1  0.50234017  0.12461372  0.62414527  1
  V  V54  1  0.37223203  0.25450237  0.61833065  1
  V  V55  1  0.87265427  0.25286559  0.61191747  1
  V  V56  1  0.75526499  0.87896284  0.63081432  1
  V  V57  1  0.25304436  0.00441511  0.25933935  1
  V  V58  1  0.87627572  0.87357225  0.49879737  1
  V  V59  1  0.62127997  0.51869477  0.62447976  1
  V  V60  1  0.87657803  0.87304829  0.00416939  1
  V  V61  1  0.48328184  0.88111788  0.37734780  1
  V  V62  1  0.49932754  0.74602683  0.73866741  1
  V  V63  1  0.25256885  0.37931066  0.12990603  1
  V  V64  1  0.88242537  0.62452238  0.74623630  1
  V  V65  1  0.87053591  0.11882402  0.74727156  1
  V  V66  1  0.00047558  0.12575254  0.12585552  1
  V  V67  1  0.25048615  0.87151380  0.12279759  1
  V  V68  1  0.24976503  0.62067318  0.38158274  1
  V  V69  1  0.62540166  0.25012838  0.87524862  1
  V  V70  1  0.36554113  0.60994344  0.25056235  1
  V  V71  1  0.00205449  -0.00150728  0.50000825  1
  V  V72  1  -0.00093925  0.37217822  0.87713263  1
  V  V73  1  0.50964986  0.25062395  0.25267178  1
  V  V74  1  0.74791023  0.74242684  0.50103975  1
  V  V75  1  0.88719509  0.74539275  0.62401992  1
  V  V76  1  0.37731370  0.12159555  0.26653052  1
  V  V77  1  -0.00015995  0.63451889  0.12598665  1
  V  V78  1  0.74903110  0.11669166  0.87237464  1
  V  V79  1  0.74976141  0.62691099  0.87718095  1
  V  V80  1  0.62311714  0.74889884  0.38056247  1
  V  V81  1  0.13027210  0.12693261  0.48708636  1
  V  V82  1  0.13054393  0.86271146  0.74856960  1
  V  V83  1  0.24960933  0.24799329  0.48840620  1
  V  V84  1  0.75232135  0.74922971  0.00498206  1
  Zn  Zn85  1  0.37274493  0.74679684  0.12245958  1
  Zn  Zn86  1  0.87520836  -0.00016539  0.37718094  1
  Zn  Zn87  1  0.50490701  0.37093479  0.37312282  1
  Zn  Zn88  1  0.62261131  0.62608185  0.00219006  1
  Zn  Zn89  1  0.62523347  0.75201312  0.87561194  1
  Zn  Zn90  1  0.87637432  0.25131893  0.12678492  1
  Zn  Zn91  1  0.50098006  0.50377950  0.00157656  1
  Zn  Zn92  1  0.12538783  0.37287544  0.74826889  1
  Zn  Zn93  1  0.62129361  0.00416348  0.12913483  1
  Zn  Zn94  1  -0.00009537  0.12782799  0.62177170  1
  Zn  Zn95  1  0.00055055  0.87235847  0.37573080  1
  Zn  Zn96  1  0.50133065  0.87445113  0.87310314  1
  Zn  Zn97  1  0.62487790  0.50177469  0.12929238  1
  Zn  Zn98  1  0.74673185  0.61871689  0.37430585  1
  Zn  Zn99  1  0.37900521  0.63093998  0.74571002  1
  Zn  Zn100  1  0.01156175  0.74092593  0.75010091  1
  Zn  Zn101  1  0.37747346  0.00160715  0.87412649  1
  Zn  Zn102  1  0.36595829  0.51071151  0.87612648  1
  Zn  Zn103  1  0.49685568  0.50639334  0.50858286  1
  Zn  Zn104  1  0.25088722  0.12562375  0.87354739  1
  Zn  Zn105  1  -0.00402124  0.75178907  0.24852534  1
  Zn  Zn106  1  0.87358023  -0.00471189  0.86836620  1
  Zn  Zn107  1  0.19133056  0.18900770  0.18990458  1
  Zn  Zn108  1  0.18747539  0.18485930  0.68328857  1
  Zn  Zn109  1  0.18833338  0.68781459  0.18728296  1
  Zn  Zn110  1  0.22848730  0.67656065  0.65606295  1
  Zn  Zn111  1  0.69269280  0.18994642  0.18649509  1
  Zn  Zn112  1  0.68942856  0.18995300  0.68704514  1
  Zn  Zn113  1  0.68209384  0.69038080  0.19207687  1
  Zn  Zn114  1  0.69604102  0.69563685  0.69307449  1
  Zn  Zn115  1  0.31229460  0.30714651  0.30776499  1
  Zn  Zn116  1  0.31076613  0.31622784  0.80926336  1
  Zn  Zn117  1  0.30751615  0.80920845  0.31845733  1
  Zn  Zn118  1  0.31726214  0.81388504  0.80709549  1
  Zn  Zn119  1  0.82271763  0.31285242  0.31219743  1
  Zn  Zn120  1  0.81283463  0.30793377  0.81154594  1
  Zn  Zn121  1  0.81394090  0.80778575  0.31392424  1
  Zn  Zn122  1  0.81648806  0.81057396  0.81361473  1
  Zn  Zn123  1  0.18878610  0.43717089  0.43904970  1
  Zn  Zn124  1  0.18580959  0.43676494  0.93866079  1
  Zn  Zn125  1  0.18852480  0.93650902  0.43701732  1
  Zn  Zn126  1  0.18943186  0.93655947  0.93165111  1
  Zn  Zn127  1  0.64907180  0.41330910  0.46673047  1
  Zn  Zn128  1  0.68378512  0.44174112  0.94237759  1
  Zn  Zn129  1  0.68518916  0.93847580  0.44069899  1
  Zn  Zn130  1  0.68837055  0.93966509  0.94077599  1
  Zn  Zn131  1  0.31024314  0.05882347  0.06223258  1
  Zn  Zn132  1  0.31031493  0.05983174  0.56236998  1
  Zn  Zn133  1  0.31304928  0.56400819  0.06076681  1
  Zn  Zn134  1  0.31206593  0.56178158  0.56150450  1
  Zn  Zn135  1  0.81172399  0.05897444  0.06459257  1
  Zn  Zn136  1  0.81321586  0.06411645  0.56122971  1
  Zn  Zn137  1  0.81242200  0.56171531  0.06581003  1
  Zn  Zn138  1  0.80956584  0.56069705  0.56357972  1
  Zn  Zn139  1  0.44011985  0.43556073  0.19063847  1
  Zn  Zn140  1  0.43535603  0.44085912  0.68586960  1
  Zn  Zn141  1  0.43584933  0.94045487  0.18496622  1
  Zn  Zn142  1  0.44074280  0.93580102  0.68342805  1
  Zn  Zn143  1  0.93770995  0.44275986  0.19032834  1
  Zn  Zn144  1  0.93571150  0.43345465  0.68693082  1
  Zn  Zn145  1  0.93779995  0.93797920  0.18659397  1
  Zn  Zn146  1  0.94436591  0.93611134  0.68523718  1
  Zn  Zn147  1  0.06409705  0.05841273  0.31365576  1
  Zn  Zn148  1  0.06122807  0.05990831  0.81232203  1
  Zn  Zn149  1  0.05971260  0.56179434  0.31087464  1
  Zn  Zn150  1  0.06506654  0.55746658  0.80845597  1
  Zn  Zn151  1  0.56096768  0.06753480  0.31439544  1
  Zn  Zn152  1  0.56175548  0.05932179  0.81492357  1
  Zn  Zn153  1  0.53842307  0.58171291  0.34819349  1
  Zn  Zn154  1  0.56214406  0.56582288  0.81114304  1
  Zn  Zn155  1  0.44072694  0.18796160  0.43776228  1
  Zn  Zn156  1  0.43925545  0.18927328  0.93669655  1
  Zn  Zn157  1  0.43356124  0.68584988  0.45301344  1
  Zn  Zn158  1  0.43799946  0.68826224  0.92760849  1
  Zn  Zn159  1  0.94200768  0.18596449  0.43379245  1
  Zn  Zn160  1  0.93532102  0.18521461  0.93650562  1
  Zn  Zn161  1  0.93718137  0.68666483  0.43179978  1
  Zn  Zn162  1  0.93645991  0.68853605  0.93938908  1
  Zn  Zn163  1  0.06373409  0.31244893  0.06701432  1
  Zn  Zn164  1  0.06607542  0.30899855  0.56349883  1
  Zn  Zn165  1  0.06689614  0.81036532  0.05916904  1
  Zn  Zn166  1  0.07452060  0.81113757  0.56523910  1
  Zn  Zn167  1  0.55898907  0.30984732  0.06493892  1
  Zn  Zn168  1  0.55728861  0.31620147  0.56578561  1
  Zn  Zn169  1  0.56332065  0.81110671  0.06600480  1
  Zn  Zn170  1  0.56201835  0.81799934  0.56164693  1
  O  O171  1  0.12095129  0.12050523  0.11940536  1
  O  O172  1  0.12097140  0.11375171  0.61916120  1
  O  O173  1  0.11929465  0.61851128  0.12027752  1
  O  O174  1  0.13026530  0.61457144  0.61080009  1
  O  O175  1  0.63404648  0.12388154  0.11042858  1
  O  O176  1  0.62575382  0.12071315  0.61765025  1
  O  O177  1  0.60985181  0.62804638  0.12827998  1
  O  O178  1  0.63487708  0.61558170  0.63810158  1
  O  O179  1  0.36672359  0.38344460  0.37424079  1
  O  O180  1  0.38213729  0.37507047  0.88252020  1
  O  O181  1  0.38475770  0.87996122  0.36455336  1
  O  O182  1  0.37489602  0.87887516  0.88765787  1
  O  O183  1  0.88579540  0.39022664  0.36717698  1
  O  O184  1  0.87820545  0.37672025  0.88685334  1
  O  O185  1  0.87653245  0.87516850  0.38814888  1
  O  O186  1  0.88007034  0.87706392  0.88599012  1
  O  O187  1  0.24497066  -0.00113855  0.35775079  1
  O  O188  1  0.25354280  0.00570343  0.86288142  1
  O  O189  1  0.25957747  0.50346864  0.37426556  1
  O  O190  1  0.24716647  0.48602139  0.85583342  1
  O  O191  1  0.75012499  0.00257264  0.36459754  1
  O  O192  1  0.75327530  0.01319042  0.87845084  1
  O  O193  1  0.75614306  0.49785138  0.36549339  1
  O  O194  1  0.75693805  0.50618746  0.87289690  1
  O  O195  1  0.24200963  0.49055399  0.11918696  1
  O  O196  1  0.24023537  0.49109109  0.63113681  1
  O  O197  1  0.24443992  0.98784979  0.12868931  1
  O  O198  1  0.24270237  1.00590387  0.63840507  1
  O  O199  1  0.74755781  0.48759520  0.12208742  1
  O  O200  1  0.74632167  0.48983295  0.63387188  1
  O  O201  1  0.74833347  0.98960097  0.13764392  1
  O  O202  1  0.74534560  0.99129086  0.62059472  1
  O  O203  1  0.00833209  0.36784818  0.25162396  1
  O  O204  1  -0.00150956  0.36209045  0.75732952  1
  O  O205  1  0.01279222  0.87610365  0.25001798  1
  O  O206  1  0.00856508  0.87258898  0.75765352  1
  O  O207  1  0.49462488  0.35553620  0.25138757  1
  O  O208  1  0.50415638  0.37094488  0.75594484  1
  O  O209  1  0.50470442  0.87281010  0.25391656  1
  O  O210  1  0.51379078  0.87246363  0.75014550  1
  O  O211  1  0.48557252  0.13086348  0.25179255  1
  O  O212  1  0.49541169  0.13078877  0.74398015  1
  O  O213  1  0.48582929  0.63452830  0.24983757  1
  O  O214  1  0.50448554  0.64148037  0.74862363  1
  O  O215  1  0.99928679  0.13045869  0.24766508  1
  O  O216  1  0.99307175  0.13490467  0.74975304  1
  O  O217  1  0.99413874  0.62668248  0.23997059  1
  O  O218  1  0.98723999  0.62478313  0.75737185  1
  O  O219  1  0.37207766  0.25906907  0.00514726  1
  O  O220  1  0.36690224  0.23946673  0.51126725  1
  O  O221  1  0.36702289  0.75733830  0.00088118  1
  O  O222  1  0.36218228  0.75916819  0.48996186  1
  O  O223  1  0.87079284  0.25812330  0.00196918  1
  O  O224  1  0.88071601  0.24356873  0.51296968  1
  O  O225  1  0.86257414  0.75846084  -0.00102386  1
  O  O226  1  0.87118356  0.75555345  0.50483500  1
  O  O227  1  0.13241466  0.23355551  0.50541007  1
  O  O228  1  0.12914235  0.24557229  0.99487846  1
  O  O229  1  0.11944052  0.73394726  0.49294839  1
  O  O230  1  0.13618066  0.74012815  1.00119423  1
  O  O231  1  0.62520469  0.23656594  0.50814817  1
  O  O232  1  0.62833176  0.24325676  0.99448892  1
  O  O233  1  0.63471159  0.76035442  0.49153540  1
  O  O234  1  0.63889762  0.75080756  0.99867853  1
  O  O235  1  0.48890759  0.25185404  0.13547713  1
  O  O236  1  0.49142152  0.24605303  0.62862410  1
  O  O237  1  0.49552084  0.74526802  0.13645642  1
  O  O238  1  0.51113711  0.75399862  0.63910146  1
  O  O239  1  0.99952292  0.24312646  0.13459268  1
  O  O240  1  0.99218835  0.25046532  0.63343387  1
  O  O241  1  1.00410258  0.73791028  0.12417419  1
  O  O242  1  0.98949569  0.75347736  0.62627254  1
  O  O243  1  -0.00349985  0.25869802  0.36201553  1
  O  O244  1  0.00394444  0.25288274  0.86911452  1
  O  O245  1  0.01207282  0.75195549  0.37132770  1
  O  O246  1  -0.00416080  0.76222620  0.87299640  1
  O  O247  1  0.49519803  0.25180607  0.36008674  1
  O  O248  1  0.50525956  0.26155151  0.87021143  1
  O  O249  1  0.50565412  0.76272627  0.36930852  1
  O  O250  1  0.50935384  0.75746573  0.86508177  1
  O  O251  1  0.23762608  0.13003667  0.50432186  1
  O  O252  1  0.24349952  0.13103422  0.99708075  1
  O  O253  1  0.23641506  0.61739781  0.48511866  1
  O  O254  1  0.24225096  0.63565765  1.00389816  1
  O  O255  1  0.73987055  0.12116962  0.49103884  1
  O  O256  1  0.74593581  0.12971097  0.99357504  1
  O  O257  1  0.75410361  0.63969948  0.49752616  1
  O  O258  1  0.75240488  0.63383933  0.99629800  1
  O  O259  1  0.25617311  0.36976038  0.00784171  1
  O  O260  1  0.24120223  0.36323459  0.51214729  1
  O  O261  1  0.25478878  0.86961534  0.00490533  1
  O  O262  1  0.26815088  0.89731271  0.50296142  1
  O  O263  1  0.75689887  0.36954541  0.00476023  1
  O  O264  1  0.74679870  0.37471753  0.51489435  1
  O  O265  1  0.75678226  0.87211304  0.00876416  1
  O  O266  1  0.75919215  0.87070758  0.50925557  1
  O  O267  1  0.12029360  0.49322659  0.23640982  1
  O  O268  1  0.13005416  0.49405726  0.73763949  1
  O  O269  1  0.13166525  0.99416650  0.24267974  1
  O  O270  1  0.13275601  0.99797284  0.74372437  1
  O  O271  1  0.63000100  0.50583367  0.25133749  1
  O  O272  1  0.63220899  0.49495746  0.74525455  1
  O  O273  1  0.63110922  0.99577770  0.24971572  1
  O  O274  1  0.62224076  0.99726050  0.73577737  1
  O  O275  1  0.36904368  0.01475936  0.24239331  1
  O  O276  1  0.37040719  0.00734762  0.74874365  1
  O  O277  1  0.36854415  0.50768618  0.25059411  1
  O  O278  1  0.35717546  0.49957345  0.74697672  1
  O  O279  1  0.86822680  0.00483813  0.25312931  1
  O  O280  1  0.88308904  0.01470062  0.74763891  1
  O  O281  1  0.88014440  0.51612275  0.25836459  1
  O  O282  1  0.87095384  0.50466594  0.75603193  1
  O  O283  1  0.11875934  0.38595592  0.36057114  1
  O  O284  1  0.11664336  0.36445287  0.87520498  1
  O  O285  1  0.12609122  0.86616359  0.36829514  1
  O  O286  1  0.11636340  0.87948917  0.86300949  1
  O  O287  1  0.63639918  0.38432078  0.35671281  1
  O  O288  1  0.61873603  0.37075222  0.87042646  1
  O  O289  1  0.62364602  0.86993822  0.36398389  1
  O  O290  1  0.63364821  0.88023221  0.85993789  1
  O  O291  1  0.37217703  0.13619587  0.12051884  1
  O  O292  1  0.37983972  0.13215395  0.63506177  1
  O  O293  1  0.38107594  0.62616596  0.13376179  1
  O  O294  1  0.33758331  0.63663311  0.63835647  1
  O  O295  1  0.88246834  0.12413050  0.13201643  1
  O  O296  1  0.87449238  0.13382321  0.63128751  1
  O  O297  1  0.88395070  0.62042646  0.13528008  1
  O  O298  1  0.86908781  0.63233700  0.63444772  1
  O  O299  1  0.25730359  0.25797274  0.11744363  1
  O  O300  1  0.25626014  0.25509905  0.61930657  1
  O  O301  1  0.25063397  0.76307232  0.12192751  1
  O  O302  1  0.23592419  0.77732151  0.60688872  1
  O  O303  1  0.75526050  0.25955503  0.11841690  1
  O  O304  1  0.75787720  0.26441852  0.63121483  1
  O  O305  1  0.74620248  0.76309113  0.12177017  1
  O  O306  1  0.76030913  0.75923464  0.61792351  1
  O  O307  1  0.25295604  0.25277613  0.38889221  1
  O  O308  1  0.24231374  0.25058422  0.88045955  1
  O  O309  1  0.23418929  0.73927691  0.37132224  1
  O  O310  1  0.25019820  0.75582960  0.88198039  1
  O  O311  1  0.75454180  0.24011771  0.36850179  1
  O  O312  1  0.74436949  0.24162276  0.88188174  1
  O  O313  1  0.74203670  0.75300977  0.38559184  1
  O  O314  1  0.75021366  0.74245717  0.88355065  1
  O  O315  1  0.00469592  0.11983372  0.00459865  1
  O  O316  1  0.01187168  0.11821144  0.49947814  1
  O  O317  1  0.00502585  0.62087287  0.00695115  1
  O  O318  1  0.01075959  0.62188486  0.49681644  1
  O  O319  1  0.51031848  0.11820519  -0.00652638  1
  O  O320  1  0.51474973  0.12294419  0.50434741  1
  O  O321  1  0.49821788  0.62840756  0.01234503  1
  O  O322  1  0.51018044  0.60930580  0.45997790  1
  O  O323  1  0.53157657  0.39124857  0.48614956  1
  O  O324  1  0.49146602  0.37466594  0.99266887  1
  O  O325  1  0.50547991  0.88693016  0.48902827  1
  O  O326  1  0.49284046  0.87942414  1.00046380  1
  O  O327  1  1.00803790  0.36674902  0.48429543  1
  O  O328  1  0.99311417  0.37894219  0.99866414  1
  O  O329  1  0.99457086  0.88117391  0.50161616  1
  O  O330  1  0.99465813  0.87716794  0.99525791  1
  O  O331  1  0.47415390  0.48732871  0.35964479  1
  O  O332  1  0.49981088  0.48828820  0.87419265  1
  O  O333  1  0.50835799  0.99198136  0.38373136  1
  O  O334  1  0.49890267  0.99442996  0.88697013  1
  O  O335  1  0.98975776  0.49328259  0.37413435  1
  O  O336  1  0.99530674  0.49105827  0.88089988  1
  O  O337  1  1.00006024  0.99520551  0.38760476  1
  O  O338  1  0.99747524  0.98975099  0.88168468  1
  O  O339  1  0.00705890  0.00546348  0.11807829  1
  O  O340  1  0.00581650  0.00468856  0.61310193  1
  O  O341  1  0.00815617  0.50776572  0.11823156  1
  O  O342  1  0.01352484  0.49503840  0.62971113  1
  O  O343  1  0.50332699  -0.00290630  0.11057660  1
  O  O344  1  0.51034298  0.00818261  0.61935768  1
  O  O345  1  0.50031110  0.50956301  0.12641819  1
  O  O346  1  0.51533458  0.50096288  0.62734538  1
  O  O347  1  0.24267539  0.36788352  0.23723315  1
  O  O348  1  0.24525634  0.37606047  0.73501285  1
  O  O349  1  0.24148446  0.87969173  0.24285847  1
  O  O350  1  0.24317453  0.88519827  0.75486377  1
  O  O351  1  0.75310600  0.37749166  0.24096625  1
  O  O352  1  0.74476078  0.38110663  0.75166525  1
  O  O353  1  0.74572737  0.87949499  0.24660726  1
  O  O354  1  0.74893541  0.87063358  0.73785064  1
  O  O355  1  0.26377790  0.11718455  0.24269723  1
  O  O356  1  0.25926695  0.12055263  0.75065218  1
  O  O357  1  0.25730778  0.63021992  0.25899412  1
  O  O358  1  0.23208147  0.60833180  0.75510719  1
  O  O359  1  0.75472258  0.11790512  0.25595577  1
  O  O360  1  0.75831488  0.13142437  0.75949731  1
  O  O361  1  0.76367832  0.62999643  0.24729692  1
  O  O362  1  0.76162465  0.62064165  0.75997146  1
  O  O363  1  0.37361551  0.12463076  0.36468578  1
  O  O364  1  0.37655232  0.12732008  0.86047266  1
  O  O365  1  0.36320785  0.61502729  0.36813877  1
  O  O366  1  0.37795406  0.62148152  0.86144318  1
  O  O367  1  0.86795016  0.12150890  0.36928919  1
  O  O368  1  0.86623339  0.12397297  0.86656639  1
  O  O369  1  0.87205318  0.61498527  0.36609714  1
  O  O370  1  0.86679540  0.62025718  0.87167637  1
  O  O371  1  0.13258544  0.38283971  0.13106474  1
  O  O372  1  0.12941498  0.38480802  0.62436844  1
  O  O373  1  0.13106472  0.87889238  0.13061049  1
  O  O374  1  0.11592438  0.89260382  0.63463679  1
  O  O375  1  0.63642087  0.37422038  0.12122737  1
  O  O376  1  0.63684461  0.37793392  0.63440472  1
  O  O377  1  0.63223275  0.87724738  0.13830409  1
  O  O378  1  0.63598094  0.88388140  0.63249096  1
  O  O379  1  0.11841313  0.26068377  0.24447554  1
  O  O380  1  0.11593384  0.24843864  0.75493690  1
  O  O381  1  0.12240846  0.75850747  0.25511869  1
  O  O382  1  0.12789389  0.76245595  0.73878384  1
  O  O383  1  0.60790652  0.23827054  0.24487042  1
  O  O384  1  0.61773826  0.25563902  0.75518156  1
  O  O385  1  0.61134818  0.76081711  0.25490685  1
  O  O386  1  0.62311327  0.76271128  0.75205312  1
  O  O387  1  0.37645361  0.23555560  0.24183699  1
  O  O388  1  0.37926205  0.24471587  0.74143102  1
  O  O389  1  0.38190264  0.74694625  0.25099927  1
  O  O390  1  0.39572318  0.75672635  0.75000134  1
  O  O391  1  0.88625881  0.24158398  0.24619772  1
  O  O392  1  0.88185943  0.24088629  0.74456858  1
  O  O393  1  0.88031655  0.73272764  0.25731628  1
  O  O394  1  0.87732628  0.74124991  0.74124300  1
  O  O395  1  0.37621038  0.49734684  0.48952801  1
  O  O396  1  0.37574848  0.48791438  0.99709281  1
  O  O397  1  0.39607325  1.01673510  0.50381318  1
  O  O398  1  0.38133611  0.99355707  0.99819959  1
  O  O399  1  0.86867337  0.50627584  0.48106067  1
  O  O400  1  0.88070795  0.49339543  0.99491631  1
  O  O401  1  0.88413891  0.99246755  0.50071766  1
  O  O402  1  0.88247982  0.99184579  0.99874579  1
  O  O403  1  0.12032090  0.00417210  0.00352504  1
  O  O404  1  0.12170652  0.00736162  0.50533621  1
  O  O405  1  0.12153600  0.50504965  0.00983210  1
  O  O406  1  0.12449505  0.50622798  0.51085184  1
  O  O407  1  0.61871034  0.00792562  0.00247480  1
  O  O408  1  0.62026395  0.00740807  0.51173889  1
  O  O409  1  0.61941772  0.50732764  0.00738168  1
  O  O410  1  0.63638195  0.51246491  0.52318577  1
  O  O411  1  0.36836761  0.36909660  0.11887012  1
  O  O412  1  0.36789511  0.36487364  0.62597750  1
  O  O413  1  0.36672658  0.87455072  0.11433998  1
  O  O414  1  0.37793613  0.86898523  0.61965770  1
  O  O415  1  0.87182669  0.37744257  0.11451958  1
  O  O416  1  0.86091880  0.36885928  0.62900228  1
  O  O417  1  0.86870935  0.87823658  0.11379852  1
  O  O418  1  0.87237223  0.86946101  0.61751108  1
  O  O419  1  0.12562338  0.12169690  0.38818700  1
  O  O420  1  0.12382649  0.13356791  0.88073839  1
  O  O421  1  0.12656738  0.62657767  0.38196128  1
  O  O422  1  0.11844109  0.61728289  0.88982908  1
  O  O423  1  0.63326391  0.12358533  0.38835773  1
  O  O424  1  0.63206433  0.12963130  0.88119662  1
  O  O425  1  0.63338266  0.64669754  0.35861901  1
  O  O426  1  0.64065148  0.62476600  0.87651561  1
