# generated using pymatgen
data_V85Zn86O256
_symmetry_space_group_name_H-M   'P 1'
_cell_length_a   16.93197709
_cell_length_b   16.93302053
_cell_length_c   16.92626814
_cell_angle_alpha   89.92815876
_cell_angle_beta   89.88174510
_cell_angle_gamma   90.08135053
_symmetry_Int_Tables_number   1
_chemical_formula_structural   V85Zn86O256
_chemical_formula_sum   'V85 Zn86 O256'
_cell_volume   4852.90308008
_cell_formula_units_Z   1
loop_
 _symmetry_equiv_pos_site_id
 _symmetry_equiv_pos_as_xyz
  1  'x, y, z'
loop_
 _atom_site_type_symbol
 _atom_site_label
 _atom_site_symmetry_multiplicity
 _atom_site_fract_x
 _atom_site_fract_y
 _atom_site_fract_z
 _atom_site_occupancy
  V  V0  1  0.12404671  0.86884489  0.25008667  1
  V  V1  1  0.25131627  0.37609568  0.12374465  1
  V  V2  1  0.62750157  0.00421687  0.11624715  1
  V  V3  1  0.12395837  0.50337208  0.12086011  1
  V  V4  1  0.86388268  0.74327579  0.12973848  1
  V  V5  1  0.62365473  0.24497760  0.38425223  1
  V  V6  1  0.00373386  0.00108317  0.50933630  1
  V  V7  1  0.74549422  0.63711036  0.88685558  1
  V  V8  1  -0.00299817  0.74369906  0.25433806  1
  V  V9  1  0.24957675  0.50080981  0.24920636  1
  V  V10  1  0.00458065  0.87136584  0.37711106  1
  V  V11  1  0.24721165  -0.00095857  0.24764163  1
  V  V12  1  0.61368264  0.86682183  0.75296095  1
  V  V13  1  0.12357425  0.37344053  0.24982047  1
  V  V14  1  0.24903750  0.12585548  0.37508533  1
  V  V15  1  0.74825757  0.87061234  0.12158419  1
  V  V16  1  0.63213829  0.49635692  0.11844143  1
  V  V17  1  -0.00304361  0.37282110  0.87356603  1
  V  V18  1  0.86915670  0.37598641  0.50719169  1
  V  V19  1  0.12016681  0.12648464  0.00698729  1
  V  V20  1  -0.00011801  0.24598625  0.24608105  1
  V  V21  1  -0.00356174  0.63117280  0.62391108  1
  V  V22  1  0.87371874  0.63617428  0.74927764  1
  V  V23  1  0.37568334  0.12523320  0.24685056  1
  V  V24  1  0.12024981  0.24959906  0.87012825  1
  V  V25  1  0.38075509  0.37786870  -0.00216607  1
  V  V26  1  0.12070847  0.37750124  0.74988466  1
  V  V27  1  0.24950442  0.25112193  -0.00139596  1
  V  V28  1  0.37345539  0.87261026  0.49758137  1
  V  V29  1  0.25425926  0.12491174  0.86960393  1
  V  V30  1  0.87154042  0.24830993  0.12560645  1
  V  V31  1  0.24930443  0.25383751  0.49889047  1
  V  V32  1  0.24833246  0.38128700  0.62385398  1
  V  V33  1  0.38135848  0.63030499  0.74729066  1
  V  V34  1  0.23510171  0.74508542  0.50058609  1
  V  V35  1  0.38073159  0.37856747  0.49885661  1
  V  V36  1  0.49786508  0.75183699  0.24806039  1
  V  V37  1  0.74279725  0.23141567  0.00286557  1
  V  V38  1  0.74900487  0.00413538  0.75909169  1
  V  V39  1  0.61173077  0.75167203  0.88515844  1
  V  V40  1  0.37460354  0.87637708  -0.00780240  1
  V  V41  1  0.63833556  0.37025917  0.24719165  1
  V  V42  1  0.50696125  0.62142150  0.11914856  1
  V  V43  1  0.62412608  0.87607949  0.24590502  1
  V  V44  1  0.87393868  0.86867884  0.00124071  1
  V  V45  1  -0.00100670  0.00233632  0.00914324  1
  V  V46  1  0.62369993  -0.00121901  0.61040875  1
  V  V47  1  0.37217516  0.75168204  0.12121713  1
  V  V48  1  0.50313398  0.24969016  0.25144200  1
  V  V49  1  0.75672760  0.50578527  0.24596310  1
  V  V50  1  0.86219276  0.37428795  0.00395856  1
  V  V51  1  0.74803853  0.12077771  0.38472032  1
  V  V52  1  0.62920928  0.23486689  0.87327614  1
  V  V53  1  0.87299116  0.50396371  0.87739862  1
  V  V54  1  0.37524094  0.24706357  0.63579404  1
  V  V55  1  0.87262116  -0.00229865  0.38077946  1
  V  V56  1  0.13198201  0.88613306  0.74600299  1
  V  V57  1  0.25002167  0.50581000  0.74835807  1
  V  V58  1  0.50118744  0.87641104  0.37725967  1
  V  V59  1  0.38224902  0.00082051  0.37258757  1
  V  V60  1  0.13009854  0.11978032  0.50804349  1
  V  V61  1  0.37887663  0.50104905  0.87147515  1
  V  V62  1  0.75099380  0.49324124  0.74570429  1
  V  V63  1  -0.00359163  0.13324515  0.63329244  1
  V  V64  1  0.12520973  0.51150591  0.62068597  1
  V  V65  1  0.50586060  0.12678919  0.11712935  1
  V  V66  1  0.75811062  0.86666142  0.63238980  1
  V  V67  1  0.23487565  0.62939190  0.37445467  1
  V  V68  1  0.50722872  0.37699171  0.86809090  1
  V  V69  1  0.12414852  0.74840957  0.87817137  1
  V  V70  1  0.50500210  0.52180903  0.49979926  1
  V  V71  1  0.74790842  0.24993527  0.51047532  1
  V  V72  1  0.00181831  0.50468445  0.00063812  1
  V  V73  1  0.37826260  0.25110524  0.12310803  1
  V  V74  1  0.37556253  0.00094992  0.86297015  1
  V  V75  1  0.87311321  0.50374229  0.37340919  1
  V  V76  1  0.38473755  0.74755249  0.62533881  1
  V  V77  1  0.37363395  0.62404607  0.24915143  1
  V  V78  1  0.50055000  -0.00028958  -0.00979583  1
  V  V79  1  0.00004293  0.62768509  0.12426470  1
  V  V80  1  0.00249097  0.50203439  0.49840786  1
  V  V81  1  0.00168689  0.87746544  0.87525429  1
  V  V82  1  0.88066579  0.86270241  0.50907456  1
  V  V83  1  0.87985338  0.12218601  0.25004468  1
  V  V84  1  0.24571929  0.62498496  0.88323742  1
  Zn  Zn85  1  0.25363698  0.01616672  0.72934493  1
  Zn  Zn86  1  0.51218338  0.50535078  -0.00769848  1
  Zn  Zn87  1  0.61990104  0.73207084  0.39182271  1
  Zn  Zn88  1  0.24727487  0.88729190  0.61685055  1
  Zn  Zn89  1  0.49836944  0.24109238  0.75217175  1
  Zn  Zn90  1  0.50121445  0.37820811  0.37395373  1
  Zn  Zn91  1  0.37524055  0.50071485  0.37315092  1
  Zn  Zn92  1  -0.00027975  0.75637132  0.74531799  1
  Zn  Zn93  1  0.87283017  0.25773233  0.63535515  1
  Zn  Zn94  1  0.12027026  0.00341486  0.12894703  1
  Zn  Zn95  1  0.24748378  0.87635180  0.12204754  1
  Zn  Zn96  1  0.75111703  -0.00073665  0.25058239  1
  Zn  Zn97  1  0.74879142  0.73947429  0.50408981  1
  Zn  Zn98  1  0.74824481  0.62539844  0.38165729  1
  Zn  Zn99  1  -0.00217149  0.37281489  0.37559490  1
  Zn  Zn100  1  0.24486725  0.75031390  0.00069756  1
  Zn  Zn101  1  0.87043230  0.13328415  0.76233923  1
  Zn  Zn102  1  0.12147974  0.24911522  0.37610019  1
  Zn  Zn103  1  0.50328159  0.11604486  0.62021775  1
  Zn  Zn104  1  0.86819100  0.00356681  0.88106585  1
  Zn  Zn105  1  0.63489192  0.36991498  0.74242481  1
  Zn  Zn106  1  0.62965389  0.50468536  0.61266220  1
  Zn  Zn107  1  0.18879749  0.18874904  0.18653158  1
  Zn  Zn108  1  0.18543956  0.19172174  0.68550201  1
  Zn  Zn109  1  0.18393727  0.68789721  0.18571802  1
  Zn  Zn110  1  0.18974567  0.69428814  0.69104911  1
  Zn  Zn111  1  0.69208973  0.18451020  0.19089942  1
  Zn  Zn112  1  0.67986445  0.17900852  0.68704520  1
  Zn  Zn113  1  0.67589591  0.67400672  0.21742681  1
  Zn  Zn114  1  0.69043415  0.68658822  0.68516997  1
  Zn  Zn115  1  0.31384513  0.31278334  0.31325298  1
  Zn  Zn116  1  0.30756629  0.31808173  0.81377533  1
  Zn  Zn117  1  0.30880990  0.81002710  0.31281890  1
  Zn  Zn118  1  0.31182480  0.81366531  0.81151031  1
  Zn  Zn119  1  0.81383900  0.31179857  0.32139659  1
  Zn  Zn120  1  0.81332682  0.30605665  0.81724513  1
  Zn  Zn121  1  0.81214082  0.80915003  0.31483028  1
  Zn  Zn122  1  0.81187948  0.81521602  0.81487659  1
  Zn  Zn123  1  0.18730269  0.44091749  0.43474890  1
  Zn  Zn124  1  0.18746294  0.43896225  0.93698183  1
  Zn  Zn125  1  0.18892632  0.93773494  0.43653623  1
  Zn  Zn126  1  0.18892026  0.94006805  0.93594285  1
  Zn  Zn127  1  0.68620957  0.43535903  0.43583494  1
  Zn  Zn128  1  0.68810128  0.43648628  0.93079689  1
  Zn  Zn129  1  0.67893773  0.89642064  0.45059125  1
  Zn  Zn130  1  0.68502074  0.93089132  0.93773301  1
  Zn  Zn131  1  0.31255131  0.06322949  0.05815941  1
  Zn  Zn132  1  0.33742714  0.06612079  0.55862404  1
  Zn  Zn133  1  0.31531783  0.56210657  0.06134486  1
  Zn  Zn134  1  0.31638180  0.56651724  0.55842876  1
  Zn  Zn135  1  0.81685538  0.05995419  0.06537462  1
  Zn  Zn136  1  0.81202243  0.05648238  0.56752851  1
  Zn  Zn137  1  0.81140337  0.56315951  0.06527671  1
  Zn  Zn138  1  0.81258255  0.56661977  0.56194826  1
  Zn  Zn139  1  0.44420148  0.43681820  0.18792136  1
  Zn  Zn140  1  0.44319562  0.43946363  0.68300958  1
  Zn  Zn141  1  0.43740874  0.93850457  0.18221165  1
  Zn  Zn142  1  0.43833761  0.93313118  0.68315234  1
  Zn  Zn143  1  0.93641900  0.43300292  0.18553347  1
  Zn  Zn144  1  0.93565651  0.44165510  0.68899431  1
  Zn  Zn145  1  0.93631371  0.93430296  0.18941975  1
  Zn  Zn146  1  0.93769949  0.94327126  0.69089531  1
  Zn  Zn147  1  0.06189414  0.06101971  0.31907541  1
  Zn  Zn148  1  0.06115023  0.06188916  0.81843636  1
  Zn  Zn149  1  0.05837777  0.56041177  0.30989194  1
  Zn  Zn150  1  0.06140937  0.56510048  0.81062650  1
  Zn  Zn151  1  0.56556467  0.06245287  0.30845134  1
  Zn  Zn152  1  0.56042490  0.06136680  0.80056771  1
  Zn  Zn153  1  0.56251607  0.55704400  0.31104670  1
  Zn  Zn154  1  0.58554952  0.58860911  0.77247998  1
  Zn  Zn155  1  0.44008595  0.18413916  0.44552084  1
  Zn  Zn156  1  0.44024771  0.18683728  0.93326158  1
  Zn  Zn157  1  0.43046773  0.69230956  0.43245070  1
  Zn  Zn158  1  0.43545360  0.68554612  0.93643096  1
  Zn  Zn159  1  0.93691790  0.18853409  0.44018152  1
  Zn  Zn160  1  0.93582748  0.18616838  0.93801142  1
  Zn  Zn161  1  0.93950602  0.68332682  0.43620071  1
  Zn  Zn162  1  0.93797626  0.68988435  0.93944060  1
  Zn  Zn163  1  0.05742119  0.31340769  0.06201532  1
  Zn  Zn164  1  0.06200426  0.31587571  0.56238817  1
  Zn  Zn165  1  0.06230560  0.81297141  0.06417346  1
  Zn  Zn166  1  0.06489977  0.81375580  0.56555798  1
  Zn  Zn167  1  0.56755605  0.31493277  0.05947295  1
  Zn  Zn168  1  0.56381360  0.31969241  0.56785830  1
  Zn  Zn169  1  0.55832552  0.81364384  0.05856208  1
  Zn  Zn170  1  0.56238953  0.81643590  0.56672323  1
  O  O171  1  0.13076796  0.12523450  0.11125140  1
  O  O172  1  0.11693219  0.13087353  0.61343261  1
  O  O173  1  0.11061220  0.61958213  0.12673567  1
  O  O174  1  0.11998976  0.61531286  0.63355242  1
  O  O175  1  0.61818335  0.11636309  0.12974192  1
  O  O176  1  0.62624479  0.10429062  0.61757747  1
  O  O177  1  0.61681621  0.61282867  0.13411406  1
  O  O178  1  0.61801680  0.60678879  0.66280090  1
  O  O179  1  0.37568959  0.37748330  0.38380851  1
  O  O180  1  0.38103662  0.37976876  0.88145303  1
  O  O181  1  0.38313624  0.87848803  0.37387484  1
  O  O182  1  0.37099288  0.88423897  0.88188652  1
  O  O183  1  0.87746310  0.38233722  0.38797547  1
  O  O184  1  0.88121823  0.38283468  0.88420623  1
  O  O185  1  0.88562405  0.88133490  0.38273164  1
  O  O186  1  0.88307766  0.87691269  0.88517060  1
  O  O187  1  0.25694406  0.00377961  0.36248782  1
  O  O188  1  0.25960580  0.01059926  0.87404132  1
  O  O189  1  0.25217470  0.50950578  0.36599514  1
  O  O190  1  0.25524991  0.50608104  0.86915221  1
  O  O191  1  0.76332083  0.00248364  0.37612553  1
  O  O192  1  0.74876121  -0.00808847  0.86332559  1
  O  O193  1  0.75648161  0.49816067  0.36519200  1
  O  O194  1  0.76348057  0.50918107  0.87650519  1
  O  O195  1  0.24456418  0.49572487  0.12867479  1
  O  O196  1  0.24327510  0.50026848  0.62583260  1
  O  O197  1  0.25057868  1.00160301  0.13792237  1
  O  O198  1  0.26523127  1.00050468  0.61876232  1
  O  O199  1  0.74509806  0.49726824  0.13156774  1
  O  O200  1  0.75428511  0.50191628  0.64335027  1
  O  O201  1  0.74265104  0.99215465  0.12631123  1
  O  O202  1  0.74251763  0.98906093  0.63488957  1
  O  O203  1  0.00893730  0.36651965  0.25021185  1
  O  O204  1  0.00390373  0.38577338  0.76607217  1
  O  O205  1  0.00567017  0.86868199  0.25799896  1
  O  O206  1  0.00884634  0.87836034  0.75845991  1
  O  O207  1  0.50805267  0.36454501  0.25329855  1
  O  O208  1  0.49976499  0.37245462  0.76128755  1
  O  O209  1  0.50333583  0.87313180  0.25345857  1
  O  O210  1  0.51510348  0.87324496  0.74894886  1
  O  O211  1  0.49521686  0.12950428  0.23804843  1
  O  O212  1  0.50235808  0.12894001  0.73473088  1
  O  O213  1  0.48939885  0.62854041  0.23899033  1
  O  O214  1  0.47902200  0.62562327  0.76264708  1
  O  O215  1  0.98892882  0.12974701  0.25622897  1
  O  O216  1  1.00595015  0.11779893  0.73393575  1
  O  O217  1  1.00170902  0.63603237  0.24302919  1
  O  O218  1  0.99103703  0.62602641  0.74301989  1
  O  O219  1  0.37175657  0.26099387  0.00167934  1
  O  O220  1  0.36197047  0.25995965  0.50839720  1
  O  O221  1  0.37310811  0.75828425  0.00469974  1
  O  O222  1  0.36667790  0.75616663  0.50608515  1
  O  O223  1  0.86559868  0.25334405  0.00716578  1
  O  O224  1  0.86625421  0.25813381  0.50294833  1
  O  O225  1  0.88175548  0.76203562  0.01232209  1
  O  O226  1  0.87974282  0.76090986  0.49870861  1
  O  O227  1  0.13641287  0.24801360  0.49897765  1
  O  O228  1  0.12842996  0.24666941  0.99367683  1
  O  O229  1  0.13619325  0.75051612  0.50026624  1
  O  O230  1  0.12618895  0.75794406  0.98497562  1
  O  O231  1  0.62932193  0.25409380  0.49081392  1
  O  O232  1  0.63675410  0.24841525  0.99474451  1
  O  O233  1  0.63789235  0.78632994  0.48982852  1
  O  O234  1  0.62428740  0.75654028  0.98536851  1
  O  O235  1  0.49811426  0.24377158  0.12747260  1
  O  O236  1  0.48185235  0.25005867  0.62106941  1
  O  O237  1  0.48903143  0.74389676  0.12726254  1
  O  O238  1  0.48387715  0.75164920  0.61947252  1
  O  O239  1  0.99200131  0.25059993  0.13765384  1
  O  O240  1  0.99899108  0.23617586  0.61890849  1
  O  O241  1  0.99409262  0.74343138  0.13137536  1
  O  O242  1  1.00648402  0.73524798  0.62553209  1
  O  O243  1  0.00040155  0.25161752  0.36250969  1
  O  O244  1  0.00871050  0.26252096  0.88549394  1
  O  O245  1  -0.00433580  0.75797299  0.36689509  1
  O  O246  1  0.00560263  0.76174962  0.87470252  1
  O  O247  1  0.50783348  0.24250001  0.37211223  1
  O  O248  1  0.51280085  0.25571018  0.87526659  1
  O  O249  1  0.50238995  0.75911644  0.36582920  1
  O  O250  1  0.51253212  0.74561405  0.87730788  1
  O  O251  1  0.24589408  0.13485591  0.49561346  1
  O  O252  1  0.24360102  0.13216029  0.99070355  1
  O  O253  1  0.25266926  0.63633814  0.48933868  1
  O  O254  1  0.25282853  0.62492214  0.98725125  1
  O  O255  1  0.75925522  0.12928293  0.48985403  1
  O  O256  1  0.75196694  0.13322554  1.00223766  1
  O  O257  1  0.74536315  0.62505672  0.49793172  1
  O  O258  1  0.75397186  0.62313119  0.98498478  1
  O  O259  1  0.25786457  0.37093896  0.00432418  1
  O  O260  1  0.25588171  0.37194075  0.50215287  1
  O  O261  1  0.26053572  0.87610511  0.00262896  1
  O  O262  1  0.25361819  0.86069896  0.49469096  1
  O  O263  1  0.76085352  0.36825503  -0.00383576  1
  O  O264  1  0.75768836  0.36421549  0.49534001  1
  O  O265  1  0.75795917  0.87673218  0.01331244  1
  O  O266  1  0.76955757  0.87825093  0.51582201  1
  O  O267  1  0.12796871  0.49140208  0.24158767  1
  O  O268  1  0.13044251  0.49694377  0.74307939  1
  O  O269  1  0.13046081  0.99330206  0.25032663  1
  O  O270  1  0.13026511  0.98870353  0.75758653  1
  O  O271  1  0.63666695  0.48782198  0.24282599  1
  O  O272  1  0.64947060  0.49141848  0.77338814  1
  O  O273  1  0.62439582  0.99157060  0.23446568  1
  O  O274  1  0.63535891  0.98576130  0.74988496  1
  O  O275  1  0.36767582  0.00392502  0.25329883  1
  O  O276  1  0.37427706  -0.00759936  0.76013766  1
  O  O277  1  0.36889119  0.50777897  0.24675627  1
  O  O278  1  0.36826060  0.50687660  0.75132215  1
  O  O279  1  0.87657193  0.00596254  0.25907551  1
  O  O280  1  0.85926355  0.00078958  0.75236400  1
  O  O281  1  0.86663525  0.48282285  0.25995090  1
  O  O282  1  0.86987054  0.50778220  0.76146012  1
  O  O283  1  0.12589021  0.37349296  0.36018184  1
  O  O284  1  0.11733022  0.36984606  0.87261516  1
  O  O285  1  0.11169040  0.88110569  0.36739057  1
  O  O286  1  0.12028837  0.87155237  0.86729928  1
  O  O287  1  0.62264558  0.36199472  0.36589562  1
  O  O288  1  0.61811877  0.36422095  0.87474561  1
  O  O289  1  0.61167815  0.88814175  0.35872758  1
  O  O290  1  0.62840217  0.86176942  0.86564677  1
  O  O291  1  0.38138806  0.13153390  0.12811670  1
  O  O292  1  0.35106177  0.15093330  0.64151322  1
  O  O293  1  0.37830881  0.63108780  0.13223163  1
  O  O294  1  0.36899068  0.63921197  0.63099669  1
  O  O295  1  0.87113476  0.13561031  0.13614178  1
  O  O296  1  0.89029753  0.12422631  0.62515692  1
  O  O297  1  0.88679532  0.63291105  0.12016517  1
  O  O298  1  0.88502699  0.61840002  0.63737180  1
  O  O299  1  0.25809111  0.25684063  0.11893817  1
  O  O300  1  0.25129164  0.26409686  0.61863457  1
  O  O301  1  0.26052813  0.74894084  0.12173395  1
  O  O302  1  0.25339065  0.75252301  0.61014824  1
  O  O303  1  0.75446885  0.24674016  0.11265913  1
  O  O304  1  0.74708462  0.24078603  0.61279047  1
  O  O305  1  0.75995877  0.75323876  0.13573705  1
  O  O306  1  0.75188855  0.76230614  0.62624983  1
  O  O307  1  0.24893961  0.24432242  0.38248045  1
  O  O308  1  0.24215816  0.24749149  0.88142729  1
  O  O309  1  0.25292924  0.74193396  0.38664060  1
  O  O310  1  0.24297308  0.74183650  0.87595938  1
  O  O311  1  0.74309879  0.23950441  0.38433789  1
  O  O312  1  0.73807831  0.25096685  0.88939466  1
  O  O313  1  0.74587655  0.74819858  0.37937445  1
  O  O314  1  0.75068442  0.73961117  0.87745493  1
  O  O315  1  0.00884790  0.11580640  -0.00096806  1
  O  O316  1  0.00876738  0.11884225  0.50531493  1
  O  O317  1  -0.00377730  0.61248117  0.00578081  1
  O  O318  1  -0.00505428  0.61122559  0.50818124  1
  O  O319  1  0.49467879  0.11844959  0.01146261  1
  O  O320  1  0.44485639  0.10644996  0.52307421  1
  O  O321  1  0.49189948  0.62135035  0.01482489  1
  O  O322  1  0.50036921  0.62103922  0.48931728  1
  O  O323  1  0.48592635  0.37230913  0.49567731  1
  O  O324  1  0.49421050  0.37586739  0.98969596  1
  O  O325  1  0.48846334  0.87143929  0.48532359  1
  O  O326  1  0.48563104  0.88739136  1.00570239  1
  O  O327  1  0.99478565  0.38578741  0.49791413  1
  O  O328  1  0.99185000  0.38490025  0.99280885  1
  O  O329  1  1.00004021  0.88131896  0.49632147  1
  O  O330  1  0.99434346  0.88068566  0.99560522  1
  O  O331  1  0.49578169  0.49857990  0.38308470  1
  O  O332  1  0.49299977  0.49103767  0.87679001  1
  O  O333  1  0.48809783  0.99598385  0.36624845  1
  O  O334  1  0.49385766  1.00879385  0.88519221  1
  O  O335  1  0.99442283  0.49689827  0.38183916  1
  O  O336  1  0.99113362  0.49852585  0.88273227  1
  O  O337  1  0.99098123  0.99334459  0.38481177  1
  O  O338  1  1.00277409  0.98767732  0.88777865  1
  O  O339  1  0.00045115  -0.00495608  0.11403304  1
  O  O340  1  -0.00007777  0.00884443  0.61369742  1
  O  O341  1  0.00172428  0.50622885  0.11975241  1
  O  O342  1  0.00726616  0.50802077  0.61921491  1
  O  O343  1  0.50605484  0.00817549  0.11525788  1
  O  O344  1  0.52019431  -0.01108881  0.62539776  1
  O  O345  1  0.51024517  0.50649390  0.12282507  1
  O  O346  1  0.49312380  0.50402746  0.60151640  1
  O  O347  1  0.24449851  0.37891740  0.24278068  1
  O  O348  1  0.24171165  0.38674329  0.74490476  1
  O  O349  1  0.24093293  0.88121925  0.25014635  1
  O  O350  1  0.23776492  0.87851043  0.74859954  1
  O  O351  1  0.74128051  0.37345148  0.25353751  1
  O  O352  1  0.75829024  0.39029300  0.75858739  1
  O  O353  1  0.74199800  0.87779169  0.23983121  1
  O  O354  1  0.74851425  0.88162873  0.74587660  1
  O  O355  1  0.25419357  0.11942988  0.25448072  1
  O  O356  1  0.23815255  0.12810914  0.76577487  1
  O  O357  1  0.25460677  0.62160003  0.25237734  1
  O  O358  1  0.25596281  0.62159892  0.75887816  1
  O  O359  1  0.76306094  0.12197334  0.26242698  1
  O  O360  1  0.74750185  0.10686026  0.74711778  1
  O  O361  1  0.76601297  0.60693608  0.24471920  1
  O  O362  1  0.76085003  0.61668256  0.76313943  1
  O  O363  1  0.36932701  0.11696694  0.36622584  1
  O  O364  1  0.36533179  0.11737049  0.87933007  1
  O  O365  1  0.36721931  0.62715339  0.35832810  1
  O  O366  1  0.36471705  0.62004274  0.87016749  1
  O  O367  1  0.87102299  0.11693831  0.37166388  1
  O  O368  1  0.88390218  0.11463530  0.87378950  1
  O  O369  1  0.87593411  0.60734834  0.37656694  1
  O  O370  1  0.87111755  0.62081138  0.87154540  1
  O  O371  1  0.12923915  0.37867829  0.13330237  1
  O  O372  1  0.12819181  0.38561916  0.63078249  1
  O  O373  1  0.12733332  0.87947296  0.13508051  1
  O  O374  1  0.12586504  0.87405708  0.64181916  1
  O  O375  1  0.61981789  0.38231506  0.13613589  1
  O  O376  1  0.61783589  0.39046298  0.63264874  1
  O  O377  1  0.63065623  0.88137870  0.12539352  1
  O  O378  1  0.63523488  0.87772419  0.63893969  1
  O  O379  1  0.11768915  0.25511169  0.24899254  1
  O  O380  1  0.12690578  0.25890925  0.76329884  1
  O  O381  1  0.11594583  0.76184967  0.24586708  1
  O  O382  1  0.12280009  0.76209301  0.76146546  1
  O  O383  1  0.62238560  0.25253609  0.25753207  1
  O  O384  1  0.62944911  0.25135918  0.76252462  1
  O  O385  1  0.61356060  0.76874841  0.23759599  1
  O  O386  1  0.63212259  0.76268033  0.75969761  1
  O  O387  1  0.38199537  0.24543810  0.24371187  1
  O  O388  1  0.37555706  0.26688889  0.73799619  1
  O  O389  1  0.37773376  0.74467722  0.24084380  1
  O  O390  1  0.36558537  0.74689576  0.73343208  1
  O  O391  1  0.87912494  0.24462280  0.24562353  1
  O  O392  1  0.87227082  0.24589634  0.74723525  1
  O  O393  1  0.88701536  0.75786920  0.24099702  1
  O  O394  1  0.87921501  0.73982845  0.75590182  1
  O  O395  1  0.38271997  0.49582444  0.49433983  1
  O  O396  1  0.37564601  0.48801157  0.99430976  1
  O  O397  1  0.35954620  0.97873952  0.48077357  1
  O  O398  1  0.38089295  0.99461628  0.99220338  1
  O  O399  1  0.88077730  0.49283755  0.49435964  1
  O  O400  1  0.88038376  0.49216362  0.99737862  1
  O  O401  1  0.88520339  0.99306546  0.49581921  1
  O  O402  1  0.88189500  0.98732739  1.00332869  1
  O  O403  1  0.11873477  0.00880196  0.00212047  1
  O  O404  1  0.11806609  0.00907710  0.49433773  1
  O  O405  1  0.11415257  0.49245540  0.00835713  1
  O  O406  1  0.11672585  0.49561338  0.50903549  1
  O  O407  1  0.61625832  -0.00645230  0.00810333  1
  O  O408  1  0.63266898  -0.01494826  0.51256743  1
  O  O409  1  0.62879316  0.49235354  0.01320210  1
  O  O410  1  0.60876273  0.49864642  0.49389843  1
  O  O411  1  0.37391775  0.37104235  0.11722224  1
  O  O412  1  0.36653561  0.37409576  0.61619109  1
  O  O413  1  0.37157771  0.86618732  0.11857570  1
  O  O414  1  0.37232054  0.86452625  0.61415315  1
  O  O415  1  0.87956285  0.35924187  0.11665249  1
  O  O416  1  0.88175394  0.37604498  0.61202260  1
  O  O417  1  0.86656819  0.86777323  0.12175104  1
  O  O418  1  0.87319048  0.87771273  0.62065327  1
  O  O419  1  0.13162275  0.12727362  0.38658369  1
  O  O420  1  0.12789708  0.13409469  0.88516717  1
  O  O421  1  0.13568673  0.62322972  0.36646560  1
  O  O422  1  0.13209752  0.63471127  0.86945132  1
  O  O423  1  0.63610045  0.12995060  0.37013885  1
  O  O424  1  0.61980638  0.13672284  0.87468856  1
  O  O425  1  0.63747826  0.63693171  0.33268799  1
  O  O426  1  0.63717801  0.63952356  0.86884126  1
