# generated using pymatgen
data_V85Zn86O256
_symmetry_space_group_name_H-M   'P 1'
_cell_length_a   16.92667513
_cell_length_b   16.94061227
_cell_length_c   16.93366522
_cell_angle_alpha   90.02926062
_cell_angle_beta   90.05663699
_cell_angle_gamma   90.06156859
_symmetry_Int_Tables_number   1
_chemical_formula_structural   V85Zn86O256
_chemical_formula_sum   'V85 Zn86 O256'
_cell_volume   4855.69289322
_cell_formula_units_Z   1
loop_
 _symmetry_equiv_pos_site_id
 _symmetry_equiv_pos_as_xyz
  1  'x, y, z'
loop_
 _atom_site_type_symbol
 _atom_site_label
 _atom_site_symmetry_multiplicity
 _atom_site_fract_x
 _atom_site_fract_y
 _atom_site_fract_z
 _atom_site_occupancy
  V  V0  1  0.37751078  0.11856770  0.75328365  1
  V  V1  1  0.86601478  0.75793898  0.11764965  1
  V  V2  1  0.37834828  0.23933882  0.12700538  1
  V  V3  1  0.24739293  -0.00400830  0.75248305  1
  V  V4  1  0.23695708  0.75463711  0.49141832  1
  V  V5  1  0.37899592  0.24758996  0.62631269  1
  V  V6  1  0.75038762  0.49979053  0.25224838  1
  V  V7  1  0.89138049  0.88002617  0.49623306  1
  V  V8  1  0.24511415  0.87454394  0.12389097  1
  V  V9  1  0.75693105  -0.00078065  0.24419936  1
  V  V10  1  0.88273004  0.62341299  0.75612691  1
  V  V11  1  0.49809173  0.23233705  0.24882585  1
  V  V12  1  0.74972759  0.50339169  0.76012428  1
  V  V13  1  0.61692387  0.37157297  0.76446678  1
  V  V14  1  0.88805814  0.75358055  0.63363422  1
  V  V15  1  -0.00441645  0.49960227  -0.00365290  1
  V  V16  1  -0.01507553  0.12616237  0.12507827  1
  V  V17  1  0.12359150  0.24083524  0.37172474  1
  V  V18  1  0.12123441  0.87506491  0.26315084  1
  V  V19  1  0.37760645  0.49992236  0.87478452  1
  V  V20  1  0.49983026  0.63424096  0.12967596  1
  V  V21  1  0.75138045  0.25077212  0.50038143  1
  V  V22  1  0.25040992  0.24099325  0.49935375  1
  V  V23  1  0.24946999  0.25397345  -0.00168643  1
  V  V24  1  0.24639027  0.87463078  0.62926591  1
  V  V25  1  0.62368116  0.62207907  0.50038180  1
  V  V26  1  0.62662716  0.12550037  0.49923375  1
  V  V27  1  0.25247345  0.62584673  0.87383291  1
  V  V28  1  0.25466422  0.12507386  0.37089304  1
  V  V29  1  0.62093961  0.12824893  0.00329098  1
  V  V30  1  0.19366440  0.57807811  0.42954612  1
  V  V31  1  0.74905063  0.24866709  0.00335229  1
  V  V32  1  -0.00006208  0.37396493  0.37218987  1
  V  V33  1  0.63137258  0.63007144  -0.00008062  1
  V  V34  1  0.75360773  0.87687897  0.62162961  1
  V  V35  1  0.11685154  -0.00246582  0.11893745  1
  V  V36  1  0.12417781  0.00308816  0.62207801  1
  V  V37  1  0.88297729  0.00463734  0.87772512  1
  V  V38  1  0.87337815  0.37648269  -0.00213817  1
  V  V39  1  0.11529328  0.12504804  -0.00051870  1
  V  V40  1  0.87690999  0.37859783  0.50145367  1
  V  V41  1  0.12405187  0.62612046  0.00029964  1
  V  V42  1  0.49873752  0.88169304  0.87535538  1
  V  V43  1  0.24914465  0.50569993  0.24740375  1
  V  V44  1  0.37825331  0.00233669  0.36787113  1
  V  V45  1  0.74867951  0.37802448  0.62704669  1
  V  V46  1  0.62559542  0.87492833  0.74901652  1
  V  V47  1  0.37467912  0.63355170  0.25609327  1
  V  V48  1  0.24767412  0.11975620  0.87516066  1
  V  V49  1  -0.01465907  0.24792968  0.24418328  1
  V  V50  1  0.62663629  0.86771143  0.24432059  1
  V  V51  1  0.01010738  0.13462636  0.62426503  1
  V  V52  1  0.87892146  0.25274201  0.63338829  1
  V  V53  1  -0.00625434  0.37422006  0.86706812  1
  V  V54  1  0.87667936  0.50341342  0.37974959  1
  V  V55  1  0.50125502  0.62501966  0.62438979  1
  V  V56  1  0.49575536  0.50230216  0.00109236  1
  V  V57  1  0.37511063  0.88295835  -0.00317706  1
  V  V58  1  0.11617510  0.25106437  0.86591722  1
  V  V59  1  0.37585310  0.75237690  0.12658110  1
  V  V60  1  0.24464234  0.38080387  0.62458363  1
  V  V61  1  0.43404805  0.33295862  -0.05682948  1
  V  V62  1  0.50119454  0.86627199  0.37173997  1
  V  V63  1  0.63521758  0.75550171  0.88034713  1
  V  V64  1  0.74237752  0.13066875  0.86895011  1
  V  V65  1  0.00293106  0.75524799  0.25819492  1
  V  V66  1  0.62614075  -0.00044119  0.62292969  1
  V  V67  1  0.76059384  0.12261775  0.37282015  1
  V  V68  1  0.75297297  0.74956454  0.49955459  1
  V  V69  1  0.61905586  0.00392364  0.12635206  1
  V  V70  1  0.11954438  0.75594749  0.86037023  1
  V  V71  1  0.38412852  0.37743927  0.50024243  1
  V  V72  1  0.01105472  0.61756401  0.62004171  1
  V  V73  1  0.87560353  0.62916666  0.24945006  1
  V  V74  1  0.37531727  0.75200658  0.62541361  1
  V  V75  1  0.62410205  0.50129127  0.12620496  1
  V  V76  1  0.75701951  0.36970275  0.12885379  1
  V  V77  1  0.49991823  -0.00003971  0.49848972  1
  V  V78  1  0.61881448  0.37493438  0.25167982  1
  V  V79  1  0.25126883  0.00524515  0.24568669  1
  V  V80  1  0.24788056  0.75198102  -0.00019707  1
  V  V81  1  0.38540031  0.50401109  0.37798343  1
  V  V82  1  0.25804687  0.37571080  0.11905290  1
  V  V83  1  0.61985463  0.49878773  0.62562329  1
  V  V84  1  0.12632925  0.37267826  0.24504304  1
  Zn  Zn85  1  0.62446541  0.25037431  0.37530634  1
  Zn  Zn86  1  0.75784125  0.62804441  0.88148753  1
  Zn  Zn87  1  0.87001631  0.87537833  -0.00338668  1
  Zn  Zn88  1  0.50217751  0.37440398  0.37710703  1
  Zn  Zn89  1  0.11407360  0.37905684  0.73993447  1
  Zn  Zn90  1  0.37520817  0.87493912  0.49836586  1
  Zn  Zn91  1  0.37839888  0.62402950  0.75079880  1
  Zn  Zn92  1  0.50084798  0.25022213  0.76649182  1
  Zn  Zn93  1  0.74885771  0.62610586  0.37705635  1
  Zn  Zn94  1  0.88668114  -0.00172443  0.36732835  1
  Zn  Zn95  1  0.01813958  0.50242217  0.49883783  1
  Zn  Zn96  1  -0.00197635  0.87131135  0.86253842  1
  Zn  Zn97  1  0.88237728  0.13212439  0.75267123  1
  Zn  Zn98  1  0.49910957  0.00233424  0.00325302  1
  Zn  Zn99  1  0.00016490  0.62769468  0.12320805  1
  Zn  Zn100  1  0.24656034  0.50070860  0.74710431  1
  Zn  Zn101  1  0.50241768  0.12515009  0.62995144  1
  Zn  Zn102  1  0.12462564  0.49813001  0.12080495  1
  Zn  Zn103  1  0.49988919  0.75020472  0.75244821  1
  Zn  Zn104  1  0.01221454  0.00810741  0.49004544  1
  Zn  Zn105  1  0.62267308  0.74728428  0.37356823  1
  Zn  Zn106  1  0.75370908  0.00310178  0.74870799  1
  Zn  Zn107  1  0.18530040  0.18660455  0.18434780  1
  Zn  Zn108  1  0.18923210  0.18928405  0.68883462  1
  Zn  Zn109  1  0.18466576  0.68881863  0.18873588  1
  Zn  Zn110  1  0.19227187  0.68443439  0.68646432  1
  Zn  Zn111  1  0.68920152  0.18548399  0.18904246  1
  Zn  Zn112  1  0.68538418  0.19361881  0.68614835  1
  Zn  Zn113  1  0.68955473  0.68646083  0.18901196  1
  Zn  Zn114  1  0.69202945  0.69024062  0.68899316  1
  Zn  Zn115  1  0.31741752  0.31390746  0.30864345  1
  Zn  Zn116  1  0.30647222  0.30525136  0.80746697  1
  Zn  Zn117  1  0.30964876  0.81692143  0.31286565  1
  Zn  Zn118  1  0.31312085  0.81132453  0.81318034  1
  Zn  Zn119  1  0.80956282  0.31354325  0.31601682  1
  Zn  Zn120  1  0.80716701  0.31482950  0.81563129  1
  Zn  Zn121  1  0.81254611  0.81433319  0.31362537  1
  Zn  Zn122  1  0.81594079  0.81574118  0.80984685  1
  Zn  Zn123  1  0.19447427  0.41437193  0.43336907  1
  Zn  Zn124  1  0.18422131  0.43833561  0.93205398  1
  Zn  Zn125  1  0.19010202  0.93979776  0.44065832  1
  Zn  Zn126  1  0.18140585  0.93663329  0.93759128  1
  Zn  Zn127  1  0.68731829  0.43916405  0.43833915  1
  Zn  Zn128  1  0.68614203  0.44012225  0.94096215  1
  Zn  Zn129  1  0.69051761  0.93748883  0.43312536  1
  Zn  Zn130  1  0.69855637  0.94162008  0.94192154  1
  Zn  Zn131  1  0.30668834  0.06191664  0.05949885  1
  Zn  Zn132  1  0.31428034  0.06128279  0.56159411  1
  Zn  Zn133  1  0.31406846  0.56377634  0.06173950  1
  Zn  Zn134  1  0.31865953  0.56170350  0.56406161  1
  Zn  Zn135  1  0.80629826  0.05718946  0.05908029  1
  Zn  Zn136  1  0.81830510  0.06420904  0.56385414  1
  Zn  Zn137  1  0.81390394  0.56097258  0.06576198  1
  Zn  Zn138  1  0.81306099  0.56555987  0.56909361  1
  Zn  Zn139  1  0.43540207  0.43949309  0.18710892  1
  Zn  Zn140  1  0.43695010  0.43773852  0.69016219  1
  Zn  Zn141  1  0.44026168  0.93621847  0.18831253  1
  Zn  Zn142  1  0.43714927  0.93807686  0.68733012  1
  Zn  Zn143  1  0.93889875  0.44066421  0.18580120  1
  Zn  Zn144  1  0.93669061  0.44552465  0.68680143  1
  Zn  Zn145  1  0.93959528  0.93499517  0.18352740  1
  Zn  Zn146  1  0.94437745  0.94660666  0.69778482  1
  Zn  Zn147  1  0.06178364  0.06301995  0.30626541  1
  Zn  Zn148  1  0.06174686  0.06514328  0.80469420  1
  Zn  Zn149  1  0.05777451  0.56150065  0.30607711  1
  Zn  Zn150  1  0.06468695  0.55847781  0.81261435  1
  Zn  Zn151  1  0.57034454  0.05792576  0.31560085  1
  Zn  Zn152  1  0.56518172  0.06028735  0.81428162  1
  Zn  Zn153  1  0.56087560  0.56502881  0.31245387  1
  Zn  Zn154  1  0.56272759  0.56403372  0.81409281  1
  Zn  Zn155  1  0.43849735  0.18694183  0.43455032  1
  Zn  Zn156  1  0.43181970  0.16918275  0.94066368  1
  Zn  Zn157  1  0.43410386  0.68770667  0.44331086  1
  Zn  Zn158  1  0.44223084  0.69370647  0.93871394  1
  Zn  Zn159  1  0.93942469  0.18734875  0.44242981  1
  Zn  Zn160  1  0.93133311  0.19145228  0.94040174  1
  Zn  Zn161  1  0.94138140  0.68940489  0.44124086  1
  Zn  Zn162  1  0.94150156  0.69217469  0.93815849  1
  Zn  Zn163  1  0.06203174  0.31025111  0.06024156  1
  Zn  Zn164  1  0.06327460  0.31007284  0.55488176  1
  Zn  Zn165  1  0.04825503  0.81396537  0.05631599  1
  Zn  Zn166  1  0.06463031  0.81442290  0.57765561  1
  Zn  Zn167  1  0.56898813  0.30781713  0.07162039  1
  Zn  Zn168  1  0.56266196  0.31101177  0.56672739  1
  Zn  Zn169  1  0.56725294  0.81529643  0.06209575  1
  Zn  Zn170  1  0.56271848  0.81124945  0.55974557  1
  O  O171  1  0.11970504  0.11792721  0.11547607  1
  O  O172  1  0.11778926  0.12424142  0.62569804  1
  O  O173  1  0.12660316  0.62358018  0.11078187  1
  O  O174  1  0.10951865  0.62772709  0.63216128  1
  O  O175  1  0.63048976  0.11690998  0.11631155  1
  O  O176  1  0.62555023  0.12102193  0.61488763  1
  O  O177  1  0.61822999  0.62213543  0.12193352  1
  O  O178  1  0.62087284  0.62001859  0.62175977  1
  O  O179  1  0.37388829  0.38394846  0.38284256  1
  O  O180  1  0.36742176  0.38177479  0.87571480  1
  O  O181  1  0.38337322  0.88350624  0.37444526  1
  O  O182  1  0.38467613  0.86788534  0.88522594  1
  O  O183  1  0.88048654  0.38345308  0.37960148  1
  O  O184  1  0.88036334  0.37161595  0.88512595  1
  O  O185  1  0.87251848  0.87499781  0.39424174  1
  O  O186  1  0.86782899  0.89748260  0.86759293  1
  O  O187  1  0.25680888  0.00650310  0.36793793  1
  O  O188  1  0.23903838  0.01119443  0.86785414  1
  O  O189  1  0.25238890  0.50729928  0.37121481  1
  O  O190  1  0.26406143  0.50923110  0.88302829  1
  O  O191  1  0.75474645  0.00655312  0.36509445  1
  O  O192  1  0.75414348  0.01807726  0.87074815  1
  O  O193  1  0.75922527  0.50096083  0.36895901  1
  O  O194  1  0.74392476  0.50462748  0.86374115  1
  O  O195  1  0.25130565  0.49276686  0.13064641  1
  O  O196  1  0.25465066  0.48381654  0.62229656  1
  O  O197  1  0.24240770  0.99531304  0.13012163  1
  O  O198  1  0.24794879  0.99440530  0.63163962  1
  O  O199  1  0.74292952  0.49350399  0.13335497  1
  O  O200  1  0.73883179  0.49757999  0.63510549  1
  O  O201  1  0.74126549  1.00368557  0.13887046  1
  O  O202  1  0.74535340  0.99296617  0.62443921  1
  O  O203  1  0.00591060  0.36843897  0.25176997  1
  O  O204  1  -0.00515519  0.38076022  0.76280736  1
  O  O205  1  0.00670613  0.86446312  0.24780519  1
  O  O206  1  -0.01268222  0.86183934  0.74985455  1
  O  O207  1  0.51091769  0.37424462  0.24900401  1
  O  O208  1  0.51251610  0.37377138  0.74974846  1
  O  O209  1  0.51546008  0.87928391  0.25813204  1
  O  O210  1  0.50747646  0.87506530  0.75615878  1
  O  O211  1  0.50638717  0.13425192  0.25386017  1
  O  O212  1  0.49305219  0.12840073  0.75382991  1
  O  O213  1  0.48863248  0.62172069  0.24111617  1
  O  O214  1  0.50139226  0.62876196  0.73822504  1
  O  O215  1  1.00301038  0.13434559  0.23334297  1
  O  O216  1  0.99931007  0.12948828  0.73156951  1
  O  O217  1  0.99336271  0.63478676  0.24593207  1
  O  O218  1  0.98765373  0.61496611  0.74196771  1
  O  O219  1  0.37422278  0.25845476  0.00324069  1
  O  O220  1  0.37020338  0.25392891  0.50539362  1
  O  O221  1  0.36820274  0.75868944  0.00673306  1
  O  O222  1  0.36530623  0.75141643  0.51271936  1
  O  O223  1  0.86138649  0.26343739  0.00247881  1
  O  O224  1  0.87045368  0.26003074  0.50823126  1
  O  O225  1  0.87266984  0.73632057  0.01687790  1
  O  O226  1  0.87173475  0.76027608  0.50802560  1
  O  O227  1  0.13691115  0.25554048  0.48238995  1
  O  O228  1  0.13009611  0.24137359  0.99238675  1
  O  O229  1  0.13830994  0.75585135  0.50612872  1
  O  O230  1  0.13102082  0.74215306  0.99508238  1
  O  O231  1  0.63090363  0.24238040  0.50027297  1
  O  O232  1  0.63747268  0.24384257  1.00580116  1
  O  O233  1  0.63443196  0.73887016  0.50171511  1
  O  O234  1  0.62179411  0.74179742  0.99296061  1
  O  O235  1  0.49339575  0.25247574  0.13945406  1
  O  O236  1  0.48750893  0.24682624  0.62693871  1
  O  O237  1  0.49604824  0.73998346  0.12106657  1
  O  O238  1  0.49244152  0.74493615  0.62576768  1
  O  O239  1  1.00239623  0.23800033  0.13108810  1
  O  O240  1  0.99473468  0.24482641  0.62015113  1
  O  O241  1  0.98838759  0.74610864  0.13544396  1
  O  O242  1  0.99160316  0.73836103  0.62217456  1
  O  O243  1  0.00763510  0.25032218  0.36756982  1
  O  O244  1  0.00521630  0.25914050  0.88051356  1
  O  O245  1  -0.00434807  0.74679410  0.35764581  1
  O  O246  1  0.01833104  0.73976537  0.86899883  1
  O  O247  1  0.50093585  0.25288322  0.36108582  1
  O  O248  1  0.48365956  0.26054203  0.88523783  1
  O  O249  1  0.49949462  0.76305485  0.38206691  1
  O  O250  1  0.51240995  0.76181966  0.87332825  1
  O  O251  1  0.25493829  0.13511959  0.49110958  1
  O  O252  1  0.23930576  0.13030011  0.99138926  1
  O  O253  1  0.24809889  0.63403039  0.49973839  1
  O  O254  1  0.24545497  0.62993440  0.99213944  1
  O  O255  1  0.74531812  0.12969145  0.49590051  1
  O  O256  1  0.74296226  0.13262343  0.99325374  1
  O  O257  1  0.74509449  0.63339440  0.50157783  1
  O  O258  1  0.73547197  0.61467696  0.99994342  1
  O  O259  1  0.24412168  0.36846672  0.00827155  1
  O  O260  1  0.26177770  0.36164775  0.50876323  1
  O  O261  1  0.25608819  0.87204627  0.00401552  1
  O  O262  1  0.25337188  0.86755121  0.50893529  1
  O  O263  1  0.75258372  0.37133404  0.00789653  1
  O  O264  1  0.75494729  0.37136628  0.50685669  1
  O  O265  1  0.75732353  0.86733896  -0.00571249  1
  O  O266  1  0.75164717  0.86926900  0.50905246  1
  O  O267  1  0.13281274  0.49416733  0.24557705  1
  O  O268  1  0.13581950  0.48799828  0.76487717  1
  O  O269  1  0.13127926  0.99372567  0.23715966  1
  O  O270  1  0.13746785  1.00754779  0.73754588  1
  O  O271  1  0.62901612  0.49411108  0.24659059  1
  O  O272  1  0.62888624  0.49258346  0.74524614  1
  O  O273  1  0.63341171  0.99243871  0.24467520  1
  O  O274  1  0.62807998  0.98978454  0.74274418  1
  O  O275  1  0.36742221  -0.00485074  0.25908540  1
  O  O276  1  0.36715248  0.01245192  0.74438785  1
  O  O277  1  0.36695515  0.50746235  0.25856136  1
  O  O278  1  0.37047916  0.50217223  0.76013549  1
  O  O279  1  0.86054743  -0.00947251  0.24865646  1
  O  O280  1  0.87027501  0.01368433  0.75807250  1
  O  O281  1  0.87323160  0.50720772  0.26009247  1
  O  O282  1  0.86362404  0.51437216  0.74485604  1
  O  O283  1  0.11966871  0.36413054  0.36402360  1
  O  O284  1  0.11191668  0.36428320  0.87991710  1
  O  O285  1  0.13143733  0.88158873  0.36184595  1
  O  O286  1  0.12508765  0.85946880  0.87651604  1
  O  O287  1  0.62375695  0.37358040  0.36678570  1
  O  O288  1  0.62584060  0.37873679  0.86309450  1
  O  O289  1  0.61783824  0.87393935  0.36633634  1
  O  O290  1  0.62200975  0.87274278  0.86653724  1
  O  O291  1  0.37074632  0.14021702  0.11364198  1
  O  O292  1  0.37614664  0.13156831  0.63232246  1
  O  O293  1  0.38162089  0.63160126  0.13186688  1
  O  O294  1  0.38382927  0.63147235  0.62622853  1
  O  O295  1  0.88656719  0.12053294  0.11737282  1
  O  O296  1  0.88284699  0.13783922  0.62633683  1
  O  O297  1  0.87508914  0.62652502  0.14017250  1
  O  O298  1  0.88298606  0.63355648  0.63392647  1
  O  O299  1  0.25738614  0.25560393  0.11961337  1
  O  O300  1  0.25984325  0.25307169  0.61679056  1
  O  O301  1  0.25352637  0.75661715  0.11945972  1
  O  O302  1  0.25531861  0.75709633  0.62077267  1
  O  O303  1  0.74679714  0.25957643  0.12064814  1
  O  O304  1  0.75730834  0.25786451  0.61854566  1
  O  O305  1  0.76808067  0.74749134  0.13553950  1
  O  O306  1  0.75887419  0.75681041  0.61615602  1
  O  O307  1  0.24844921  0.24359034  0.37669907  1
  O  O308  1  0.24102705  0.23988706  0.87925034  1
  O  O309  1  0.25234293  0.75597935  0.39234231  1
  O  O310  1  0.24566374  0.74264963  0.88128450  1
  O  O311  1  0.74723787  0.24230136  0.38174630  1
  O  O312  1  0.75244607  0.23851994  0.88469008  1
  O  O313  1  0.74984542  0.74933902  0.38920466  1
  O  O314  1  0.73806418  0.74782492  0.86698232  1
  O  O315  1  0.00796524  0.13318822  0.01011198  1
  O  O316  1  -0.00218442  0.12477132  0.51738175  1
  O  O317  1  0.00731730  0.61668005  -0.00046515  1
  O  O318  1  -0.00150117  0.62144265  0.51397051  1
  O  O319  1  0.51543484  0.12133942  -0.00314697  1
  O  O320  1  0.50985704  0.11896576  0.49875442  1
  O  O321  1  0.50775000  0.61952185  0.00835175  1
  O  O322  1  0.50906858  0.62957752  0.51373273  1
  O  O323  1  0.48808562  0.36929766  0.49880027  1
  O  O324  1  0.50309088  0.38297313  1.00692568  1
  O  O325  1  0.50015608  0.88348263  0.49174743  1
  O  O326  1  0.49263542  0.87620206  0.99436042  1
  O  O327  1  0.99684178  0.38133754  0.49073244  1
  O  O328  1  0.99022829  0.37910216  0.99674912  1
  O  O329  1  0.99295437  0.87754099  0.50759016  1
  O  O330  1  0.98385493  0.86227910  0.97879137  1
  O  O331  1  0.48851825  0.49626791  0.37251475  1
  O  O332  1  0.48758975  0.50443500  0.88341492  1
  O  O333  1  0.49401222  0.99409699  0.37775470  1
  O  O334  1  0.50505313  0.98606679  0.87978851  1
  O  O335  1  0.99307374  0.49497739  0.37663243  1
  O  O336  1  1.00141168  0.49030499  0.88896905  1
  O  O337  1  0.99881513  1.00770406  0.37738047  1
  O  O338  1  0.98598002  1.00747268  0.86959344  1
  O  O339  1  0.00615905  0.01324245  0.12879468  1
  O  O340  1  0.00966842  0.01289905  0.62283625  1
  O  O341  1  0.00355546  0.50230407  0.11247781  1
  O  O342  1  0.00042234  0.51136871  0.61754248  1
  O  O343  1  0.51370795  -0.00222209  0.12462946  1
  O  O344  1  0.50662300  0.00212899  0.61688634  1
  O  O345  1  0.50288674  0.51001655  0.11999045  1
  O  O346  1  0.51175708  0.50714806  0.62920388  1
  O  O347  1  0.24705050  0.38607638  0.24490134  1
  O  O348  1  0.25267699  0.37100259  0.73020828  1
  O  O349  1  0.24232957  0.88437968  0.24288676  1
  O  O350  1  0.25871558  0.88856089  0.74586939  1
  O  O351  1  0.74063113  0.37793468  0.24609917  1
  O  O352  1  0.74034139  0.38316130  0.74594958  1
  O  O353  1  0.73728110  0.88702130  0.25854771  1
  O  O354  1  0.74417154  0.87633463  0.73594563  1
  O  O355  1  0.24762231  0.11248016  0.25244513  1
  O  O356  1  0.25565883  0.11846737  0.75649045  1
  O  O357  1  0.25712032  0.61353447  0.24284948  1
  O  O358  1  0.25509882  0.62264905  0.76298045  1
  O  O359  1  0.74469931  0.11103598  0.25951319  1
  O  O360  1  0.74625525  0.13058385  0.76150220  1
  O  O361  1  0.75727847  0.61803762  0.25564604  1
  O  O362  1  0.75779485  0.61780941  0.75088591  1
  O  O363  1  0.36418088  0.11851291  0.37429603  1
  O  O364  1  0.36006831  0.12410837  0.86696757  1
  O  O365  1  0.37914527  0.61911739  0.36808167  1
  O  O366  1  0.37020189  0.62096689  0.87688761  1
  O  O367  1  0.86348924  0.12370340  0.38210392  1
  O  O368  1  0.86467878  0.12250369  0.87403954  1
  O  O369  1  0.87583451  0.61941504  0.36724912  1
  O  O370  1  0.87562027  0.63154451  0.86045677  1
  O  O371  1  0.13674598  0.37289439  0.12968399  1
  O  O372  1  0.14067880  0.36706766  0.62089013  1
  O  O373  1  0.12522138  0.88312909  0.12395918  1
  O  O374  1  0.13938583  0.88430401  0.62910527  1
  O  O375  1  0.63441287  0.38203259  0.13415859  1
  O  O376  1  0.62889965  0.38404106  0.62927295  1
  O  O377  1  0.62305595  0.88119487  0.13884802  1
  O  O378  1  0.63184262  0.87786329  0.62952058  1
  O  O379  1  0.12119005  0.25409401  0.25614913  1
  O  O380  1  0.12945904  0.25661263  0.76254854  1
  O  O381  1  0.11259541  0.75954361  0.24446428  1
  O  O382  1  0.13637947  0.74817931  0.76336265  1
  O  O383  1  0.61425771  0.25650234  0.24976831  1
  O  O384  1  0.62092123  0.26667515  0.74760040  1
  O  O385  1  0.63100793  0.76358999  0.25305968  1
  O  O386  1  0.62447877  0.76294067  0.75349533  1
  O  O387  1  0.38890659  0.24972911  0.24311292  1
  O  O388  1  0.37625474  0.23834589  0.74286430  1
  O  O389  1  0.36651455  0.73981404  0.24637838  1
  O  O390  1  0.37609360  0.74788050  0.73773462  1
  O  O391  1  0.88643891  0.25573523  0.25389131  1
  O  O392  1  0.86816747  0.25404624  0.73629104  1
  O  O393  1  0.88199737  0.74613611  0.24685055  1
  O  O394  1  0.86576586  0.73620601  0.74065407  1
  O  O395  1  0.36906805  0.49053599  0.48977187  1
  O  O396  1  0.38803209  0.50124513  0.99682083  1
  O  O397  1  0.38044173  0.99913305  0.48708872  1
  O  O398  1  0.37574521  0.98729567  1.00520475  1
  O  O399  1  0.87098421  0.49798532  0.48944449  1
  O  O400  1  0.88009033  0.48811874  1.00416111  1
  O  O401  1  0.87792344  0.98558506  0.50258903  1
  O  O402  1  0.87041171  1.00364399  0.98182755  1
  O  O403  1  0.12740396  0.00925885  0.01008241  1
  O  O404  1  0.13061413  -0.00026952  0.51634888  1
  O  O405  1  0.11809274  0.50880790  -0.00097677  1
  O  O406  1  0.13892731  0.50769977  0.48168586  1
  O  O407  1  0.62767234  0.00908762  0.00976390  1
  O  O408  1  0.62187530  0.00630263  0.50310898  1
  O  O409  1  0.61338537  0.50624440  0.00558859  1
  O  O410  1  0.63132823  0.51344301  0.50949244  1
  O  O411  1  0.36309783  0.36670246  0.13130168  1
  O  O412  1  0.36989625  0.36812478  0.61898912  1
  O  O413  1  0.36956561  0.86941562  0.12081650  1
  O  O414  1  0.36614400  0.86934186  0.62332944  1
  O  O415  1  0.86178934  0.38085320  0.12189244  1
  O  O416  1  0.87071263  0.37332039  0.62033334  1
  O  O417  1  0.87799959  0.86198382  0.12099566  1
  O  O418  1  0.86886838  0.86943118  0.61627141  1
  O  O419  1  0.13947327  0.13249429  0.36679645  1
  O  O420  1  0.12526622  0.13136543  0.88054528  1
  O  O421  1  0.13136276  0.62702804  0.37060037  1
  O  O422  1  0.13439572  0.63086944  0.88337800  1
  O  O423  1  0.63589741  0.12465799  0.38715343  1
  O  O424  1  0.63614498  0.12368725  0.88279782  1
  O  O425  1  0.62513409  0.62721105  0.38489650  1
  O  O426  1  0.62402663  0.63525784  0.88440059  1
