# generated using pymatgen
data_V85Zn86O256
_symmetry_space_group_name_H-M   'P 1'
_cell_length_a   16.92399610
_cell_length_b   16.94009700
_cell_length_c   16.93209178
_cell_angle_alpha   89.93913926
_cell_angle_beta   90.13037869
_cell_angle_gamma   90.02066628
_symmetry_Int_Tables_number   1
_chemical_formula_structural   V85Zn86O256
_chemical_formula_sum   'V85 Zn86 O256'
_cell_volume   4854.31579958
_cell_formula_units_Z   1
loop_
 _symmetry_equiv_pos_site_id
 _symmetry_equiv_pos_as_xyz
  1  'x, y, z'
loop_
 _atom_site_type_symbol
 _atom_site_label
 _atom_site_symmetry_multiplicity
 _atom_site_fract_x
 _atom_site_fract_y
 _atom_site_fract_z
 _atom_site_occupancy
  V  V0  1  0.37505549  0.88171696  0.49741603  1
  V  V1  1  0.50345865  0.75004868  0.25191717  1
  V  V2  1  0.35953221  0.49538195  0.87328569  1
  V  V3  1  0.61031469  0.36283592  0.75428223  1
  V  V4  1  0.62422913  0.25141386  0.38587795  1
  V  V5  1  -0.00437609  0.13170479  0.62402125  1
  V  V6  1  0.00324496  0.25171779  0.25345708  1
  V  V7  1  0.00395670  0.49534850  0.50316253  1
  V  V8  1  0.12418945  0.00122367  0.62527550  1
  V  V9  1  0.13344581  0.25079657  0.87004605  1
  V  V10  1  0.24953787  0.37731878  0.13235479  1
  V  V11  1  0.25940015  0.11959127  0.87483056  1
  V  V12  1  0.13219785  0.87434595  0.24781183  1
  V  V13  1  0.12743342  0.74916387  0.37488988  1
  V  V14  1  0.62992530  0.37949750  0.24179802  1
  V  V15  1  0.74616704  0.87562723  0.12308505  1
  V  V16  1  0.49757796  0.24854450  0.25319252  1
  V  V17  1  0.50091269  0.12958932  0.11326596  1
  V  V18  1  0.24982005  0.87424727  0.62578932  1
  V  V19  1  0.50692805  0.38466707  0.38026032  1
  V  V20  1  0.87525771  0.75682222  0.60657715  1
  V  V21  1  0.75941298  0.36520699  0.64004343  1
  V  V22  1  0.49373152  0.60571809  0.62926728  1
  V  V23  1  0.36266270  0.62753153  0.75992521  1
  V  V24  1  0.87372719  0.87388872  -0.00211794  1
  V  V25  1  0.12912617  0.74702763  0.87276926  1
  V  V26  1  0.13080428  0.62350222  -0.00387627  1
  V  V27  1  0.87327460  0.12977167  0.74832984  1
  V  V28  1  0.00135426  0.00111405  0.00128432  1
  V  V29  1  0.49754614  0.88000281  0.37341152  1
  V  V30  1  0.87455006  0.12579976  0.25054488  1
  V  V31  1  0.37411003  0.25161717  0.63279978  1
  V  V32  1  -0.00231586  0.49875006  -0.00090882  1
  V  V33  1  -0.00084319  0.87673788  0.87440281  1
  V  V34  1  -0.00254040  -0.00797828  0.50075626  1
  V  V35  1  0.62707303  0.62182024  0.00176984  1
  V  V36  1  0.63865604  0.49538153  0.62974563  1
  V  V37  1  0.13010625  0.39025799  0.74776104  1
  V  V38  1  0.50429383  0.61843156  0.12493932  1
  V  V39  1  0.00435645  0.62126743  0.62477941  1
  V  V40  1  0.87314824  0.36535867  0.50386051  1
  V  V41  1  0.73767180  0.86743554  0.61441063  1
  V  V42  1  0.37696931  0.88332624  -0.00864010  1
  V  V43  1  0.37022202  0.50117687  0.37417003  1
  V  V44  1  0.12705105  0.12664752  -0.00139123  1
  V  V45  1  0.73075308  0.12881156  0.88023677  1
  V  V46  1  0.74382174  0.12469356  0.38355532  1
  V  V47  1  0.00101429  0.75149157  0.24824491  1
  V  V48  1  0.00302194  0.37246933  0.87477223  1
  V  V49  1  0.12475498  0.37564082  0.25678146  1
  V  V50  1  0.25780411  -0.00190998  0.25425165  1
  V  V51  1  0.50397412  0.00786665  0.49498396  1
  V  V52  1  0.25252798  0.74965281  0.50066027  1
  V  V53  1  0.12378440  0.12802833  0.49341314  1
  V  V54  1  0.38612412  0.75087174  0.63083292  1
  V  V55  1  0.12859553  0.61901440  0.50107108  1
  V  V56  1  -0.00713633  0.74996593  0.74924325  1
  V  V57  1  0.37811441  0.11747903  0.74727347  1
  V  V58  1  0.86485176  0.24937920  0.12242454  1
  V  V59  1  0.37869696  0.38096419  0.50209807  1
  V  V60  1  0.87008702  0.49918265  0.37459914  1
  V  V61  1  0.62412963  0.00331002  0.62828322  1
  V  V62  1  -0.00010884  0.62706671  0.12332816  1
  V  V63  1  0.24676679  0.25265349  0.49675204  1
  V  V64  1  0.74747854  0.00274465  0.24908081  1
  V  V65  1  0.37531082  0.37668247  0.00578982  1
  V  V66  1  0.12356723  0.87459125  0.74971644  1
  V  V67  1  0.50626938  0.87565709  0.85835378  1
  V  V68  1  0.74589982  0.62168139  0.86778576  1
  V  V69  1  0.87240544  0.00335548  0.87340385  1
  V  V70  1  0.86458167  0.37168699  -0.00106927  1
  V  V71  1  0.86886508  0.61882754  0.74597919  1
  V  V72  1  0.50634646  0.13362524  0.62342734  1
  V  V73  1  0.36975418  0.62215327  0.24893515  1
  V  V74  1  0.13265287  -0.00235011  0.12554288  1
  V  V75  1  0.12649780  0.49995812  0.13197228  1
  V  V76  1  0.87331221  -0.00529563  0.37824433  1
  V  V77  1  0.00169861  0.37049201  0.37503202  1
  V  V78  1  0.25067644  0.75384496  0.00286422  1
  V  V79  1  0.00176554  0.12542250  0.12611875  1
  V  V80  1  0.25865460  0.12320544  0.37712109  1
  V  V81  1  0.86871678  0.62562911  0.24992529  1
  V  V82  1  0.24552097  0.38744465  0.63084236  1
  V  V83  1  0.37470161  0.75686984  0.12377121  1
  V  V84  1  0.62301773  0.00605682  0.11587886  1
  Zn  Zn85  1  0.73699004  0.50182304  0.23482927  1
  Zn  Zn86  1  0.24880870  0.62100284  0.37085449  1
  Zn  Zn87  1  0.37965541  0.11975272  0.25281075  1
  Zn  Zn88  1  0.50059889  0.50360127  -0.00468244  1
  Zn  Zn89  1  0.49935931  0.00501622  -0.00901178  1
  Zn  Zn90  1  0.87191309  0.49539953  0.86624256  1
  Zn  Zn91  1  0.61884127  0.62400083  0.50163109  1
  Zn  Zn92  1  0.87376660  0.75210938  0.12337064  1
  Zn  Zn93  1  0.50356224  0.37453565  0.87968432  1
  Zn  Zn94  1  0.74970643  0.64079821  0.39195242  1
  Zn  Zn95  1  0.24999746  -0.00365169  0.75445439  1
  Zn  Zn96  1  0.61295374  0.74480693  0.85782520  1
  Zn  Zn97  1  0.74482070  -0.00390515  0.74899778  1
  Zn  Zn98  1  -0.00052828  0.25298295  0.74489595  1
  Zn  Zn99  1  0.37185049  0.24939334  0.12885149  1
  Zn  Zn100  1  0.74891256  0.24706432  0.50679831  1
  Zn  Zn101  1  -0.00239369  0.87308098  0.37716720  1
  Zn  Zn102  1  0.62527467  0.87552760  0.25194421  1
  Zn  Zn103  1  0.62903023  0.75224799  0.39264364  1
  Zn  Zn104  1  0.74516901  0.75060457  -0.00422673  1
  Zn  Zn105  1  0.73193425  0.25057493  0.00071473  1
  Zn  Zn106  1  0.24786606  0.25198273  0.00531734  1
  Zn  Zn107  1  0.18807981  0.18865176  0.19170758  1
  Zn  Zn108  1  0.18933555  0.19038208  0.68732055  1
  Zn  Zn109  1  0.18961935  0.68773269  0.18373814  1
  Zn  Zn110  1  0.18812070  0.68726968  0.68600189  1
  Zn  Zn111  1  0.68216611  0.18989264  0.19229660  1
  Zn  Zn112  1  0.68730651  0.18617081  0.69168737  1
  Zn  Zn113  1  0.68670957  0.69180418  0.18740317  1
  Zn  Zn114  1  0.68111492  0.68559093  0.67945499  1
  Zn  Zn115  1  0.31168927  0.31366149  0.31560409  1
  Zn  Zn116  1  0.36684743  0.26814944  0.85218105  1
  Zn  Zn117  1  0.31510113  0.81161616  0.31389589  1
  Zn  Zn118  1  0.31265516  0.81083628  0.81480574  1
  Zn  Zn119  1  0.81096408  0.31200481  0.31451068  1
  Zn  Zn120  1  0.81227456  0.30670817  0.81641677  1
  Zn  Zn121  1  0.81136604  0.81353081  0.31222792  1
  Zn  Zn122  1  0.77187369  0.79245363  0.78338668  1
  Zn  Zn123  1  0.19010371  0.43746315  0.43756885  1
  Zn  Zn124  1  0.18921020  0.43789317  0.94026137  1
  Zn  Zn125  1  0.18585127  0.93843796  0.43573979  1
  Zn  Zn126  1  0.19030650  0.93591933  0.93876220  1
  Zn  Zn127  1  0.70117926  0.46457953  0.45551398  1
  Zn  Zn128  1  0.68569965  0.44329016  0.93231718  1
  Zn  Zn129  1  0.68380793  0.93465126  0.44172381  1
  Zn  Zn130  1  0.68481463  0.93787375  0.93422080  1
  Zn  Zn131  1  0.31432973  0.06600280  0.06561073  1
  Zn  Zn132  1  0.31290872  0.06181701  0.56397844  1
  Zn  Zn133  1  0.31155514  0.56309426  0.06345484  1
  Zn  Zn134  1  0.31581365  0.56287852  0.56234001  1
  Zn  Zn135  1  0.81109812  0.06345728  0.06019817  1
  Zn  Zn136  1  0.81273392  0.05961042  0.56245687  1
  Zn  Zn137  1  0.80841098  0.56120113  0.06179764  1
  Zn  Zn138  1  0.81578413  0.55894364  0.56441347  1
  Zn  Zn139  1  0.44025997  0.43840126  0.19314390  1
  Zn  Zn140  1  0.42785343  0.43627949  0.69804328  1
  Zn  Zn141  1  0.43894636  0.93709095  0.18150780  1
  Zn  Zn142  1  0.43820228  0.94174222  0.68299184  1
  Zn  Zn143  1  0.90752033  0.45042821  0.17270224  1
  Zn  Zn144  1  0.94172704  0.43597089  0.68665056  1
  Zn  Zn145  1  0.93754219  0.93782592  0.18799979  1
  Zn  Zn146  1  0.93100893  0.93757554  0.68745071  1
  Zn  Zn147  1  0.06481924  0.06262657  0.31466801  1
  Zn  Zn148  1  0.06285264  0.06431957  0.81088865  1
  Zn  Zn149  1  0.05796242  0.56127905  0.31448445  1
  Zn  Zn150  1  0.06014604  0.56338850  0.81321572  1
  Zn  Zn151  1  0.56447375  0.06293653  0.30997600  1
  Zn  Zn152  1  0.55413405  0.05336484  0.80701092  1
  Zn  Zn153  1  0.56227035  0.56407697  0.31646996  1
  Zn  Zn154  1  0.55531040  0.55651582  0.80996119  1
  Zn  Zn155  1  0.43629290  0.19370920  0.44158418  1
  Zn  Zn156  1  0.55075102  0.20011281  0.92806428  1
  Zn  Zn157  1  0.44244627  0.68798384  0.44118934  1
  Zn  Zn158  1  0.44054141  0.69027961  0.93480516  1
  Zn  Zn159  1  0.93610518  0.18341254  0.43565308  1
  Zn  Zn160  1  0.93808149  0.18931643  0.93578866  1
  Zn  Zn161  1  0.94209786  0.68286722  0.43262373  1
  Zn  Zn162  1  0.93504748  0.68741552  0.93293999  1
  Zn  Zn163  1  0.06056221  0.31188953  0.06466225  1
  Zn  Zn164  1  0.06652001  0.31144356  0.56330733  1
  Zn  Zn165  1  0.06407364  0.81466167  0.06326865  1
  Zn  Zn166  1  0.06235034  0.80914892  0.56248527  1
  Zn  Zn167  1  0.55919764  0.31636259  0.06491600  1
  Zn  Zn168  1  0.56402730  0.31836180  0.56561821  1
  Zn  Zn169  1  0.56270329  0.80761167  0.05616761  1
  Zn  Zn170  1  0.56078710  0.81034762  0.56114038  1
  O  O171  1  0.12147649  0.11976312  0.11917982  1
  O  O172  1  0.11977419  0.11937385  0.61673021  1
  O  O173  1  0.11908520  0.61856403  0.11922782  1
  O  O174  1  0.11263528  0.63070191  0.61683300  1
  O  O175  1  0.61419652  0.11722418  0.13311739  1
  O  O176  1  0.61478371  0.12139727  0.62683634  1
  O  O177  1  0.61646615  0.63012878  0.11743040  1
  O  O178  1  0.61411022  0.60772027  0.62924759  1
  O  O179  1  0.38033271  0.38123304  0.38344596  1
  O  O180  1  0.36368229  0.38644345  0.88711375  1
  O  O181  1  0.38562498  0.87173218  0.38492834  1
  O  O182  1  0.38031041  0.87221740  0.88642924  1
  O  O183  1  0.88307024  0.37896370  0.38127086  1
  O  O184  1  0.88577637  0.37311967  0.88030881  1
  O  O185  1  0.87879476  0.89100855  0.36631910  1
  O  O186  1  0.87984456  0.88975605  0.88265390  1
  O  O187  1  0.24539418  0.00949882  0.36666761  1
  O  O188  1  0.24267836  0.01524701  0.87361997  1
  O  O189  1  0.26444618  0.50165653  0.37737502  1
  O  O190  1  0.26028707  0.50657541  0.88166555  1
  O  O191  1  0.75349442  0.00513448  0.37134824  1
  O  O192  1  0.75535771  0.00841197  0.87135160  1
  O  O193  1  0.76789966  0.48849121  0.35919684  1
  O  O194  1  0.75713191  0.51533824  0.87776768  1
  O  O195  1  0.23348723  0.49674971  0.12431481  1
  O  O196  1  0.25134594  0.48584163  0.61936384  1
  O  O197  1  0.23784727  1.00782861  0.13466967  1
  O  O198  1  0.23999855  0.99230819  0.62415709  1
  O  O199  1  0.79830479  0.48667858  0.14276330  1
  O  O200  1  0.74344773  0.48624435  0.63045270  1
  O  O201  1  0.74325813  0.99664803  0.12791417  1
  O  O202  1  0.73726021  0.99958116  0.62291851  1
  O  O203  1  0.00555162  0.36697527  0.25500523  1
  O  O204  1  0.00936418  0.37242532  0.75643900  1
  O  O205  1  0.00801151  0.86475285  0.24893081  1
  O  O206  1  0.00296722  0.86906037  0.75403852  1
  O  O207  1  0.50648583  0.36878491  0.26115365  1
  O  O208  1  0.50795563  0.36961742  0.74557780  1
  O  O209  1  0.49713113  0.86979605  0.25748274  1
  O  O210  1  0.49397286  0.87805254  0.75938641  1
  O  O211  1  0.49793844  0.13419848  0.24700355  1
  O  O212  1  0.48971932  0.12178456  0.73715811  1
  O  O213  1  0.49183790  0.63313235  0.24427951  1
  O  O214  1  0.48626390  0.62235416  0.73700323  1
  O  O215  1  0.99669501  0.13130257  0.24701328  1
  O  O216  1  0.99458625  0.12630537  0.74020666  1
  O  O217  1  0.99883605  0.63864519  0.24578978  1
  O  O218  1  0.99685938  0.63099002  0.74031375  1
  O  O219  1  0.36630654  0.27193853  0.00688680  1
  O  O220  1  0.36678182  0.26161778  0.50991731  1
  O  O221  1  0.36705510  0.75428013  0.00447643  1
  O  O222  1  0.37167545  0.76018379  0.50908145  1
  O  O223  1  0.87320838  0.25511621  0.00546260  1
  O  O224  1  0.87494417  0.26223350  0.49511548  1
  O  O225  1  0.87921058  0.76570047  0.00006264  1
  O  O226  1  0.87976716  0.74126445  0.50839667  1
  O  O227  1  0.13350801  0.24027355  0.50322715  1
  O  O228  1  0.12641100  0.24619075  0.98930282  1
  O  O229  1  0.12971007  0.73972085  0.49519852  1
  O  O230  1  0.12999049  0.74533193  0.99491289  1
  O  O231  1  0.62691535  0.25528710  0.48941792  1
  O  O232  1  0.62017066  0.25014548  1.00144833  1
  O  O233  1  0.62654131  0.74060451  0.50811158  1
  O  O234  1  0.62601253  0.73669400  0.99067648  1
  O  O235  1  0.49646562  0.24416795  0.13624815  1
  O  O236  1  0.49003940  0.24217315  0.61680674  1
  O  O237  1  0.49180232  0.74367868  0.13092002  1
  O  O238  1  0.48737056  0.74972353  0.63041551  1
  O  O239  1  0.99494220  0.24172426  0.13414168  1
  O  O240  1  1.00373888  0.23577903  0.62434820  1
  O  O241  1  1.00044874  0.74570394  0.13144584  1
  O  O242  1  0.99186812  0.74066862  0.62663560  1
  O  O243  1  -0.00553404  0.25278457  0.36197250  1
  O  O244  1  0.01140633  0.26047747  0.87480415  1
  O  O245  1  0.00828202  0.75166516  0.36674777  1
  O  O246  1  0.00740236  0.75770969  0.87048953  1
  O  O247  1  0.50579220  0.25770039  0.37233917  1
  O  O248  1  0.47795532  0.26344366  0.87459889  1
  O  O249  1  0.49940032  0.75889546  0.36707214  1
  O  O250  1  0.49805347  0.76742490  0.87447943  1
  O  O251  1  0.24434403  0.13011389  0.49592127  1
  O  O252  1  0.24639763  0.12566949  0.99039066  1
  O  O253  1  0.24337080  0.62993647  0.50012383  1
  O  O254  1  0.23567519  0.63223171  1.00456545  1
  O  O255  1  0.75615675  0.12797063  0.48730110  1
  O  O256  1  0.75042161  0.12225950  0.98209380  1
  O  O257  1  0.73551672  0.58059460  0.48969715  1
  O  O258  1  0.74419865  0.62653456  0.99540510  1
  O  O259  1  0.25038481  0.37835487  0.01815059  1
  O  O260  1  0.25360618  0.36841135  0.50762632  1
  O  O261  1  0.26258722  0.86616203  -0.00467936  1
  O  O262  1  0.25647297  0.87146171  0.50330996  1
  O  O263  1  0.76177435  0.37297248  -0.00986506  1
  O  O264  1  0.75986512  0.37558801  0.51232240  1
  O  O265  1  0.75786667  0.87621104  0.00466004  1
  O  O266  1  0.75817988  0.88699219  0.51754378  1
  O  O267  1  0.11517936  0.49133724  0.24178510  1
  O  O268  1  0.12366037  0.48976295  0.75357891  1
  O  O269  1  0.13109520  0.99276683  0.24509478  1
  O  O270  1  0.12389632  0.99296107  0.74190756  1
  O  O271  1  0.62330428  0.48555458  0.25488570  1
  O  O272  1  0.61557120  0.48688641  0.73440396  1
  O  O273  1  0.63261794  0.99644425  0.24037417  1
  O  O274  1  0.62463173  0.99949928  0.73345701  1
  O  O275  1  0.36071943  -0.00292022  0.24429200  1
  O  O276  1  0.36746708  0.01320676  0.74021748  1
  O  O277  1  0.37852492  0.51102740  0.25926803  1
  O  O278  1  0.36951466  0.50858670  0.76509640  1
  O  O279  1  0.86906067  0.00783395  0.25411930  1
  O  O280  1  0.87720297  0.01035437  0.75947422  1
  O  O281  1  0.90122716  0.51768027  0.26575906  1
  O  O282  1  0.88586550  0.51434729  0.74792278  1
  O  O283  1  0.12016018  0.38027942  0.36438946  1
  O  O284  1  0.12430543  0.36955964  0.86899970  1
  O  O285  1  0.12198433  0.86842008  0.36539781  1
  O  O286  1  0.11913807  0.86887700  0.87044624  1
  O  O287  1  0.61715957  0.36997752  0.37366274  1
  O  O288  1  0.62378985  0.38184792  0.85754507  1
  O  O289  1  0.61073365  0.87483146  0.37412276  1
  O  O290  1  0.61040245  0.87329253  0.87665741  1
  O  O291  1  0.38435591  0.12887596  0.13095026  1
  O  O292  1  0.37974879  0.13305545  0.62847403  1
  O  O293  1  0.37953053  0.63495480  0.13054671  1
  O  O294  1  0.37968825  0.62957614  0.63348635  1
  O  O295  1  0.88169097  0.12952791  0.12922345  1
  O  O296  1  0.88327225  0.11821911  0.63469002  1
  O  O297  1  0.88460510  0.63108797  0.13186530  1
  O  O298  1  0.88400035  0.62939935  0.62628435  1
  O  O299  1  0.25048553  0.26060239  0.12653022  1
  O  O300  1  0.25600237  0.25520225  0.61438615  1
  O  O301  1  0.25674487  0.74814915  0.11164293  1
  O  O302  1  0.25670968  0.75605270  0.61827308  1
  O  O303  1  0.76120854  0.24088289  0.12217763  1
  O  O304  1  0.74939189  0.26135943  0.62474582  1
  O  O305  1  0.75295097  0.76295545  0.12097256  1
  O  O306  1  0.76250427  0.76006673  0.61856646  1
  O  O307  1  0.25316693  0.24376548  0.38899672  1
  O  O308  1  0.24765253  0.23862488  0.87947765  1
  O  O309  1  0.24516423  0.74736240  0.38304803  1
  O  O310  1  0.23598218  0.75254670  0.88437783  1
  O  O311  1  0.74185525  0.24202224  0.37727181  1
  O  O312  1  0.75050323  0.23101089  0.87779625  1
  O  O313  1  0.74118703  0.74959525  0.36484079  1
  O  O314  1  0.76089948  0.73041452  0.88028631  1
  O  O315  1  0.00744059  0.11976252  0.00409667  1
  O  O316  1  0.00672291  0.11866698  0.50441222  1
  O  O317  1  0.00576438  0.61837037  0.00288246  1
  O  O318  1  0.00778415  0.61565078  0.50450290  1
  O  O319  1  0.49697386  0.12437780  0.01066703  1
  O  O320  1  0.49085515  0.11679905  0.50824802  1
  O  O321  1  0.50564850  0.62650610  0.00847881  1
  O  O322  1  0.49518384  0.62841981  0.52459033  1
  O  O323  1  0.48938833  0.36871843  0.49217802  1
  O  O324  1  0.48726751  0.38561864  1.00637819  1
  O  O325  1  0.49254075  0.88324310  0.49413055  1
  O  O326  1  0.48531030  0.87537686  0.99871979  1
  O  O327  1  0.99760267  0.37864446  0.49785287  1
  O  O328  1  0.99883665  0.38125302  0.99194089  1
  O  O329  1  1.00851610  0.88839263  0.49720607  1
  O  O330  1  0.99464804  0.88291274  0.99637157  1
  O  O331  1  0.48967435  0.48940381  0.37360013  1
  O  O332  1  0.48369207  0.49375012  0.87661815  1
  O  O333  1  0.50234387  0.99510892  0.38268008  1
  O  O334  1  0.49696994  0.98424595  0.87733905  1
  O  O335  1  0.99529008  0.49307982  0.38812457  1
  O  O336  1  1.00139300  0.48777540  0.88178944  1
  O  O337  1  0.99250196  1.00119865  0.38261673  1
  O  O338  1  0.99494993  0.99659504  0.88114706  1
  O  O339  1  0.01022939  0.00604152  0.12247490  1
  O  O340  1  0.00442125  0.00729789  0.61779246  1
  O  O341  1  0.00620584  0.50498004  0.11592679  1
  O  O342  1  -0.00166270  0.50593014  0.61170495  1
  O  O343  1  0.50692256  0.00987891  0.12366867  1
  O  O344  1  0.50559707  0.00918404  0.61586410  1
  O  O345  1  0.49299546  0.51651627  0.12551476  1
  O  O346  1  0.49188851  0.50529524  0.62828103  1
  O  O347  1  0.23998299  0.37183898  0.24274890  1
  O  O348  1  0.24370568  0.37300676  0.73337567  1
  O  O349  1  0.24040033  0.88139935  0.25609473  1
  O  O350  1  0.24230394  0.87484034  0.74567672  1
  O  O351  1  0.73214777  0.36837844  0.25263871  1
  O  O352  1  0.75115901  0.37158410  0.74232515  1
  O  O353  1  0.75116568  0.88499980  0.23729119  1
  O  O354  1  0.77429272  0.88675761  0.71645084  1
  O  O355  1  0.25005174  0.11797493  0.26084014  1
  O  O356  1  0.25233383  0.12288533  0.75978839  1
  O  O357  1  0.26494972  0.63273418  0.25120258  1
  O  O358  1  0.26373414  0.62417298  0.74485531  1
  O  O359  1  0.75446307  0.12072096  0.25897046  1
  O  O360  1  0.75613119  0.12089731  0.76156724  1
  O  O361  1  0.76314623  0.62318696  0.24473696  1
  O  O362  1  0.75993520  0.62291673  0.75145209  1
  O  O363  1  0.36249374  0.12818362  0.37640240  1
  O  O364  1  0.36180542  0.13096648  0.86386953  1
  O  O365  1  0.37772424  0.61831832  0.36895787  1
  O  O366  1  0.37631022  0.61959759  0.86498866  1
  O  O367  1  0.86766963  0.11588917  0.36800126  1
  O  O368  1  0.87597941  0.11423384  0.87080411  1
  O  O369  1  0.87066327  0.61769385  0.36956851  1
  O  O370  1  0.87395096  0.62145396  0.86113316  1
  O  O371  1  0.12745156  0.38225612  0.13408471  1
  O  O372  1  0.13612249  0.37228822  0.63221309  1
  O  O373  1  0.12314592  0.88484756  0.13500522  1
  O  O374  1  0.12878033  0.87851699  0.63018429  1
  O  O375  1  0.61909331  0.37545701  0.14321322  1
  O  O376  1  0.63691510  0.37687593  0.63701604  1
  O  O377  1  0.63323383  0.88084785  0.12320232  1
  O  O378  1  0.63361083  0.88224352  0.62074817  1
  O  O379  1  0.11414790  0.26071689  0.24577619  1
  O  O380  1  0.12536689  0.25663391  0.76089744  1
  O  O381  1  0.12239505  0.75685082  0.25175819  1
  O  O382  1  0.11760500  0.75249093  0.75684625  1
  O  O383  1  0.61377801  0.25906680  0.26063589  1
  O  O384  1  0.62615561  0.26433330  0.74889870  1
  O  O385  1  0.60965764  0.75485836  0.24624454  1
  O  O386  1  0.66148229  0.76142117  0.75605969  1
  O  O387  1  0.38753559  0.25176510  0.25341216  1
  O  O388  1  0.36569142  0.23832676  0.73606439  1
  O  O389  1  0.38278160  0.74685028  0.24205212  1
  O  O390  1  0.36813649  0.73745589  0.74475567  1
  O  O391  1  0.88014359  0.24583348  0.24183586  1
  O  O392  1  0.88081974  0.23421909  0.75765734  1
  O  O393  1  0.88554746  0.74366438  0.24849159  1
  O  O394  1  0.87797733  0.73761273  0.73656079  1
  O  O395  1  0.37274582  0.48770270  0.49466393  1
  O  O396  1  0.37225967  0.49683509  0.99159285  1
  O  O397  1  0.38291759  0.98731178  0.50762215  1
  O  O398  1  0.37285508  0.98483124  1.00663936  1
  O  O399  1  0.88509955  0.48822114  0.49268730  1
  O  O400  1  0.88801372  0.49128229  0.99580652  1
  O  O401  1  0.88603642  1.00676492  0.49021258  1
  O  O402  1  0.88071191  0.99371053  0.99474281  1
  O  O403  1  0.12221108  0.00322218  0.00853191  1
  O  O404  1  0.11835049  0.00743224  0.50548360  1
  O  O405  1  0.11581463  0.50674283  0.00503777  1
  O  O406  1  0.12045478  0.51093965  0.49552370  1
  O  O407  1  0.62220420  -0.00237175  0.01231502  1
  O  O408  1  0.61076816  -0.00140229  0.50886098  1
  O  O409  1  0.62175896  0.51508780  -0.00395809  1
  O  O410  1  0.61295574  0.48587026  0.52913011  1
  O  O411  1  0.36448695  0.38130662  0.12508140  1
  O  O412  1  0.36515734  0.37022616  0.62194723  1
  O  O413  1  0.37804124  0.86202844  0.11466616  1
  O  O414  1  0.36961256  0.86821176  0.62056260  1
  O  O415  1  0.88976159  0.35717491  0.10924618  1
  O  O416  1  0.86603724  0.37664870  0.62146926  1
  O  O417  1  0.86636885  0.87920214  0.11527677  1
  O  O418  1  0.88653932  0.85767810  0.61649935  1
  O  O419  1  0.13379691  0.12184134  0.38823262  1
  O  O420  1  0.13182924  0.13335644  0.87818413  1
  O  O421  1  0.12649765  0.63007049  0.38215509  1
  O  O422  1  0.11607886  0.63518245  0.88441644  1
  O  O423  1  0.63349225  0.13596780  0.36970952  1
  O  O424  1  0.62724336  0.12156156  0.87105846  1
  O  O425  1  0.62505603  0.62818867  0.38148638  1
  O  O426  1  0.62995292  0.62448470  0.87546901  1
