# generated using pymatgen
data_V85Zn86O256
_symmetry_space_group_name_H-M   'P 1'
_cell_length_a   16.95857755
_cell_length_b   16.93780635
_cell_length_c   16.95745766
_cell_angle_alpha   90.00671090
_cell_angle_beta   89.96218400
_cell_angle_gamma   90.03685735
_symmetry_Int_Tables_number   1
_chemical_formula_structural   V85Zn86O256
_chemical_formula_sum   'V85 Zn86 O256'
_cell_volume   4870.87673247
_cell_formula_units_Z   1
loop_
 _symmetry_equiv_pos_site_id
 _symmetry_equiv_pos_as_xyz
  1  'x, y, z'
loop_
 _atom_site_type_symbol
 _atom_site_label
 _atom_site_symmetry_multiplicity
 _atom_site_fract_x
 _atom_site_fract_y
 _atom_site_fract_z
 _atom_site_occupancy
  V  V0  1  0.51089113  0.37050079  0.87466547  1
  V  V1  1  0.00062366  0.36954434  0.87579802  1
  V  V2  1  0.59044914  0.02055360  0.15536381  1
  V  V3  1  0.51131763  0.49458769  0.50094694  1
  V  V4  1  0.75334804  0.62222519  0.87489375  1
  V  V5  1  0.37528550  0.37386387  0.49549455  1
  V  V6  1  0.74745446  0.24940946  -0.00240535  1
  V  V7  1  0.37408610  0.49762734  0.87606123  1
  V  V8  1  0.38450338  0.23357693  0.13655104  1
  V  V9  1  0.12126044  0.00647779  0.62508449  1
  V  V10  1  0.62655502  0.86872031  0.74787942  1
  V  V11  1  0.24886350  0.49765269  0.74886060  1
  V  V12  1  0.24792470  0.50153008  0.25186247  1
  V  V13  1  0.75482831  0.49755775  0.25165506  1
  V  V14  1  0.10879238  0.62026547  0.50104564  1
  V  V15  1  0.50551604  0.63070787  0.13082768  1
  V  V16  1  -0.00175756  0.73425110  0.74469272  1
  V  V17  1  0.49886071  0.00975351  0.50446406  1
  V  V18  1  0.37827282  0.63468726  0.25419498  1
  V  V19  1  0.87696078  0.75156923  0.12385538  1
  V  V20  1  0.24779013  0.37223639  0.12626831  1
  V  V21  1  0.25074690  0.87297655  0.12444484  1
  V  V22  1  0.12161581  0.87214248  0.74798287  1
  V  V23  1  0.87728531  0.37169341  0.00200802  1
  V  V24  1  0.63363946  0.38678780  0.73642039  1
  V  V25  1  0.87620735  -0.00010703  0.87297897  1
  V  V26  1  0.24684120  0.62511569  0.88841272  1
  V  V27  1  0.37269257  0.74835810  0.62647772  1
  V  V28  1  0.37985330  0.75493964  0.12708689  1
  V  V29  1  -0.00902566  0.25004457  0.25792320  1
  V  V30  1  0.74886809  0.13363110  0.38354376  1
  V  V31  1  0.87706378  0.74261715  0.61934464  1
  V  V32  1  0.50370409  0.49773769  0.00267116  1
  V  V33  1  0.50738242  0.24808528  0.75092901  1
  V  V34  1  0.87438317  0.87822125  -0.00153796  1
  V  V35  1  0.74896128  0.75270890  0.00243677  1
  V  V36  1  0.12625437  0.37111532  0.74846077  1
  V  V37  1  0.13983261  0.13299790  0.50092150  1
  V  V38  1  0.49978480  0.00221210  -0.00584803  1
  V  V39  1  0.00755371  0.50605890  0.00355301  1
  V  V40  1  0.37547168  0.87556797  0.49798929  1
  V  V41  1  0.00099945  0.88110515  0.37682055  1
  V  V42  1  0.87430226  0.50070411  0.87310934  1
  V  V43  1  0.62083821  0.00446632  0.62593143  1
  V  V44  1  0.12814939  0.87970235  0.25149790  1
  V  V45  1  0.14203978  0.24816049  0.37414794  1
  V  V46  1  0.58175343  0.44309225  0.18142939  1
  V  V47  1  0.74705809  0.63845035  0.36883999  1
  V  V48  1  0.00014813  0.01246268  0.50212633  1
  V  V49  1  0.74980681  -0.00265458  0.74921362  1
  V  V50  1  0.24510460  0.12219743  0.87575447  1
  V  V51  1  0.86798247  0.38900434  0.49844528  1
  V  V52  1  0.24851632  0.87507712  0.62461726  1
  V  V53  1  0.74546387  0.12661926  0.87407207  1
  V  V54  1  0.62645489  0.86889388  0.25413636  1
  V  V55  1  0.24987567  0.62630055  0.37946420  1
  V  V56  1  0.50059355  0.61941670  0.62436931  1
  V  V57  1  0.87711368  0.12522163  0.74222486  1
  V  V58  1  0.74962281  0.37972279  0.12643647  1
  V  V59  1  0.62408714  0.62217553  0.00386540  1
  V  V60  1  0.49805445  0.87008970  0.87391810  1
  V  V61  1  0.00043478  0.24525786  0.73910787  1
  V  V62  1  0.12803120  0.00919378  0.12170027  1
  V  V63  1  0.87592805  0.00859518  0.37470157  1
  V  V64  1  0.37141062  0.62260462  0.75108421  1
  V  V65  1  0.37451281  0.36804262  -0.00163713  1
  V  V66  1  0.85697954  0.25431893  0.61619304  1
  V  V67  1  0.37212455  0.01513568  0.37511191  1
  V  V68  1  0.00210379  0.75212088  0.24913574  1
  V  V69  1  0.75854343  0.00959415  0.24611249  1
  V  V70  1  0.37050844  0.87088334  -0.00178947  1
  V  V71  1  0.61397728  0.25916540  0.36933997  1
  V  V72  1  0.12604058  0.74553796  0.88507372  1
  V  V73  1  0.37833648  0.12435840  0.74755861  1
  V  V74  1  0.62146682  0.12292737  -0.00209695  1
  V  V75  1  -0.00538007  0.12702438  0.12802238  1
  V  V76  1  0.25144392  0.01463599  0.25535161  1
  V  V77  1  0.24217294  0.24285034  0.00045269  1
  V  V78  1  0.50293159  0.86638766  0.37182225  1
  V  V79  1  0.25049038  0.36944347  0.61881756  1
  V  V80  1  0.00483580  0.00726336  -0.00230879  1
  V  V81  1  0.62525399  0.74935743  0.87709715  1
  V  V82  1  0.38160770  0.24796158  0.62195005  1
  V  V83  1  0.12546432  0.75235691  0.37774046  1
  V  V84  1  0.11244628  0.50028777  0.62047478  1
  Zn  Zn85  1  0.75225793  0.87213587  0.62124665  1
  Zn  Zn86  1  0.74279404  0.88330516  0.12512595  1
  Zn  Zn87  1  0.12043958  0.24355148  0.87719267  1
  Zn  Zn88  1  0.87173686  0.24549737  0.13014135  1
  Zn  Zn89  1  0.37092820  -0.00234590  0.87095263  1
  Zn  Zn90  1  0.62358784  0.63041104  0.49389337  1
  Zn  Zn91  1  0.37733834  0.50072916  0.37684548  1
  Zn  Zn92  1  0.01435061  0.63531007  0.11742843  1
  Zn  Zn93  1  0.62586608  0.13457089  0.50818753  1
  Zn  Zn94  1  0.24708098  0.74810782  0.50173099  1
  Zn  Zn95  1  0.13369464  0.51066131  0.11905907  1
  Zn  Zn96  1  0.87960619  0.62475333  0.24662167  1
  Zn  Zn97  1  0.50216570  0.37798155  0.35836682  1
  Zn  Zn98  1  0.49976511  0.74461026  0.74999328  1
  Zn  Zn99  1  0.83469231  0.57654149  0.71236122  1
  Zn  Zn100  1  0.12281704  0.37793901  0.25437886  1
  Zn  Zn101  1  0.00532600  0.38242361  0.38982741  1
  Zn  Zn102  1  0.73685577  0.76088809  0.48798223  1
  Zn  Zn103  1  0.88476261  0.50655920  0.37518625  1
  Zn  Zn104  1  0.24973097  0.00027279  0.74988026  1
  Zn  Zn105  1  0.87465314  0.87823015  0.50283335  1
  Zn  Zn106  1  0.00041979  0.87362971  0.87455619  1
  Zn  Zn107  1  0.18472531  0.19061753  0.18674648  1
  Zn  Zn108  1  0.19188080  0.18778631  0.68602952  1
  Zn  Zn109  1  0.18894728  0.68938538  0.18586473  1
  Zn  Zn110  1  0.18499159  0.68327721  0.68753139  1
  Zn  Zn111  1  0.68806540  0.18882528  0.18906166  1
  Zn  Zn112  1  0.68442638  0.18717682  0.69131875  1
  Zn  Zn113  1  0.69029019  0.68746910  0.18841492  1
  Zn  Zn114  1  0.70237995  0.66196654  0.66926346  1
  Zn  Zn115  1  0.31815027  0.31176443  0.31057361  1
  Zn  Zn116  1  0.31374623  0.30819194  0.81188257  1
  Zn  Zn117  1  0.31254688  0.81715797  0.31323086  1
  Zn  Zn118  1  0.30677231  0.80915525  0.81192800  1
  Zn  Zn119  1  0.81111617  0.31591658  0.31628473  1
  Zn  Zn120  1  0.81086623  0.31119057  0.81233845  1
  Zn  Zn121  1  0.81715965  0.82217972  0.30923225  1
  Zn  Zn122  1  0.81455914  0.80856622  0.80995895  1
  Zn  Zn123  1  0.18712678  0.43711432  0.43879697  1
  Zn  Zn124  1  0.18744234  0.43174307  0.93503287  1
  Zn  Zn125  1  0.18952716  0.94259999  0.43939026  1
  Zn  Zn126  1  0.18704554  0.93552487  0.93674021  1
  Zn  Zn127  1  0.69217705  0.43621138  0.43562035  1
  Zn  Zn128  1  0.68786963  0.43855249  0.93737402  1
  Zn  Zn129  1  0.68782358  0.94005904  0.43866941  1
  Zn  Zn130  1  0.68617588  0.93901674  0.93685007  1
  Zn  Zn131  1  0.31320749  0.05927837  0.05908004  1
  Zn  Zn132  1  0.31264546  0.06287832  0.56550187  1
  Zn  Zn133  1  0.31731636  0.56182616  0.06572885  1
  Zn  Zn134  1  0.31135727  0.55605030  0.56167780  1
  Zn  Zn135  1  0.81471651  0.06448235  0.06155387  1
  Zn  Zn136  1  0.81068386  0.06111742  0.56410998  1
  Zn  Zn137  1  0.81648667  0.56221964  0.06208998  1
  Zn  Zn138  1  0.80983357  0.56648695  0.54941630  1
  Zn  Zn139  1  0.41636909  0.44051446  0.18440837  1
  Zn  Zn140  1  0.44089697  0.43426665  0.68658288  1
  Zn  Zn141  1  0.43939961  0.95166656  0.19559611  1
  Zn  Zn142  1  0.43814623  0.93687381  0.68792099  1
  Zn  Zn143  1  0.94023779  0.43555098  0.18946780  1
  Zn  Zn144  1  0.93639290  0.42526009  0.68478763  1
  Zn  Zn145  1  0.93718587  0.93792754  0.18624178  1
  Zn  Zn146  1  0.93965616  0.93378886  0.68497939  1
  Zn  Zn147  1  0.06592080  0.07017072  0.31326120  1
  Zn  Zn148  1  0.06247214  0.06283855  0.81027164  1
  Zn  Zn149  1  0.06362965  0.56475957  0.31093590  1
  Zn  Zn150  1  0.06398380  0.55823876  0.81536561  1
  Zn  Zn151  1  0.56643889  0.05792232  0.32503367  1
  Zn  Zn152  1  0.56131860  0.06111522  0.81203322  1
  Zn  Zn153  1  0.56152737  0.56748584  0.31832792  1
  Zn  Zn154  1  0.56129951  0.56125100  0.81417093  1
  Zn  Zn155  1  0.44275760  0.19318193  0.43669523  1
  Zn  Zn156  1  0.43287064  0.18701399  0.93517430  1
  Zn  Zn157  1  0.43831278  0.68801833  0.44160890  1
  Zn  Zn158  1  0.43495750  0.68696242  0.94121584  1
  Zn  Zn159  1  0.93881143  0.18864189  0.43945719  1
  Zn  Zn160  1  0.93523445  0.18561246  0.93596478  1
  Zn  Zn161  1  0.93253941  0.68821464  0.43219144  1
  Zn  Zn162  1  0.93879760  0.68791634  0.93392572  1
  Zn  Zn163  1  0.06356747  0.31304288  0.06653859  1
  Zn  Zn164  1  0.05761705  0.31106095  0.56136041  1
  Zn  Zn165  1  0.06233856  0.82187113  0.06208834  1
  Zn  Zn166  1  0.05932517  0.81396002  0.56089176  1
  Zn  Zn167  1  0.55922049  0.30108855  0.05841258  1
  Zn  Zn168  1  0.56819055  0.31107685  0.56009941  1
  Zn  Zn169  1  0.56302702  0.82055684  0.06955523  1
  Zn  Zn170  1  0.56078572  0.81215436  0.56237909  1
  O  O171  1  0.11688818  0.11406657  0.12589565  1
  O  O172  1  0.12935366  0.12007108  0.61363519  1
  O  O173  1  0.12719199  0.62433964  0.12248010  1
  O  O174  1  0.13147484  0.61326182  0.61302345  1
  O  O175  1  0.62990234  0.11263327  0.11767687  1
  O  O176  1  0.62752000  0.10992100  0.62728095  1
  O  O177  1  0.61218950  0.63365587  0.12164041  1
  O  O178  1  0.60065595  0.63283256  0.62738077  1
  O  O179  1  0.38107350  0.37663827  0.38125357  1
  O  O180  1  0.37907075  0.37874024  0.88269723  1
  O  O181  1  0.38237291  0.88150998  0.38269490  1
  O  O182  1  0.37969572  0.87062449  0.88064748  1
  O  O183  1  0.87570470  0.37684872  0.38898750  1
  O  O184  1  0.87857887  0.37805962  0.88585900  1
  O  O185  1  0.88418005  0.89020013  0.37748751  1
  O  O186  1  0.87652496  0.88143622  0.88048690  1
  O  O187  1  0.25978386  -0.00195332  0.36837697  1
  O  O188  1  0.25079124  0.00617502  0.87139427  1
  O  O189  1  0.25195834  0.50781452  0.36808855  1
  O  O190  1  0.25387150  0.50432466  0.86975822  1
  O  O191  1  0.75851469  0.00761664  0.36758487  1
  O  O192  1  0.75594947  0.00587131  0.86920198  1
  O  O193  1  0.75477849  0.50844172  0.36377080  1
  O  O194  1  0.76091793  0.50938258  0.88273415  1
  O  O195  1  0.25501158  0.49122660  0.13235874  1
  O  O196  1  0.24555778  0.48786604  0.63221842  1
  O  O197  1  0.24457840  0.99361226  0.13066303  1
  O  O198  1  0.23790451  0.99380230  0.62604982  1
  O  O199  1  0.75067301  0.48737391  0.12569034  1
  O  O200  1  0.74915401  0.55861972  0.64099249  1
  O  O201  1  0.75759608  1.00294480  0.14032026  1
  O  O202  1  0.74239261  0.99567610  0.63380926  1
  O  O203  1  0.00611385  0.35755763  0.24357024  1
  O  O204  1  0.00546659  0.36348686  0.75605268  1
  O  O205  1  0.00707854  0.87019005  0.25469110  1
  O  O206  1  0.01277917  0.87084969  0.75269766  1
  O  O207  1  0.50767192  0.39541604  0.23995399  1
  O  O208  1  0.50600317  0.36824492  0.75788831  1
  O  O209  1  0.50717968  0.88143090  0.26521632  1
  O  O210  1  0.50439246  0.87213906  0.76133808  1
  O  O211  1  0.51495744  0.05470479  0.22358938  1
  O  O212  1  0.48791130  0.13266703  0.75850464  1
  O  O213  1  0.49059783  0.62119947  0.24302792  1
  O  O214  1  0.48779153  0.62251241  0.74502347  1
  O  O215  1  1.00565869  0.13967054  0.24248148  1
  O  O216  1  0.98784616  0.13221495  0.75656438  1
  O  O217  1  1.00152366  0.64324125  0.24614534  1
  O  O218  1  1.00459536  0.63537642  0.75158856  1
  O  O219  1  0.36604942  0.25764221  0.00368686  1
  O  O220  1  0.38499740  0.26332836  0.50783895  1
  O  O221  1  0.37794821  0.76303154  0.00902474  1
  O  O222  1  0.37129083  0.75820072  0.50840499  1
  O  O223  1  0.86763337  0.25587653  0.00329417  1
  O  O224  1  0.87215486  0.24196305  0.51608373  1
  O  O225  1  0.87024559  0.75762395  0.00300841  1
  O  O226  1  0.88156787  0.75479368  0.51240210  1
  O  O227  1  0.12210424  0.23969827  0.49243629  1
  O  O228  1  0.13848318  0.25456289  0.99898550  1
  O  O229  1  0.12629408  0.74268687  0.49515874  1
  O  O230  1  0.11587270  0.75642701  0.98300154  1
  O  O231  1  0.61869297  0.24612982  0.48221586  1
  O  O232  1  0.63233573  0.23282283  1.00264793  1
  O  O233  1  0.62566986  0.74397191  0.50588671  1
  O  O234  1  0.63241923  0.74781988  1.00006523  1
  O  O235  1  0.48342330  0.24777284  0.12113298  1
  O  O236  1  0.48899441  0.25603171  0.63466312  1
  O  O237  1  0.48866130  0.74621111  0.12285155  1
  O  O238  1  0.48342433  0.74495820  0.62786337  1
  O  O239  1  1.00129356  0.24183001  0.13346136  1
  O  O240  1  0.98938862  0.25055144  0.63707097  1
  O  O241  1  0.99477601  0.75583218  0.13016865  1
  O  O242  1  0.99511304  0.75516210  0.63794433  1
  O  O243  1  0.00425731  0.25010554  0.36430833  1
  O  O244  1  -0.00055937  0.25383990  0.86780142  1
  O  O245  1  0.00428925  0.75912020  0.36694379  1
  O  O246  1  0.00873469  0.75006527  0.86347535  1
  O  O247  1  0.50869188  0.25596973  0.36679425  1
  O  O248  1  0.49069586  0.26063729  0.86512117  1
  O  O249  1  0.49424937  0.76753887  0.37927161  1
  O  O250  1  0.50612162  0.75361684  0.87449748  1
  O  O251  1  0.23829211  0.12432981  0.50083611  1
  O  O252  1  0.25416163  0.13179801  0.99017161  1
  O  O253  1  0.24935820  0.62389394  0.48761760  1
  O  O254  1  0.25799189  0.61936349  0.98727647  1
  O  O255  1  0.74556219  0.11635184  0.48641432  1
  O  O256  1  0.74496040  0.12930677  0.99426903  1
  O  O257  1  0.74953154  0.63441014  0.47818070  1
  O  O258  1  0.74519868  0.63355160  0.99681858  1
  O  O259  1  0.25737589  0.36857785  0.00545823  1
  O  O260  1  0.26084392  0.37944821  0.50850223  1
  O  O261  1  0.25932923  0.88073345  0.01044009  1
  O  O262  1  0.26098702  0.87492106  0.50516432  1
  O  O263  1  0.75522656  0.36722595  0.00377510  1
  O  O264  1  0.76670260  0.37736036  0.50019725  1
  O  O265  1  0.75351867  0.87073931  0.00388609  1
  O  O266  1  0.75541630  0.87439236  0.50127566  1
  O  O267  1  0.13936752  0.49967687  0.24630858  1
  O  O268  1  0.13099871  0.49194824  0.74466515  1
  O  O269  1  0.12919543  0.99672316  0.24390951  1
  O  O270  1  0.12464747  0.99271996  0.74083481  1
  O  O271  1  0.63577030  0.50570863  0.24608941  1
  O  O272  1  0.61957042  0.48540042  0.75440124  1
  O  O273  1  0.64511419  0.99489593  0.25408012  1
  O  O274  1  0.62738303  0.98949554  0.74636702  1
  O  O275  1  0.36243544  -0.00285132  0.26444014  1
  O  O276  1  0.37280912  0.00897104  0.74918726  1
  O  O277  1  0.36315773  0.51542668  0.25245556  1
  O  O278  1  0.36912751  0.50220262  0.75580274  1
  O  O279  1  0.86683315  -0.00290375  0.25873590  1
  O  O280  1  0.87216048  0.00672812  0.75229976  1
  O  O281  1  0.86376786  0.50390663  0.24166040  1
  O  O282  1  0.88606564  0.49261083  0.76674047  1
  O  O283  1  0.12388544  0.36052531  0.37793122  1
  O  O284  1  0.11896817  0.36931394  0.86556963  1
  O  O285  1  0.12094525  0.87369669  0.37167482  1
  O  O286  1  0.12602075  0.86276838  0.86566363  1
  O  O287  1  0.62414605  0.36386226  0.37425549  1
  O  O288  1  0.61265498  0.37496890  0.87626438  1
  O  O289  1  0.61109603  0.88263382  0.37004988  1
  O  O290  1  0.61711493  0.86932014  0.87052475  1
  O  O291  1  0.37098026  0.13479638  0.12074994  1
  O  O292  1  0.36998683  0.13647706  0.63262678  1
  O  O293  1  0.38283250  0.63495788  0.13166122  1
  O  O294  1  0.37652451  0.63021503  0.62983712  1
  O  O295  1  0.88987999  0.12599153  0.12329397  1
  O  O296  1  0.86878533  0.13177548  0.63723356  1
  O  O297  1  0.88001562  0.64156144  0.12257842  1
  O  O298  1  0.88736149  0.64035239  0.62413813  1
  O  O299  1  0.25457453  0.25449647  0.11819776  1
  O  O300  1  0.26198472  0.26300526  0.63037156  1
  O  O301  1  0.26189722  0.76557548  0.13206790  1
  O  O302  1  0.25806469  0.75392718  0.62478514  1
  O  O303  1  0.75090912  0.25771419  0.11647637  1
  O  O304  1  0.75902388  0.24666812  0.62836403  1
  O  O305  1  0.75729838  0.75428825  0.11529258  1
  O  O306  1  0.76915648  0.75013890  0.62819890  1
  O  O307  1  0.24018303  0.25166592  0.37234521  1
  O  O308  1  0.24952520  0.24200098  0.88353264  1
  O  O309  1  0.24338316  0.74417711  0.37633592  1
  O  O310  1  0.23504030  0.74033285  0.87195566  1
  O  O311  1  0.74934772  0.23553285  0.37248085  1
  O  O312  1  0.75482948  0.24093397  0.88891694  1
  O  O313  1  0.75721924  0.74218411  0.36687872  1
  O  O314  1  0.74632577  0.74917537  0.88946255  1
  O  O315  1  -0.00250279  0.11415597  0.00606552  1
  O  O316  1  0.01167359  0.11599749  0.49732814  1
  O  O317  1  -0.00321818  0.60897910  -0.00172778  1
  O  O318  1  0.01061336  0.62685548  0.49129824  1
  O  O319  1  0.50822601  0.11556705  -0.01221958  1
  O  O320  1  0.50121278  0.11261448  0.49930362  1
  O  O321  1  0.50093651  0.61846837  0.01133775  1
  O  O322  1  0.49617438  0.61217616  0.50613269  1
  O  O323  1  0.49621823  0.38675079  0.50119570  1
  O  O324  1  0.49306943  0.37505322  0.99356680  1
  O  O325  1  0.48863544  0.88158186  0.49492361  1
  O  O326  1  0.49558421  0.87683067  0.98687633  1
  O  O327  1  0.97723188  0.36231664  0.50166393  1
  O  O328  1  0.99259552  0.37785195  0.99720852  1
  O  O329  1  1.00408549  0.89108409  0.49147005  1
  O  O330  1  0.99260661  0.88874181  0.99720371  1
  O  O331  1  0.49788752  0.49859598  0.38688052  1
  O  O332  1  0.49133051  0.49205466  0.88245095  1
  O  O333  1  0.49045389  0.99134242  0.38764656  1
  O  O334  1  0.49690319  0.98880925  0.87980730  1
  O  O335  1  0.99555373  0.48978682  0.35396653  1
  O  O336  1  0.99625940  0.49140568  0.88608980  1
  O  O337  1  0.99438422  1.00285017  0.37940567  1
  O  O338  1  0.99586050  0.99999025  0.88212997  1
  O  O339  1  0.00742287  0.00592393  0.12017482  1
  O  O340  1  0.01326819  -0.00265407  0.61745593  1
  O  O341  1  0.00129954  0.49949866  0.11090680  1
  O  O342  1  0.01407340  0.49164483  0.63210646  1
  O  O343  1  0.49672365  -0.01435722  0.09901593  1
  O  O344  1  0.50777742  -0.00711026  0.61645897  1
  O  O345  1  0.50521219  0.50407963  0.12377345  1
  O  O346  1  0.49241292  0.50610553  0.61155872  1
  O  O347  1  0.25259658  0.38451177  0.24308303  1
  O  O348  1  0.24501510  0.37800225  0.74476907  1
  O  O349  1  0.24465506  0.88417142  0.24346034  1
  O  O350  1  0.23773683  0.87469655  0.74366418  1
  O  O351  1  0.75275517  0.38306678  0.24018881  1
  O  O352  1  0.73102063  0.36908480  0.75812842  1
  O  O353  1  0.74472976  0.88825985  0.24868454  1
  O  O354  1  0.74095570  0.87922929  0.75201517  1
  O  O355  1  0.24284745  0.11325102  0.24700497  1
  O  O356  1  0.26179223  0.12549690  0.75562739  1
  O  O357  1  0.25609372  0.62241684  0.26107390  1
  O  O358  1  0.25499172  0.61680950  0.75713114  1
  O  O359  1  0.75003165  0.11395425  0.26037717  1
  O  O360  1  0.75472236  0.11970871  0.75848715  1
  O  O361  1  0.75417328  0.61876317  0.25318006  1
  O  O362  1  0.75429894  0.64430349  0.77477416  1
  O  O363  1  0.37989564  0.11415036  0.38111512  1
  O  O364  1  0.36356460  0.12287971  0.86637449  1
  O  O365  1  0.36882858  0.62720332  0.36924737  1
  O  O366  1  0.36873324  0.61921318  0.87046485  1
  O  O367  1  0.86509432  0.11677580  0.37975732  1
  O  O368  1  0.86386337  0.11934988  0.86739332  1
  O  O369  1  0.86469629  0.62474913  0.36607195  1
  O  O370  1  0.86767509  0.61343687  0.88346993  1
  O  O371  1  0.13966518  0.37756160  0.12736399  1
  O  O372  1  0.13286164  0.37677969  0.62704942  1
  O  O373  1  0.13367068  0.88448673  0.13037415  1
  O  O374  1  0.12926656  0.88124556  0.62936725  1
  O  O375  1  0.63059507  0.37296479  0.11857206  1
  O  O376  1  0.62306008  0.37540874  0.63695759  1
  O  O377  1  0.61981049  0.89818059  0.13834889  1
  O  O378  1  0.62469988  0.88246003  0.63547981  1
  O  O379  1  0.12071933  0.25081001  0.26410029  1
  O  O380  1  0.11664864  0.25301048  0.74795805  1
  O  O381  1  0.12035008  0.75999455  0.25634366  1
  O  O382  1  0.11549032  0.75414355  0.75248302  1
  O  O383  1  0.63082063  0.24240286  0.26997930  1
  O  O384  1  0.61065989  0.25416522  0.74810394  1
  O  O385  1  0.63077639  0.77006272  0.24015975  1
  O  O386  1  0.62251515  0.76089529  0.75544595  1
  O  O387  1  0.37253966  0.24785468  0.23554558  1
  O  O388  1  0.38328310  0.24443358  0.74240450  1
  O  O389  1  0.37195210  0.74182006  0.24438747  1
  O  O390  1  0.37351142  0.74149667  0.74360187  1
  O  O391  1  0.88762722  0.25303881  0.24988660  1
  O  O392  1  0.87872221  0.24407049  0.74256293  1
  O  O393  1  0.88509789  0.75587823  0.23933824  1
  O  O394  1  0.89173342  0.75260104  0.74422238  1
  O  O395  1  0.38258153  0.48810869  0.49829414  1
  O  O396  1  0.38187932  0.48629221  0.99919701  1
  O  O397  1  0.37884951  0.99374714  0.49741370  1
  O  O398  1  0.38112883  0.98759420  0.99374224  1
  O  O399  1  0.87855714  0.49308547  0.49833122  1
  O  O400  1  0.88433623  0.49060617  0.99377402  1
  O  O401  1  0.88512843  1.00245044  0.49515909  1
  O  O402  1  0.88114461  0.99640901  0.99369497  1
  O  O403  1  0.11630450  -0.00655030  0.00928785  1
  O  O404  1  0.12199273  0.01285043  0.50485953  1
  O  O405  1  0.11032221  0.49092454  -0.00120564  1
  O  O406  1  0.12740025  0.50747794  0.50826357  1
  O  O407  1  0.61758153  0.00961830  -0.00046524  1
  O  O408  1  0.61504081  -0.00049057  0.50999514  1
  O  O409  1  0.61611508  0.50880422  -0.00367833  1
  O  O410  1  0.61391380  0.50530256  0.49506641  1
  O  O411  1  0.36406665  0.36537801  0.11585835  1
  O  O412  1  0.36886828  0.36864880  0.61908285  1
  O  O413  1  0.37148869  0.87194315  0.12120654  1
  O  O414  1  0.36996159  0.86789392  0.61978145  1
  O  O415  1  0.86793477  0.37236046  0.11415849  1
  O  O416  1  0.87006780  0.36249425  0.61656182  1
  O  O417  1  0.87317815  0.86737236  0.11644333  1
  O  O418  1  0.87520846  0.86351865  0.62387672  1
  O  O419  1  0.12561885  0.13816865  0.38680709  1
  O  O420  1  0.13985057  0.12624791  0.86710840  1
  O  O421  1  0.13298625  0.63108694  0.38055913  1
  O  O422  1  0.13158061  0.63586017  0.87292989  1
  O  O423  1  0.63616009  0.12813790  0.38036249  1
  O  O424  1  0.63815656  0.11865123  0.88053521  1
  O  O425  1  0.64207091  0.62751327  0.37008372  1
  O  O426  1  0.62946961  0.63152213  0.88319198  1
