# generated using pymatgen
data_V85Zn86O256
_symmetry_space_group_name_H-M   'P 1'
_cell_length_a   16.95532189
_cell_length_b   16.96978330
_cell_length_c   16.95949180
_cell_angle_alpha   89.99903393
_cell_angle_beta   89.99751240
_cell_angle_gamma   89.95752864
_symmetry_Int_Tables_number   1
_chemical_formula_structural   V85Zn86O256
_chemical_formula_sum   'V85 Zn86 O256'
_cell_volume   4879.72165341
_cell_formula_units_Z   1
loop_
 _symmetry_equiv_pos_site_id
 _symmetry_equiv_pos_as_xyz
  1  'x, y, z'
loop_
 _atom_site_type_symbol
 _atom_site_label
 _atom_site_symmetry_multiplicity
 _atom_site_fract_x
 _atom_site_fract_y
 _atom_site_fract_z
 _atom_site_occupancy
  V  V0  1  0.88428455  0.87016721  -0.00801648  1
  V  V1  1  0.61231394  0.51189353  0.10947141  1
  V  V2  1  0.61563057  -0.00018780  0.62015461  1
  V  V3  1  -0.00209084  0.12819082  0.62401072  1
  V  V4  1  0.87521978  0.50537982  0.37521226  1
  V  V5  1  0.74642284  0.50759914  0.24683854  1
  V  V6  1  0.25581183  0.62547412  0.37164203  1
  V  V7  1  0.61391688  0.87090069  0.24884237  1
  V  V8  1  -0.00825540  0.23641196  0.22969533  1
  V  V9  1  0.12628379  0.00151301  0.62313120  1
  V  V10  1  0.75334443  0.00257154  0.24992340  1
  V  V11  1  0.12529068  0.75865992  0.87978957  1
  V  V12  1  0.12479915  0.50042214  0.62605988  1
  V  V13  1  0.25023299  0.37248818  0.62524186  1
  V  V14  1  0.60429754  0.73370280  0.89742227  1
  V  V15  1  0.74909636  0.37428276  0.62397684  1
  V  V16  1  0.37942067  0.50196518  0.37041372  1
  V  V17  1  0.87144243  0.12851368  0.74473960  1
  V  V18  1  -0.00029178  0.75256038  0.75625010  1
  V  V19  1  0.75092982  0.74832688  0.49877182  1
  V  V20  1  0.87647312  0.75160396  0.62527554  1
  V  V21  1  0.25998678  0.75050966  0.50252872  1
  V  V22  1  0.80454400  0.20332395  0.05381274  1
  V  V23  1  0.25507782  0.75084941  0.01277723  1
  V  V24  1  0.12597455  0.75610426  0.37794927  1
  V  V25  1  0.11194354  0.13068762  0.00727414  1
  V  V26  1  0.61696446  0.74621524  0.37447207  1
  V  V27  1  0.74557261  0.62574315  0.87680510  1
  V  V28  1  0.36618700  0.12697386  0.24674924  1
  V  V29  1  0.61406190  0.12327086  -0.00159214  1
  V  V30  1  0.62307460  0.62198275  0.51409514  1
  V  V31  1  0.24582087  0.49865911  0.24376692  1
  V  V32  1  -0.00092427  0.37829243  0.87565883  1
  V  V33  1  0.62181370  0.87179817  0.75268965  1
  V  V34  1  0.50122187  0.37878004  0.88072945  1
  V  V35  1  0.87730686  0.74789545  0.13174999  1
  V  V36  1  0.87591890  0.00400202  0.37064125  1
  V  V37  1  0.49801811  0.24699746  0.74729173  1
  V  V38  1  0.37704584  0.50037416  0.88126970  1
  V  V39  1  0.93194013  0.57906346  0.19345969  1
  V  V40  1  0.12583431  0.62627736  0.50193497  1
  V  V41  1  0.37595637  0.87325094  0.01435855  1
  V  V42  1  0.74755009  0.00075094  0.75043643  1
  V  V43  1  0.37755605  0.00087419  0.88410068  1
  V  V44  1  0.87662863  0.87813455  0.49869679  1
  V  V45  1  0.62175340  0.37819060  0.74156811  1
  V  V46  1  0.11888523  0.87746057  0.75526492  1
  V  V47  1  0.49631566  0.74223596  0.74406323  1
  V  V48  1  0.61556599  -0.00455074  0.11976976  1
  V  V49  1  0.74649220  0.50122578  0.74458871  1
  V  V50  1  0.62534417  0.37196100  0.25207814  1
  V  V51  1  0.12402446  0.37685179  0.75074630  1
  V  V52  1  0.74923952  0.74872237  0.00104798  1
  V  V53  1  -0.00467886  0.25153800  0.74546671  1
  V  V54  1  0.24642394  0.25001456  0.49254583  1
  V  V55  1  0.87122492  0.37591124  -0.00051852  1
  V  V56  1  0.63007140  0.24957956  0.87681601  1
  V  V57  1  0.74323648  0.37652515  0.11761724  1
  V  V58  1  0.25125346  0.12802850  0.87674415  1
  V  V59  1  0.12739561  0.25365895  0.87302275  1
  V  V60  1  0.14234240  0.87623458  0.24425076  1
  V  V61  1  0.37932668  0.37567612  0.01125927  1
  V  V62  1  0.11836181  0.62103257  0.01227574  1
  V  V63  1  0.24766435  0.62465760  0.87585370  1
  V  V64  1  0.24440213  0.11742473  0.36919729  1
  V  V65  1  0.25682894  0.25138824  0.00907761  1
  V  V66  1  -0.00046532  0.49950890  0.50099878  1
  V  V67  1  0.74676636  0.13167209  0.37077026  1
  V  V68  1  0.61458318  0.12369509  0.49410096  1
  V  V69  1  0.25819440  0.87309291  0.62722178  1
  V  V70  1  0.49643715  0.88294385  0.39049966  1
  V  V71  1  0.44269744  0.67975374  0.19149950  1
  V  V72  1  0.49659289  0.13273167  0.12647822  1
  V  V73  1  -0.00272607  0.75193450  0.25223886  1
  V  V74  1  0.00121329  0.36665330  0.37513794  1
  V  V75  1  0.50556543  0.37030777  0.37706123  1
  V  V76  1  0.24856953  -0.00109902  0.75700382  1
  V  V77  1  0.37589309  0.37615436  0.49950923  1
  V  V78  1  0.87599749  0.62640166  0.74916295  1
  V  V79  1  0.49850735  0.87940770  0.88134576  1
  V  V80  1  0.74597903  0.24763435  0.50066940  1
  V  V81  1  0.74792965  0.87199946  0.12746851  1
  V  V82  1  0.87321699  0.37019913  0.50402636  1
  V  V83  1  0.87756802  0.50256898  0.87523199  1
  V  V84  1  0.50280602  0.50321944  0.51434352  1
  Zn  Zn85  1  0.37441356  0.24619609  0.62402158  1
  Zn  Zn86  1  0.12144595  0.12705366  0.49513789  1
  Zn  Zn87  1  0.37645102  0.61798961  0.74345043  1
  Zn  Zn88  1  0.74889376  0.87663589  0.62429542  1
  Zn  Zn89  1  0.11729170  0.37896635  0.23369606  1
  Zn  Zn90  1  0.49921939  0.25092796  0.25218936  1
  Zn  Zn91  1  0.37919625  0.00120347  0.37931289  1
  Zn  Zn92  1  0.12436470  0.00399439  0.13419095  1
  Zn  Zn93  1  0.25077757  0.49937653  0.75227329  1
  Zn  Zn94  1  0.00415211  0.49883423  0.02179074  1
  Zn  Zn95  1  0.00365926  0.88011601  0.37381625  1
  Zn  Zn96  1  0.37632058  0.12222712  0.74828418  1
  Zn  Zn97  1  0.74905888  0.12472234  0.87508072  1
  Zn  Zn98  1  0.00218103  0.00136050  0.49745998  1
  Zn  Zn99  1  0.38057166  0.74338516  0.62056448  1
  Zn  Zn100  1  0.00192065  0.62697485  0.62633777  1
  Zn  Zn101  1  0.00146504  -0.00265286  -0.00228198  1
  Zn  Zn102  1  0.24612629  0.37973652  0.12268529  1
  Zn  Zn103  1  0.49434297  0.12236975  0.61967740  1
  Zn  Zn104  1  0.75088835  0.62627433  0.37261298  1
  Zn  Zn105  1  0.12419393  0.25183716  0.36517687  1
  Zn  Zn106  1  0.87961802  -0.00631476  0.86803454  1
  Zn  Zn107  1  0.18208320  0.19568272  0.18741899  1
  Zn  Zn108  1  0.18708782  0.18778293  0.68835994  1
  Zn  Zn109  1  0.18968562  0.68760657  0.19238305  1
  Zn  Zn110  1  0.19073000  0.68725648  0.69010009  1
  Zn  Zn111  1  0.67905952  0.18441763  0.19193748  1
  Zn  Zn112  1  0.68373989  0.18865685  0.68206620  1
  Zn  Zn113  1  0.67861327  0.68722852  0.18748439  1
  Zn  Zn114  1  0.68677001  0.69197929  0.69028163  1
  Zn  Zn115  1  0.31554772  0.31224280  0.30865583  1
  Zn  Zn116  1  0.31530013  0.31487581  0.81482892  1
  Zn  Zn117  1  0.32198144  0.80645738  0.30926328  1
  Zn  Zn118  1  0.31214765  0.81303231  0.81714523  1
  Zn  Zn119  1  0.81327873  0.31337677  0.31167848  1
  Zn  Zn120  1  0.81148145  0.31151926  0.81030895  1
  Zn  Zn121  1  0.81187798  0.81407611  0.31343543  1
  Zn  Zn122  1  0.80493541  0.80919782  0.81312670  1
  Zn  Zn123  1  0.18747338  0.43738556  0.43458078  1
  Zn  Zn124  1  0.18905572  0.43959831  0.94432230  1
  Zn  Zn125  1  0.22380574  0.95262000  0.45557642  1
  Zn  Zn126  1  0.20704162  0.95645557  0.97941426  1
  Zn  Zn127  1  0.68623263  0.44147330  0.43754003  1
  Zn  Zn128  1  0.68589116  0.43875147  0.93435192  1
  Zn  Zn129  1  0.68681650  0.93765476  0.43615149  1
  Zn  Zn130  1  0.68748290  0.93371060  0.93764956  1
  Zn  Zn131  1  0.30965266  0.06148518  0.07029026  1
  Zn  Zn132  1  0.31631581  0.06356763  0.55900315  1
  Zn  Zn133  1  0.32121031  0.56969740  0.06354562  1
  Zn  Zn134  1  0.31476959  0.56164099  0.56253147  1
  Zn  Zn135  1  0.81109005  0.04300286  0.06079348  1
  Zn  Zn136  1  0.80828489  0.06172816  0.56327774  1
  Zn  Zn137  1  0.80274911  0.55867207  0.05673083  1
  Zn  Zn138  1  0.81064916  0.56249404  0.56296467  1
  Zn  Zn139  1  0.44019158  0.44698687  0.19107232  1
  Zn  Zn140  1  0.43337039  0.43584394  0.69183479  1
  Zn  Zn141  1  0.43541716  0.94450644  0.19392329  1
  Zn  Zn142  1  0.43633468  0.93813518  0.69209345  1
  Zn  Zn143  1  0.92745064  0.40931392  0.18957192  1
  Zn  Zn144  1  0.93535925  0.43823355  0.68554974  1
  Zn  Zn145  1  0.94456379  0.93956893  0.18227049  1
  Zn  Zn146  1  0.93836502  0.93941530  0.68637045  1
  Zn  Zn147  1  0.06224486  0.06314019  0.30898875  1
  Zn  Zn148  1  0.05967775  0.06122552  0.82004273  1
  Zn  Zn149  1  0.06919455  0.56000110  0.32028595  1
  Zn  Zn150  1  0.06443434  0.56674350  0.81561448  1
  Zn  Zn151  1  0.56214996  0.05900666  0.30985357  1
  Zn  Zn152  1  0.56137629  0.06180844  0.81170948  1
  Zn  Zn153  1  0.56543637  0.55894698  0.31616833  1
  Zn  Zn154  1  0.56061816  0.55906032  0.81170900  1
  Zn  Zn155  1  0.43125005  0.19010131  0.43268456  1
  Zn  Zn156  1  0.43932586  0.19043830  0.93713366  1
  Zn  Zn157  1  0.44125567  0.68527274  0.43605263  1
  Zn  Zn158  1  0.43200176  0.68687893  0.93649581  1
  Zn  Zn159  1  0.93200464  0.18505886  0.43866274  1
  Zn  Zn160  1  0.93827055  0.18491039  0.92261559  1
  Zn  Zn161  1  0.93945431  0.68673742  0.43720154  1
  Zn  Zn162  1  0.93993139  0.68728131  0.93899013  1
  Zn  Zn163  1  0.06447325  0.31549074  0.06301019  1
  Zn  Zn164  1  0.06267725  0.31152745  0.56146357  1
  Zn  Zn165  1  0.06241801  0.80646552  0.06927503  1
  Zn  Zn166  1  0.06431842  0.81520674  0.56495368  1
  Zn  Zn167  1  0.56559244  0.31195542  0.06113209  1
  Zn  Zn168  1  0.56320811  0.30955645  0.56066821  1
  Zn  Zn169  1  0.54116096  0.77482450  0.05430532  1
  Zn  Zn170  1  0.56561835  0.81207717  0.56336980  1
  O  O171  1  0.12716143  0.12881840  0.10902497  1
  O  O172  1  0.11840075  0.11623456  0.62670924  1
  O  O173  1  0.12813380  0.62986661  0.11053349  1
  O  O174  1  0.12655006  0.61684190  0.62076572  1
  O  O175  1  0.61864321  0.11666489  0.11763055  1
  O  O176  1  0.62113131  0.11699290  0.61448493  1
  O  O177  1  0.62775771  0.61123472  0.12303525  1
  O  O178  1  0.63008556  0.62960979  0.61354405  1
  O  O179  1  0.38144802  0.38242703  0.38135316  1
  O  O180  1  0.38421500  0.38175993  0.88172554  1
  O  O181  1  0.39517809  0.87257307  0.36778342  1
  O  O182  1  0.38128743  0.88241616  0.88169131  1
  O  O183  1  0.87876573  0.38506012  0.38507137  1
  O  O184  1  0.87435029  0.38293442  0.88164324  1
  O  O185  1  0.87486830  0.88635011  0.38190939  1
  O  O186  1  0.86757028  0.86787586  0.88979794  1
  O  O187  1  0.23697634  0.01730779  0.36174334  1
  O  O188  1  0.25618965  0.00986733  0.87672046  1
  O  O189  1  0.25779045  0.50705904  0.37117012  1
  O  O190  1  0.25602573  0.50812610  0.87616774  1
  O  O191  1  0.75446787  0.00582565  0.36651766  1
  O  O192  1  0.75001264  0.00059693  0.86168588  1
  O  O193  1  0.75911397  0.49771701  0.36420243  1
  O  O194  1  0.75886216  0.50674764  0.86889324  1
  O  O195  1  0.26058143  0.50839268  0.14276840  1
  O  O196  1  0.24202929  0.48704969  0.62495090  1
  O  O197  1  0.22859521  0.99059758  0.08959383  1
  O  O198  1  0.24165543  0.99337594  0.63743240  1
  O  O199  1  0.74279804  0.49184482  0.12974756  1
  O  O200  1  0.75408486  0.48598007  0.63017206  1
  O  O201  1  0.74176103  0.99018782  0.13232338  1
  O  O202  1  0.73920556  0.99779037  0.63613068  1
  O  O203  1  0.00182026  0.37168477  0.26304454  1
  O  O204  1  0.00250382  0.37103256  0.75410809  1
  O  O205  1  0.00175596  0.85994517  0.25417745  1
  O  O206  1  0.01118871  0.86945712  0.74773062  1
  O  O207  1  0.50767572  0.37701282  0.25861354  1
  O  O208  1  0.50678180  0.36970499  0.75762844  1
  O  O209  1  0.51289952  0.88261573  0.25760911  1
  O  O210  1  0.50986424  0.87178123  0.75640358  1
  O  O211  1  0.49679730  0.12868446  0.24318094  1
  O  O212  1  0.49883426  0.13479891  0.74867695  1
  O  O213  1  0.49025480  0.61364606  0.25324195  1
  O  O214  1  0.49913911  0.63936345  0.75438565  1
  O  O215  1  0.99898548  0.13751813  0.24745733  1
  O  O216  1  0.99200236  0.13083152  0.74380747  1
  O  O217  1  1.00089468  0.63049388  0.25544395  1
  O  O218  1  0.99373647  0.63397901  0.74919152  1
  O  O219  1  0.36743654  0.26136847  -0.00717041  1
  O  O220  1  0.36218998  0.25771388  0.50072016  1
  O  O221  1  0.36197691  0.75620237  -0.00337245  1
  O  O222  1  0.36332697  0.74766358  0.49957275  1
  O  O223  1  0.86662618  0.25599523  -0.01224801  1
  O  O224  1  0.86002693  0.25904030  0.49560827  1
  O  O225  1  0.86733504  0.75354197  0.00664847  1
  O  O226  1  0.86982385  0.75579923  0.50298135  1
  O  O227  1  0.13773760  0.25089129  0.49947136  1
  O  O228  1  0.13311964  0.24474878  0.99151741  1
  O  O229  1  0.12784032  0.74308283  0.49528536  1
  O  O230  1  0.13229264  0.74364870  0.99562515  1
  O  O231  1  0.63708964  0.24084390  0.50159230  1
  O  O232  1  0.62018952  0.23831642  0.98883165  1
  O  O233  1  0.63341536  0.74443098  0.49489848  1
  O  O234  1  0.64684709  0.77141007  0.99990160  1
  O  O235  1  0.50656637  0.23564609  0.12587972  1
  O  O236  1  0.49752134  0.24859243  0.63342844  1
  O  O237  1  0.51399390  0.74623031  0.15667461  1
  O  O238  1  0.49948591  0.75848323  0.64023235  1
  O  O239  1  0.99489125  0.25320356  0.13043627  1
  O  O240  1  1.00572440  0.23666368  0.62996845  1
  O  O241  1  0.98613221  0.74508656  0.13504443  1
  O  O242  1  0.99581199  0.74994204  0.63771517  1
  O  O243  1  -0.00179329  0.26117331  0.38267566  1
  O  O244  1  0.00705135  0.25999014  0.86581734  1
  O  O245  1  0.00827351  0.75024352  0.36974096  1
  O  O246  1  0.00786875  0.74592481  0.86402630  1
  O  O247  1  0.49765644  0.26672399  0.37674235  1
  O  O248  1  0.50904854  0.25720625  0.86676587  1
  O  O249  1  0.51289706  0.75827729  0.37994060  1
  O  O250  1  0.49871332  0.76376197  0.85743636  1
  O  O251  1  0.24593385  0.13564630  0.48786969  1
  O  O252  1  0.24673046  0.13576174  0.98880849  1
  O  O253  1  0.24214422  0.63101815  0.49284660  1
  O  O254  1  0.24419723  0.63292665  0.99319349  1
  O  O255  1  0.74386037  0.13257408  0.49436692  1
  O  O256  1  0.74598488  0.13190184  1.00056557  1
  O  O257  1  0.74423741  0.63215836  0.49747609  1
  O  O258  1  0.75295474  0.63361193  0.98585446  1
  O  O259  1  0.26163871  0.36824181  -0.00139502  1
  O  O260  1  0.25415206  0.37081966  0.50606356  1
  O  O261  1  0.26046918  0.85681756  -0.00759982  1
  O  O262  1  0.23391726  0.85786789  0.51668153  1
  O  O263  1  0.75330645  0.37797669  0.00801422  1
  O  O264  1  0.75256491  0.37006158  0.50426606  1
  O  O265  1  0.76089757  0.87064411  0.01162593  1
  O  O266  1  0.76039076  0.86750625  0.50006667  1
  O  O267  1  0.14158979  0.49696678  0.25763351  1
  O  O268  1  0.12554704  0.49455997  0.74451796  1
  O  O269  1  0.11934215  0.97914311  0.25144488  1
  O  O270  1  0.12863765  0.99335708  0.74846683  1
  O  O271  1  0.63260106  0.49094633  0.24287702  1
  O  O272  1  0.63253127  0.48853130  0.75575889  1
  O  O273  1  0.63574841  0.99058762  0.24299072  1
  O  O274  1  0.62935133  0.99230108  0.74552496  1
  O  O275  1  0.37965661  0.02025050  0.25895495  1
  O  O276  1  0.36622027  -0.00118972  0.76443417  1
  O  O277  1  0.36494809  0.49564429  0.26501638  1
  O  O278  1  0.37100268  0.49867840  0.76488757  1
  O  O279  1  0.86275629  -0.00786717  0.25503606  1
  O  O280  1  0.86408698  0.00436902  0.74773501  1
  O  O281  1  0.87105618  0.50335133  0.25337769  1
  O  O282  1  0.86798923  0.50524806  0.75605592  1
  O  O283  1  0.11210984  0.37377476  0.37635462  1
  O  O284  1  0.12072497  0.37239051  0.87160475  1
  O  O285  1  0.12567754  0.86116058  0.36942023  1
  O  O286  1  0.13033322  0.86158076  0.86933629  1
  O  O287  1  0.61748885  0.38337293  0.36546550  1
  O  O288  1  0.61925116  0.36880426  0.86728501  1
  O  O289  1  0.61804534  0.86903106  0.37003522  1
  O  O290  1  0.61609054  0.86489519  0.87286633  1
  O  O291  1  0.38238705  0.11951580  0.13513514  1
  O  O292  1  0.37619169  0.12705289  0.62878833  1
  O  O293  1  0.40048051  0.63249818  0.11031707  1
  O  O294  1  0.36479322  0.63049841  0.63185305  1
  O  O295  1  0.85902420  0.13995649  0.10610134  1
  O  O296  1  0.88273847  0.11872243  0.63512333  1
  O  O297  1  0.86717380  0.62982433  0.12591958  1
  O  O298  1  0.87606612  0.63285423  0.63165841  1
  O  O299  1  0.25011704  0.25272159  0.11149608  1
  O  O300  1  0.24857516  0.26046834  0.61881632  1
  O  O301  1  0.24919281  0.74392185  0.11098535  1
  O  O302  1  0.24841961  0.75715626  0.61965785  1
  O  O303  1  0.74231111  0.25576078  0.11941363  1
  O  O304  1  0.74684590  0.26341880  0.61686340  1
  O  O305  1  0.75709164  0.75329034  0.12143878  1
  O  O306  1  0.75618743  0.75305343  0.61479450  1
  O  O307  1  0.24659047  0.24771168  0.37930435  1
  O  O308  1  0.24610576  0.24583306  0.87941840  1
  O  O309  1  0.24595364  0.74331632  0.38287756  1
  O  O310  1  0.24275534  0.74201072  0.88122660  1
  O  O311  1  0.75369818  0.23797801  0.37885410  1
  O  O312  1  0.73360858  0.24762054  0.86615692  1
  O  O313  1  0.74596165  0.74972699  0.38722279  1
  O  O314  1  0.73866152  0.74183096  0.88276550  1
  O  O315  1  0.01129202  0.13799203  -0.00313693  1
  O  O316  1  0.00078322  0.12292697  0.50960341  1
  O  O317  1  0.01348082  0.62316448  -0.00035012  1
  O  O318  1  0.00834648  0.61867465  0.50292688  1
  O  O319  1  0.50764454  0.12384104  0.00620609  1
  O  O320  1  0.51122031  0.13240506  0.49623756  1
  O  O321  1  0.53752742  0.68618478  -0.02685418  1
  O  O322  1  0.51030466  0.61602053  0.49813338  1
  O  O323  1  0.49715815  0.38091854  0.49533696  1
  O  O324  1  0.49464972  0.36755744  0.98814042  1
  O  O325  1  0.50366179  0.87368553  0.48924383  1
  O  O326  1  0.49016813  0.86117660  0.98995356  1
  O  O327  1  0.99047048  0.37891203  0.49736755  1
  O  O328  1  0.98928890  0.38018544  0.99309428  1
  O  O329  1  0.98831637  0.87652424  0.49847859  1
  O  O330  1  0.98531169  0.86068220  1.00140619  1
  O  O331  1  0.49314349  0.49130634  0.38358699  1
  O  O332  1  0.49287702  0.48964093  0.87337850  1
  O  O333  1  0.50213882  0.98730896  0.37916062  1
  O  O334  1  0.49348319  0.98830465  0.87133114  1
  O  O335  1  0.99352317  0.49150517  0.38161852  1
  O  O336  1  0.98687415  0.49690216  0.87105768  1
  O  O337  1  0.99052515  0.99974644  0.37693179  1
  O  O338  1  0.99088447  1.00292395  0.88327358  1
  O  O339  1  0.01147548  -0.00831708  0.11133157  1
  O  O340  1  0.00916231  0.01018726  0.62506747  1
  O  O341  1  -0.02038963  0.50415140  0.13678840  1
  O  O342  1  0.00765731  0.50108650  0.61886112  1
  O  O343  1  0.51306464  0.00869082  0.13018735  1
  O  O344  1  0.51131668  0.00080925  0.63086846  1
  O  O345  1  0.51390189  0.49727886  0.12229716  1
  O  O346  1  0.49425428  0.49329827  0.61326192  1
  O  O347  1  0.25005622  0.38779901  0.24810843  1
  O  O348  1  0.24358275  0.37444518  0.74182742  1
  O  O349  1  0.24053871  0.86840573  0.25566225  1
  O  O350  1  0.23780303  0.87617154  0.74671259  1
  O  O351  1  0.74657278  0.38247989  0.23853483  1
  O  O352  1  0.74323166  0.37784365  0.74140656  1
  O  O353  1  0.74518961  0.87935046  0.24050372  1
  O  O354  1  0.73638666  0.87904397  0.75061010  1
  O  O355  1  0.25836196  0.13503904  0.25216877  1
  O  O356  1  0.25074409  0.12178727  0.76303236  1
  O  O357  1  0.24360252  0.61486482  0.26437120  1
  O  O358  1  0.24836316  0.62297163  0.76596772  1
  O  O359  1  0.74326666  0.11524755  0.25765657  1
  O  O360  1  0.75402917  0.11815501  0.74558719  1
  O  O361  1  0.74522564  0.61126276  0.25165749  1
  O  O362  1  0.75621043  0.62438333  0.75838598  1
  O  O363  1  0.36402224  0.12478281  0.36612521  1
  O  O364  1  0.36943177  0.11830599  0.87554090  1
  O  O365  1  0.36504643  0.61557248  0.38443367  1
  O  O366  1  0.36720310  0.61688348  0.87492036  1
  O  O367  1  0.86344934  0.11067250  0.38056277  1
  O  O368  1  0.86742990  0.12305903  0.85820551  1
  O  O369  1  0.87308201  0.60976802  0.38137056  1
  O  O370  1  0.86903208  0.61963724  0.87059361  1
  O  O371  1  0.13133487  0.38300186  0.11955218  1
  O  O372  1  0.12978998  0.38095841  0.62981731  1
  O  O373  1  0.12674111  0.86331475  0.14360620  1
  O  O374  1  0.12870656  0.88432284  0.63590181  1
  O  O375  1  0.62983160  0.38269389  0.12876923  1
  O  O376  1  0.63054325  0.37197204  0.63554085  1
  O  O377  1  0.63234217  0.87996621  0.13200969  1
  O  O378  1  0.62712061  0.88116520  0.63403145  1
  O  O379  1  0.10730656  0.25733788  0.24803114  1
  O  O380  1  0.11773215  0.25811370  0.75410717  1
  O  O381  1  0.11862223  0.75360962  0.25901578  1
  O  O382  1  0.11778462  0.75621428  0.75669935  1
  O  O383  1  0.62286413  0.26734799  0.24657511  1
  O  O384  1  0.61487939  0.25637549  0.75375119  1
  O  O385  1  0.63962009  0.76077810  0.26523585  1
  O  O386  1  0.61489857  0.75554804  0.75857215  1
  O  O387  1  0.38154319  0.23438827  0.25307707  1
  O  O388  1  0.38815703  0.25109429  0.75089745  1
  O  O389  1  0.37156145  0.73021715  0.24481653  1
  O  O390  1  0.38864148  0.75184568  0.75100614  1
  O  O391  1  0.89331423  0.26050082  0.25211952  1
  O  O392  1  0.88293492  0.24257514  0.75100282  1
  O  O393  1  0.88144946  0.74890980  0.24524677  1
  O  O394  1  0.88109135  0.74840885  0.74766030  1
  O  O395  1  0.38068002  0.49361269  0.49183858  1
  O  O396  1  0.37020227  0.49200709  0.98885091  1
  O  O397  1  0.33403757  0.98674787  0.48311481  1
  O  O398  1  0.37299689  0.99172057  0.98936145  1
  O  O399  1  0.87876369  0.49325921  0.49382211  1
  O  O400  1  0.87661820  0.49334872  0.99149800  1
  O  O401  1  0.87296243  0.99200930  0.49353908  1
  O  O402  1  0.87576615  0.97975538  0.99592284  1
  O  O403  1  0.11839708  0.02864660  -0.01949404  1
  O  O404  1  0.12767625  0.00149469  0.51376588  1
  O  O405  1  0.12092788  0.51605336  -0.00341346  1
  O  O406  1  0.12026582  0.50574774  0.50538054  1
  O  O407  1  0.63457056  0.00904222  0.00897565  1
  O  O408  1  0.63358203  0.00946057  0.51000943  1
  O  O409  1  0.62773638  0.49912580  0.01025216  1
  O  O410  1  0.61634341  0.51011149  0.49792629  1
  O  O411  1  0.37569747  0.38320450  0.11342979  1
  O  O412  1  0.36470034  0.37297085  0.61955286  1
  O  O413  1  0.38383682  0.88343241  0.11342025  1
  O  O414  1  0.36063590  0.87247083  0.63285913  1
  O  O415  1  0.86076551  0.37136602  0.10736091  1
  O  O416  1  0.86797949  0.37777815  0.61140069  1
  O  O417  1  0.86777600  0.86413132  0.11909667  1
  O  O418  1  0.87285360  0.87009627  0.61737931  1
  O  O419  1  0.12931271  0.13245134  0.37451999  1
  O  O420  1  0.13278095  0.13953356  0.87505094  1
  O  O421  1  0.13328524  0.63480577  0.38295153  1
  O  O422  1  0.13140246  0.63514604  0.88319796  1
  O  O423  1  0.63507932  0.11656522  0.38247066  1
  O  O424  1  0.62529506  0.12975675  0.88267507  1
  O  O425  1  0.62884522  0.63319256  0.38227001  1
  O  O426  1  0.63400421  0.63093851  0.86616301  1
