# generated using pymatgen
data_V85Zn86O256
_symmetry_space_group_name_H-M   'P 1'
_cell_length_a   16.93806001
_cell_length_b   16.95205550
_cell_length_c   16.95386293
_cell_angle_alpha   90.05314827
_cell_angle_beta   90.03594110
_cell_angle_gamma   89.93030439
_symmetry_Int_Tables_number   1
_chemical_formula_structural   V85Zn86O256
_chemical_formula_sum   'V85 Zn86 O256'
_cell_volume   4868.03965175
_cell_formula_units_Z   1
loop_
 _symmetry_equiv_pos_site_id
 _symmetry_equiv_pos_as_xyz
  1  'x, y, z'
loop_
 _atom_site_type_symbol
 _atom_site_label
 _atom_site_symmetry_multiplicity
 _atom_site_fract_x
 _atom_site_fract_y
 _atom_site_fract_z
 _atom_site_occupancy
  V  V0  1  0.50011724  0.12260561  0.12208754  1
  V  V1  1  0.74963316  0.00137596  0.74951891  1
  V  V2  1  0.88082132  0.38942019  0.00114850  1
  V  V3  1  0.25304257  0.87543921  0.62600592  1
  V  V4  1  0.73859243  0.38961358  0.63571134  1
  V  V5  1  0.50178980  -0.00667443  0.48653455  1
  V  V6  1  0.24033667  0.50208900  0.74683262  1
  V  V7  1  0.75050451  0.87125887  0.13345330  1
  V  V8  1  0.50695971  0.76878084  0.24494526  1
  V  V9  1  0.75385013  0.74419487  0.00735676  1
  V  V10  1  0.37539200  0.87348778  0.48297252  1
  V  V11  1  0.13041229  0.87933678  0.75044550  1
  V  V12  1  0.62354292  0.12435247  -0.00024820  1
  V  V13  1  0.61506226  0.75916792  0.37217681  1
  V  V14  1  0.52476633  0.39719763  0.84939601  1
  V  V15  1  0.31683677  0.20099832  0.56507887  1
  V  V16  1  0.74908899  0.75097937  0.49213260  1
  V  V17  1  0.13162232  0.87034779  0.24916395  1
  V  V18  1  0.00042770  0.12277292  0.12598453  1
  V  V19  1  0.36982650  0.12519919  0.75514528  1
  V  V20  1  0.37116612  0.37522974  0.50216479  1
  V  V21  1  0.74867358  0.00657740  0.25258613  1
  V  V22  1  0.00466894  0.24711179  0.25194220  1
  V  V23  1  0.39117118  0.62282816  0.24780705  1
  V  V24  1  0.86966394  0.50988268  0.86208188  1
  V  V25  1  0.86895431  0.25280142  0.62484307  1
  V  V26  1  0.49752327  0.25354166  0.74357115  1
  V  V27  1  0.74790577  0.24891881  0.48670143  1
  V  V28  1  0.37383287  0.75535298  0.62279843  1
  V  V29  1  0.37818513  0.37436175  -0.00446824  1
  V  V30  1  0.74435594  0.87714269  0.62285232  1
  V  V31  1  0.62073062  0.50337541  0.13085182  1
  V  V32  1  -0.00121071  0.38063936  0.37569042  1
  V  V33  1  0.37369181  0.87635989  -0.00352680  1
  V  V34  1  0.12106486  0.37872729  0.74841192  1
  V  V35  1  0.37307959  0.25002313  0.12372854  1
  V  V36  1  0.74921899  0.37404524  0.12668868  1
  V  V37  1  0.62526290  0.25304681  0.86904861  1
  V  V38  1  0.00613384  0.00776384  0.49925763  1
  V  V39  1  0.62370593  -0.00782432  0.12691047  1
  V  V40  1  0.87719325  0.87741802  0.49702318  1
  V  V41  1  0.50485445  0.24809939  0.24957613  1
  V  V42  1  0.12964382  0.24471330  0.39294630  1
  V  V43  1  0.50667422  0.12961281  0.62014131  1
  V  V44  1  0.87708024  0.86955825  0.00866626  1
  V  V45  1  0.37098347  0.74982153  0.12636813  1
  V  V46  1  0.24574599  0.62601922  0.87799188  1
  V  V47  1  0.13463986  -0.00333824  0.12547454  1
  V  V48  1  0.62565843  0.37137039  0.25643593  1
  V  V49  1  0.00737952  0.50234359  0.50227554  1
  V  V50  1  0.37323001  0.12112140  0.25587203  1
  V  V51  1  0.49623440  0.50656360  0.00650676  1
  V  V52  1  -0.00358895  0.25252513  0.75439170  1
  V  V53  1  0.24892517  0.50767748  0.25227438  1
  V  V54  1  0.13856065  0.63175093  0.49588775  1
  V  V55  1  0.87376436  0.00965898  0.37529992  1
  V  V56  1  -0.00088908  0.74765408  0.74870307  1
  V  V57  1  0.63018779  0.12691280  0.48445711  1
  V  V58  1  0.37142816  0.50477994  0.37627506  1
  V  V59  1  0.87209000  0.38513597  0.49843610  1
  V  V60  1  0.12740396  0.00614685  0.62408134  1
  V  V61  1  0.87598981  0.00116079  0.87678470  1
  V  V62  1  0.25252929  -0.00119577  0.26005383  1
  V  V63  1  0.37167035  0.62773414  0.75023437  1
  V  V64  1  0.62388377  0.62870264  0.00585916  1
  V  V65  1  0.36855276  0.49923418  0.87800751  1
  V  V66  1  0.75304158  0.25030027  -0.00070048  1
  V  V67  1  0.00517905  0.62186823  0.62394252  1
  V  V68  1  0.87637227  0.75067038  0.62209226  1
  V  V69  1  0.00350897  -0.00127333  0.00226753  1
  V  V70  1  0.68187168  0.69503238  0.83578292  1
  V  V71  1  -0.00844773  0.75262067  0.24856101  1
  V  V72  1  0.50003458  0.62243623  0.61607404  1
  V  V73  1  0.50096729  0.37160918  0.37723867  1
  V  V74  1  0.11854800  0.49951861  0.12264786  1
  V  V75  1  0.12965327  0.37487569  0.25161088  1
  V  V76  1  0.75256679  0.61798165  0.37523360  1
  V  V77  1  0.00176232  0.87461682  0.87635212  1
  V  V78  1  0.12493353  0.75061170  0.87744321  1
  V  V79  1  0.11722295  0.62104697  0.00178956  1
  V  V80  1  0.62269603  0.87798520  0.76702999  1
  V  V81  1  0.87412077  0.12563189  0.74962142  1
  V  V82  1  0.87679196  0.61511150  0.24963385  1
  V  V83  1  0.49799773  0.75356782  0.76309156  1
  V  V84  1  0.24531675  0.38007266  0.61953330  1
  Zn  Zn85  1  0.62541229  0.62073037  0.49723976  1
  Zn  Zn86  1  -0.00670368  0.62666679  0.12107980  1
  Zn  Zn87  1  0.87316416  0.12879970  0.25344272  1
  Zn  Zn88  1  0.13007725  0.24897738  0.87533161  1
  Zn  Zn89  1  0.13903337  0.74805132  0.37408204  1
  Zn  Zn90  1  0.74990761  0.12569168  0.87388025  1
  Zn  Zn91  1  0.25117584  0.24770979  -0.00801046  1
  Zn  Zn92  1  0.85365195  0.62757905  0.74829541  1
  Zn  Zn93  1  0.00297970  0.12890979  0.62275392  1
  Zn  Zn94  1  0.25044669  0.12754536  0.38497925  1
  Zn  Zn95  1  0.00195087  0.38140551  0.88125877  1
  Zn  Zn96  1  0.24442317  0.75307151  0.01115162  1
  Zn  Zn97  1  0.12776900  0.13023433  -0.00260179  1
  Zn  Zn98  1  0.50384838  0.49243717  0.50961895  1
  Zn  Zn99  1  0.50789714  -0.01815238  -0.01381467  1
  Zn  Zn100  1  0.62452440  0.00199718  0.62313849  1
  Zn  Zn101  1  0.87836338  0.25014479  0.12514400  1
  Zn  Zn102  1  0.25095595  0.37679956  0.12279219  1
  Zn  Zn103  1  0.75345581  0.49497646  0.25699664  1
  Zn  Zn104  1  0.37771096  -0.00974821  0.86278958  1
  Zn  Zn105  1  0.00546183  0.87322518  0.37736116  1
  Zn  Zn106  1  0.24614783  0.11659990  0.87714717  1
  Zn  Zn107  1  0.18817270  0.18570136  0.18570260  1
  Zn  Zn108  1  0.18317006  0.18850859  0.69537218  1
  Zn  Zn109  1  0.18795906  0.68398198  0.19275787  1
  Zn  Zn110  1  0.18574551  0.69069560  0.68365441  1
  Zn  Zn111  1  0.68737469  0.18558956  0.18578998  1
  Zn  Zn112  1  0.68692500  0.19176802  0.68395569  1
  Zn  Zn113  1  0.68800080  0.68681921  0.19103413  1
  Zn  Zn114  1  0.68082542  0.69405003  0.67046714  1
  Zn  Zn115  1  0.31094244  0.31204083  0.31325626  1
  Zn  Zn116  1  0.31488164  0.31027777  0.81052655  1
  Zn  Zn117  1  0.31328305  0.81247123  0.30458772  1
  Zn  Zn118  1  0.31008946  0.81331235  0.81483140  1
  Zn  Zn119  1  0.81866253  0.31344143  0.31242909  1
  Zn  Zn120  1  0.81074612  0.31935728  0.81482160  1
  Zn  Zn121  1  0.81261605  0.81311914  0.31441967  1
  Zn  Zn122  1  0.81810551  0.81866349  0.81180695  1
  Zn  Zn123  1  0.18466013  0.43999522  0.43741429  1
  Zn  Zn124  1  0.18625703  0.43452488  0.93842815  1
  Zn  Zn125  1  0.19055592  0.93488218  0.43647470  1
  Zn  Zn126  1  0.19897459  0.94086201  0.93878808  1
  Zn  Zn127  1  0.68534087  0.43849836  0.44275080  1
  Zn  Zn128  1  0.69080492  0.44260983  0.93932731  1
  Zn  Zn129  1  0.68706769  0.93937593  0.43380977  1
  Zn  Zn130  1  0.69365476  0.93731245  0.94219641  1
  Zn  Zn131  1  0.31211571  0.06179449  0.06095054  1
  Zn  Zn132  1  0.31986137  0.03922623  0.56843549  1
  Zn  Zn133  1  0.30761385  0.56723787  0.06890427  1
  Zn  Zn134  1  0.31637770  0.55873120  0.56665769  1
  Zn  Zn135  1  0.81371143  0.06144125  0.06493489  1
  Zn  Zn136  1  0.81276724  0.06549693  0.56176948  1
  Zn  Zn137  1  0.80861564  0.56350903  0.06986321  1
  Zn  Zn138  1  0.81603059  0.56386298  0.56147414  1
  Zn  Zn139  1  0.43726814  0.43577715  0.18813445  1
  Zn  Zn140  1  0.42731294  0.44029742  0.68508527  1
  Zn  Zn141  1  0.43284069  0.93826855  0.17980183  1
  Zn  Zn142  1  0.44590935  0.94097829  0.68424919  1
  Zn  Zn143  1  0.93963037  0.43673586  0.18830255  1
  Zn  Zn144  1  0.93248113  0.44041279  0.68575157  1
  Zn  Zn145  1  0.93876263  0.93722072  0.19015207  1
  Zn  Zn146  1  0.93953772  0.93750393  0.68506694  1
  Zn  Zn147  1  0.06583886  0.06211927  0.31536812  1
  Zn  Zn148  1  0.06274781  0.06350562  0.81161110  1
  Zn  Zn149  1  0.06215280  0.56371179  0.31515641  1
  Zn  Zn150  1  0.05460507  0.56019621  0.81720964  1
  Zn  Zn151  1  0.56464862  0.05938828  0.30791888  1
  Zn  Zn152  1  0.55735113  0.06261543  0.81261843  1
  Zn  Zn153  1  0.56554444  0.55869555  0.32467430  1
  Zn  Zn154  1  0.55265377  0.56468374  0.81001034  1
  Zn  Zn155  1  0.44706155  0.18374508  0.43007314  1
  Zn  Zn156  1  0.44317369  0.19265890  0.93173302  1
  Zn  Zn157  1  0.31879207  0.68890675  0.43739954  1
  Zn  Zn158  1  0.43553240  0.68591480  0.94217299  1
  Zn  Zn159  1  0.93884552  0.19086242  0.43915402  1
  Zn  Zn160  1  0.93919737  0.18822256  0.93839443  1
  Zn  Zn161  1  0.94038258  0.68813503  0.43156564  1
  Zn  Zn162  1  0.93510368  0.68527447  0.93657630  1
  Zn  Zn163  1  0.06496074  0.31070674  0.06457598  1
  Zn  Zn164  1  0.05913403  0.31582767  0.56840014  1
  Zn  Zn165  1  0.06355353  0.81035067  0.06846346  1
  Zn  Zn166  1  0.06454512  0.81310012  0.56118375  1
  Zn  Zn167  1  0.56131609  0.31555299  0.05983809  1
  Zn  Zn168  1  0.56724213  0.31209606  0.56114327  1
  Zn  Zn169  1  0.56093352  0.80784421  0.06411801  1
  Zn  Zn170  1  0.55918633  0.80816007  0.56064418  1
  O  O171  1  0.11461485  0.11587132  0.12529633  1
  O  O172  1  0.12477405  0.10980834  0.63337222  1
  O  O173  1  0.12449448  0.61815838  0.11814232  1
  O  O174  1  0.11427757  0.63161110  0.61212884  1
  O  O175  1  0.62082621  0.11625358  0.11735053  1
  O  O176  1  0.62005599  0.12486853  0.61350374  1
  O  O177  1  0.63078768  0.61317632  0.12024394  1
  O  O178  1  0.60533331  0.63046261  0.61914719  1
  O  O179  1  0.37903835  0.37756764  0.38514550  1
  O  O180  1  0.38204043  0.38337538  0.87910704  1
  O  O181  1  0.37657368  0.87252805  0.38506268  1
  O  O182  1  0.37450566  0.86847294  0.89152803  1
  O  O183  1  0.88712981  0.37004621  0.38603249  1
  O  O184  1  0.87485239  0.38271180  0.88929811  1
  O  O185  1  0.87583592  0.88293994  0.38693790  1
  O  O186  1  0.88243853  0.88068430  0.88611335  1
  O  O187  1  0.24467624  0.00923121  0.36444698  1
  O  O188  1  0.26478321  0.00218118  0.87396255  1
  O  O189  1  0.26013564  0.49124215  0.36644200  1
  O  O190  1  0.25066390  0.50679546  0.86889315  1
  O  O191  1  0.75905817  -0.00468873  0.36418038  1
  O  O192  1  0.75842407  0.00180888  0.86929492  1
  O  O193  1  0.74811835  0.51360012  0.37525910  1
  O  O194  1  0.77008176  0.49667379  0.88122720  1
  O  O195  1  0.23954986  0.49792842  0.13427760  1
  O  O196  1  0.25218882  0.49193914  0.63485638  1
  O  O197  1  0.23727146  1.00598959  0.13534448  1
  O  O198  1  0.24132851  0.98604876  0.62792460  1
  O  O199  1  0.73981574  0.48740497  0.12882144  1
  O  O200  1  0.75383064  0.48883605  0.61983760  1
  O  O201  1  0.74416690  0.99245204  0.12988308  1
  O  O202  1  0.74911240  0.99188037  0.62906527  1
  O  O203  1  0.00588312  0.36901112  0.25920861  1
  O  O204  1  0.00559311  0.37119670  0.74713435  1
  O  O205  1  0.00482019  0.86409542  0.25227338  1
  O  O206  1  0.00404077  0.86373784  0.75313600  1
  O  O207  1  0.50632885  0.36657975  0.25475219  1
  O  O208  1  0.48264042  0.36082520  0.74649717  1
  O  O209  1  0.49897870  0.86688441  0.24653358  1
  O  O210  1  0.51324927  0.86565064  0.74142937  1
  O  O211  1  0.49511329  0.13069067  0.24422178  1
  O  O212  1  0.49605979  0.13474828  0.73764247  1
  O  O213  1  0.49201847  0.62240442  0.25565469  1
  O  O214  1  0.49134241  0.63412118  0.74259062  1
  O  O215  1  1.00101746  0.13163942  0.24501187  1
  O  O216  1  0.99154438  0.13512493  0.74649288  1
  O  O217  1  0.98960249  0.63237022  0.25397039  1
  O  O218  1  1.00557975  0.63736599  0.74181072  1
  O  O219  1  0.38085987  0.25902462  0.00574877  1
  O  O220  1  0.37528731  0.25353900  0.49826119  1
  O  O221  1  0.37331243  0.75032969  0.01393350  1
  O  O222  1  0.37929371  0.76561176  0.50771274  1
  O  O223  1  0.86304046  0.25543492  0.00094252  1
  O  O224  1  0.86802433  0.25730873  0.50688458  1
  O  O225  1  0.86706698  0.75726920  -0.00179152  1
  O  O226  1  0.87285477  0.75994588  0.50123822  1
  O  O227  1  0.11948220  0.25304941  0.49128376  1
  O  O228  1  0.12972382  0.25170040  0.99565127  1
  O  O229  1  0.12248739  0.73577932  0.49739521  1
  O  O230  1  0.12593819  0.74449095  0.99541695  1
  O  O231  1  0.64022824  0.24420922  0.49837865  1
  O  O232  1  0.63524978  0.24295810  0.99890180  1
  O  O233  1  0.62641836  0.74558741  0.48712907  1
  O  O234  1  0.63082819  0.73599003  1.00335021  1
  O  O235  1  0.49259056  0.24577020  0.12958996  1
  O  O236  1  0.50617274  0.23935101  0.62766246  1
  O  O237  1  0.49528284  0.74727392  0.14009759  1
  O  O238  1  0.48929456  0.74371477  0.63269097  1
  O  O239  1  1.00079299  0.24102111  0.13448194  1
  O  O240  1  0.98669357  0.25146879  0.63384450  1
  O  O241  1  1.00492499  0.74469617  0.14400016  1
  O  O242  1  0.99533161  0.74651511  0.63072994  1
  O  O243  1  0.00984939  0.25692617  0.37128308  1
  O  O244  1  -0.00508509  0.25718826  0.86223372  1
  O  O245  1  0.00718719  0.75259606  0.36223104  1
  O  O246  1  0.00403380  0.75480810  0.86690961  1
  O  O247  1  0.49743120  0.26212738  0.36385791  1
  O  O248  1  0.50904152  0.26448157  0.86260837  1
  O  O249  1  0.51309957  0.74870907  0.35908547  1
  O  O250  1  0.49501611  0.74344591  0.86240069  1
  O  O251  1  0.26661499  0.13180697  0.50956111  1
  O  O252  1  0.24763482  0.12859514  0.99958332  1
  O  O253  1  0.24255449  0.62372211  0.50475569  1
  O  O254  1  0.23834606  0.62823155  0.99433710  1
  O  O255  1  0.74539642  0.13944578  0.50318680  1
  O  O256  1  0.74156600  0.13248483  1.00121499  1
  O  O257  1  0.75260233  0.63389059  0.49243683  1
  O  O258  1  0.74462707  0.63631089  1.00562467  1
  O  O259  1  0.26698827  0.37544008  0.00018004  1
  O  O260  1  0.25323145  0.38021674  0.51078087  1
  O  O261  1  0.26557037  0.86777997  0.00443140  1
  O  O262  1  0.26863293  0.88377107  0.50704538  1
  O  O263  1  0.75780848  0.36929084  0.00944281  1
  O  O264  1  0.75692517  0.36660027  0.50213104  1
  O  O265  1  0.75804263  0.86635263  0.00986700  1
  O  O266  1  0.75627920  0.87266068  0.50572100  1
  O  O267  1  0.13263374  0.49694854  0.24816486  1
  O  O268  1  0.13307696  0.49641291  0.75379889  1
  O  O269  1  0.13104006  0.99301644  0.24572222  1
  O  O270  1  0.11219681  0.98430041  0.74066292  1
  O  O271  1  0.62648189  0.49039490  0.24542558  1
  O  O272  1  0.58660028  0.45841031  0.79359281  1
  O  O273  1  0.63436516  1.00110409  0.23913288  1
  O  O274  1  0.63060192  0.99351805  0.74615853  1
  O  O275  1  0.36526199  0.00919333  0.24137557  1
  O  O276  1  0.38497798  0.02177412  0.74026683  1
  O  O277  1  0.37049838  0.50439158  0.25424933  1
  O  O278  1  0.36064611  0.50723548  0.75654419  1
  O  O279  1  0.87011350  0.00117945  0.25975180  1
  O  O280  1  0.87079917  0.00373325  0.75449094  1
  O  O281  1  0.87551708  0.51084525  0.25249591  1
  O  O282  1  0.87091622  0.50758344  0.75700428  1
  O  O283  1  0.11878453  0.36544036  0.37164498  1
  O  O284  1  0.12158946  0.37570255  0.86174530  1
  O  O285  1  0.12505083  0.87390308  0.36274401  1
  O  O286  1  0.12124932  0.87111767  0.86822635  1
  O  O287  1  0.61822063  0.37637866  0.36309408  1
  O  O288  1  0.62234865  0.35818747  0.89797589  1
  O  O289  1  0.63061951  0.85797330  0.37564894  1
  O  O290  1  0.62952641  0.87919343  0.86651806  1
  O  O291  1  0.38232942  0.13219726  0.13138212  1
  O  O292  1  0.37904025  0.13452439  0.62096200  1
  O  O293  1  0.37727210  0.63491305  0.13479130  1
  O  O294  1  0.37714465  0.63581694  0.63182407  1
  O  O295  1  0.88872677  0.12537278  0.12751268  1
  O  O296  1  0.87510036  0.13543684  0.63166762  1
  O  O297  1  0.87531904  0.62318472  0.14289381  1
  O  O298  1  0.88449561  0.63376895  0.62818237  1
  O  O299  1  0.26490013  0.25276016  0.12594842  1
  O  O300  1  0.25014313  0.25548866  0.62240667  1
  O  O301  1  0.26646435  0.74391279  0.13147615  1
  O  O302  1  0.26314615  0.75994401  0.62820269  1
  O  O303  1  0.75183106  0.25936295  0.11946011  1
  O  O304  1  0.75924541  0.25876039  0.61787554  1
  O  O305  1  0.74577990  0.75892233  0.11943814  1
  O  O306  1  0.75617995  0.75873515  0.61334738  1
  O  O307  1  0.23419346  0.24971921  0.37476997  1
  O  O308  1  0.24976535  0.24323630  0.87260695  1
  O  O309  1  0.25276741  0.74719871  0.37025514  1
  O  O310  1  0.24047399  0.74038613  0.87440389  1
  O  O311  1  0.75720725  0.25174988  0.38826007  1
  O  O312  1  0.74424838  0.24955517  0.88270694  1
  O  O313  1  0.74254888  0.74394575  0.37624536  1
  O  O314  1  0.75045437  0.75653937  0.88609433  1
  O  O315  1  0.00184636  0.11761387  0.00875867  1
  O  O316  1  -0.00471885  0.11207834  0.50395099  1
  O  O317  1  0.01216287  0.63085048  0.00267763  1
  O  O318  1  0.00267302  0.61905941  0.50561862  1
  O  O319  1  0.51347865  0.13029443  0.00345751  1
  O  O320  1  0.50806035  0.11836525  0.50190462  1
  O  O321  1  0.50689800  0.61434156  0.00094637  1
  O  O322  1  0.49028290  0.62667907  0.51673259  1
  O  O323  1  0.49163053  0.37134536  0.49333719  1
  O  O324  1  0.49306380  0.38777591  0.99355055  1
  O  O325  1  0.49327985  0.88615926  0.50473004  1
  O  O326  1  0.48348258  0.86810563  1.00711632  1
  O  O327  1  0.99516511  0.38319005  0.49695043  1
  O  O328  1  0.98264481  0.36913430  1.00333463  1
  O  O329  1  0.99171579  0.88363062  0.50088599  1
  O  O330  1  0.99369151  0.87664039  0.99854344  1
  O  O331  1  0.48808213  0.48352215  0.37064436  1
  O  O332  1  0.48427275  0.50256481  0.88864582  1
  O  O333  1  0.50422676  1.00207993  0.38763868  1
  O  O334  1  0.49096584  1.00180267  0.87656078  1
  O  O335  1  1.00596295  0.48751471  0.38292341  1
  O  O336  1  0.97984358  0.49621942  0.87445046  1
  O  O337  1  0.99449880  0.99626284  0.38251671  1
  O  O338  1  0.99588971  0.99240513  0.88156929  1
  O  O339  1  0.00777096  0.00554394  0.12307602  1
  O  O340  1  0.00820123  0.00005275  0.61646545  1
  O  O341  1  0.01428693  0.50495365  0.13390671  1
  O  O342  1  -0.00365507  0.51213031  0.61804352  1
  O  O343  1  0.50994619  0.00491885  0.12152530  1
  O  O344  1  0.50319426  0.01471597  0.61303107  1
  O  O345  1  0.51178987  0.49287048  0.11987223  1
  O  O346  1  0.48925476  0.51748737  0.62774444  1
  O  O347  1  0.24587577  0.38391311  0.24734694  1
  O  O348  1  0.24442761  0.38232828  0.74090958  1
  O  O349  1  0.24422136  0.88593193  0.24883903  1
  O  O350  1  0.23998226  0.86980062  0.74171577  1
  O  O351  1  0.74415924  0.37280274  0.24533677  1
  O  O352  1  0.75261519  0.37473513  0.73453191  1
  O  O353  1  0.75920575  0.88324321  0.23759295  1
  O  O354  1  0.74357340  0.87951197  0.74194081  1
  O  O355  1  0.25834083  0.11934304  0.25047587  1
  O  O356  1  0.26781297  0.12911363  0.74482916  1
  O  O357  1  0.26113478  0.61130161  0.24841660  1
  O  O358  1  0.24991889  0.61950705  0.75381402  1
  O  O359  1  0.75504011  0.11183132  0.24230186  1
  O  O360  1  0.75557771  0.11945259  0.74942059  1
  O  O361  1  0.76177055  0.62295680  0.25567550  1
  O  O362  1  0.73658617  0.64460409  0.75860146  1
  O  O363  1  0.37233508  0.13238572  0.35955046  1
  O  O364  1  0.37985601  0.12867712  0.85970397  1
  O  O365  1  0.37611300  0.61016891  0.37002196  1
  O  O366  1  0.36489145  0.62076557  0.87050093  1
  O  O367  1  0.87946841  0.11349216  0.37549838  1
  O  O368  1  0.87400981  0.11911024  0.86854230  1
  O  O369  1  0.86591619  0.63161080  0.36214568  1
  O  O370  1  0.87498181  0.61517195  0.86904742  1
  O  O371  1  0.12656956  0.38235701  0.13349913  1
  O  O372  1  0.13234525  0.37324324  0.63699307  1
  O  O373  1  0.12015334  0.88326011  0.13937704  1
  O  O374  1  0.13379822  0.87756269  0.63062467  1
  O  O375  1  0.63078683  0.37905024  0.13397144  1
  O  O376  1  0.63964985  0.37604324  0.61992938  1
  O  O377  1  0.63508965  0.88481111  0.11673678  1
  O  O378  1  0.63667182  0.87194717  0.62773746  1
  O  O379  1  0.11676597  0.25500240  0.25268165  1
  O  O380  1  0.11239638  0.25950606  0.75018519  1
  O  O381  1  0.11886459  0.75557231  0.25182642  1
  O  O382  1  0.11751930  0.75935322  0.75386391  1
  O  O383  1  0.61305582  0.25500025  0.24242169  1
  O  O384  1  0.61712839  0.24700247  0.75970759  1
  O  O385  1  0.61414886  0.74998728  0.25433204  1
  O  O386  1  0.62135343  0.75483521  0.75974207  1
  O  O387  1  0.38507265  0.24687277  0.24197047  1
  O  O388  1  0.38602301  0.23779981  0.74638526  1
  O  O389  1  0.38904697  0.74376566  0.24403397  1
  O  O390  1  0.38073087  0.74858707  0.74398867  1
  O  O391  1  0.89045009  0.24907865  0.24899754  1
  O  O392  1  0.87712753  0.24833858  0.74420964  1
  O  O393  1  0.88761143  0.74546716  0.25361663  1
  O  O394  1  0.88240193  0.74917690  0.74356920  1
  O  O395  1  0.37849826  0.49142160  0.49262727  1
  O  O396  1  0.37996307  0.49724372  1.00176313  1
  O  O397  1  0.39070015  0.98738937  0.49822164  1
  O  O398  1  0.37885887  0.98125843  1.01248916  1
  O  O399  1  0.88725975  0.49091428  0.50176992  1
  O  O400  1  0.87241722  0.49072121  1.00356122  1
  O  O401  1  0.87991867  0.99470153  0.49524959  1
  O  O402  1  0.88221416  0.99221902  0.99674243  1
  O  O403  1  0.11848971  -0.00638968  0.01041958  1
  O  O404  1  0.11715926  -0.00812133  0.50987877  1
  O  O405  1  0.12890341  0.50696148  0.01012195  1
  O  O406  1  0.11493936  0.51156745  0.49982218  1
  O  O407  1  0.62588676  0.00763272  0.00641952  1
  O  O408  1  0.61794110  0.00519075  0.50046955  1
  O  O409  1  0.61896707  0.50846493  0.00796877  1
  O  O410  1  0.61176985  0.50906514  0.48508663  1
  O  O411  1  0.37784751  0.36672260  0.11563774  1
  O  O412  1  0.36528969  0.37522976  0.61027932  1
  O  O413  1  0.37681804  0.85570341  0.12122942  1
  O  O414  1  0.36978972  0.87204727  0.62463565  1
  O  O415  1  0.86797765  0.37481733  0.11808961  1
  O  O416  1  0.86859243  0.36996602  0.61537867  1
  O  O417  1  0.86915665  0.88028396  0.11439069  1
  O  O418  1  0.86566584  0.87234657  0.61588317  1
  O  O419  1  0.12624791  0.14062578  0.37680708  1
  O  O420  1  0.12560019  0.12809222  0.87629664  1
  O  O421  1  0.12352020  0.62429570  0.39272502  1
  O  O422  1  0.12625420  0.62871135  0.88221508  1
  O  O423  1  0.62311296  0.12365981  0.38491427  1
  O  O424  1  0.62605415  0.13597326  0.88261222  1
  O  O425  1  0.63622911  0.63717584  0.37137786  1
  O  O426  1  0.62324962  0.62222561  0.88431532  1
