# generated using pymatgen
data_V85Zn86O256
_symmetry_space_group_name_H-M   'P 1'
_cell_length_a   16.97921405
_cell_length_b   16.95346030
_cell_length_c   16.95857124
_cell_angle_alpha   89.96138196
_cell_angle_beta   90.06667483
_cell_angle_gamma   90.03613147
_symmetry_Int_Tables_number   1
_chemical_formula_structural   V85Zn86O256
_chemical_formula_sum   'V85 Zn86 O256'
_cell_volume   4881.62841604
_cell_formula_units_Z   1
loop_
 _symmetry_equiv_pos_site_id
 _symmetry_equiv_pos_as_xyz
  1  'x, y, z'
loop_
 _atom_site_type_symbol
 _atom_site_label
 _atom_site_symmetry_multiplicity
 _atom_site_fract_x
 _atom_site_fract_y
 _atom_site_fract_z
 _atom_site_occupancy
  V  V0  1  0.20151942  0.55397426  0.31035425  1
  V  V1  1  0.37514795  0.37083814  0.50070743  1
  V  V2  1  0.38243685  0.25384480  0.12351687  1
  V  V3  1  0.87601998  0.74591303  0.13257241  1
  V  V4  1  0.75093781  0.00066123  0.75097022  1
  V  V5  1  0.87601859  0.88030781  0.48616784  1
  V  V6  1  0.49931119  0.87176027  0.37571727  1
  V  V7  1  0.87375088  0.62369334  0.74782912  1
  V  V8  1  0.36439310  0.50335916  0.85007492  1
  V  V9  1  0.74178088  0.37188092  0.61310425  1
  V  V10  1  0.12090349  0.00497181  0.62276154  1
  V  V11  1  0.00588957  0.62652300  0.61940813  1
  V  V12  1  0.49858526  0.62465010  0.62972039  1
  V  V13  1  0.87388093  0.25344635  0.61827927  1
  V  V14  1  0.74974961  0.87574161  0.12636261  1
  V  V15  1  0.62537293  0.87634027  0.25248228  1
  V  V16  1  0.37362093  0.12229798  0.75346500  1
  V  V17  1  -0.00204360  0.36973398  0.37368273  1
  V  V18  1  0.75971977  0.12860423  0.37359632  1
  V  V19  1  0.62575415  -0.00106425  0.62440068  1
  V  V20  1  0.62525775  0.74793335  0.88097784  1
  V  V21  1  -0.00068637  0.22594494  0.24879262  1
  V  V22  1  0.62017217  0.24632702  0.35838606  1
  V  V23  1  0.37101752  -0.00744691  0.87938298  1
  V  V24  1  0.87542446  0.00256562  0.87648423  1
  V  V25  1  -0.00091858  0.50175324  0.50055841  1
  V  V26  1  0.25896402  0.87292152  0.11513212  1
  V  V27  1  0.37184882  0.37729240  -0.00627318  1
  V  V28  1  0.50347933  0.74569383  0.74799976  1
  V  V29  1  -0.00635883  0.00454426  0.49278683  1
  V  V30  1  0.24486975  0.87900510  0.62231687  1
  V  V31  1  0.50003036  0.49806214  0.50086946  1
  V  V32  1  -0.00083340  0.75305476  0.75203107  1
  V  V33  1  0.25354273  -0.00157999  0.24674229  1
  V  V34  1  0.13134711  0.36892142  0.25597620  1
  V  V35  1  0.75109025  0.87521215  0.62291182  1
  V  V36  1  0.49650976  0.87160530  0.87866966  1
  V  V37  1  0.74630698  0.48926669  0.75213145  1
  V  V38  1  0.24966274  0.37040395  0.12081506  1
  V  V39  1  0.49725163  0.36581967  0.36266791  1
  V  V40  1  0.25033173  0.13154302  0.88404581  1
  V  V41  1  0.87837475  0.87375972  0.00079927  1
  V  V42  1  0.87441975  0.12680217  0.75007811  1
  V  V43  1  0.01048956  0.12951002  0.62592004  1
  V  V44  1  0.37150266  0.86689437  0.50111416  1
  V  V45  1  0.75310789  0.62225317  0.36203113  1
  V  V46  1  0.62431743  0.00142855  0.12560041  1
  V  V47  1  0.12074523  0.13343612  0.00647400  1
  V  V48  1  0.51341279  0.24786180  0.75437879  1
  V  V49  1  0.12981189  0.75017134  0.87640016  1
  V  V50  1  0.12475466  0.24389733  0.37824499  1
  V  V51  1  0.38279666  0.13231108  0.24988890  1
  V  V52  1  0.62755359  0.13144736  0.49753526  1
  V  V53  1  0.75101058  0.62423475  0.87947999  1
  V  V54  1  0.37679472  0.62534943  0.24611456  1
  V  V55  1  0.13702875  0.62646225  -0.00206127  1
  V  V56  1  0.24526355  0.24252644  0.50222921  1
  V  V57  1  0.74985154  0.74793589  0.00072298  1
  V  V58  1  0.35071583  0.73469806  0.64658156  1
  V  V59  1  0.13148752  0.49955035  0.12679737  1
  V  V60  1  0.37657679  0.50543617  0.37307939  1
  V  V61  1  0.87587829  0.37406542  0.00355150  1
  V  V62  1  0.00323669  0.37765516  0.87612289  1
  V  V63  1  0.62518841  0.12981986  -0.00623398  1
  V  V64  1  0.87609660  0.23662063  0.12917858  1
  V  V65  1  0.11972203  -0.00167926  0.12277189  1
  V  V66  1  0.00098122  0.25413728  0.75273888  1
  V  V67  1  0.62651443  0.87549651  0.75011614  1
  V  V68  1  0.49984842  -0.00392716  0.50256459  1
  V  V69  1  0.51649500  0.61941085  0.11901695  1
  V  V70  1  0.62813953  0.62050274  0.49920210  1
  V  V71  1  0.22636772  0.74363407  0.48403437  1
  V  V72  1  0.49595280  -0.00409261  0.00299532  1
  V  V73  1  -0.00219403  0.62589613  0.12618939  1
  V  V74  1  0.24894393  0.12253919  0.37511927  1
  V  V75  1  0.51173127  0.37168014  0.87108332  1
  V  V76  1  0.87384938  0.75094464  0.62335410  1
  V  V77  1  0.75014980  0.74818851  0.49971478  1
  V  V78  1  0.37788967  0.24718363  0.62530087  1
  V  V79  1  0.87043720  0.49998806  0.36264326  1
  V  V80  1  0.00300248  0.50166561  0.00192237  1
  V  V81  1  0.76383568  0.00432403  0.25451260  1
  V  V82  1  0.00528469  0.75435841  0.26020049  1
  V  V83  1  0.74860297  0.38742763  0.13288599  1
  V  V84  1  0.50104182  0.12164148  0.62638260  1
  Zn  Zn85  1  0.00180929  0.87717642  0.87766809  1
  Zn  Zn86  1  0.62577934  0.74869183  0.37538272  1
  Zn  Zn87  1  0.62069560  0.49468311  0.63205869  1
  Zn  Zn88  1  0.24350124  0.00406656  0.75045748  1
  Zn  Zn89  1  0.51101769  0.49629695  0.00808705  1
  Zn  Zn90  1  0.25743694  0.39399274  0.64317391  1
  Zn  Zn91  1  0.61671169  0.38492494  0.23358935  1
  Zn  Zn92  1  0.38226071  0.74713805  0.11010795  1
  Zn  Zn93  1  0.13036714  0.25430610  0.88144363  1
  Zn  Zn94  1  0.12312771  0.87877275  0.75209532  1
  Zn  Zn95  1  0.13285301  0.38745705  0.75226790  1
  Zn  Zn96  1  0.50416336  0.13172698  0.12915017  1
  Zn  Zn97  1  0.12823365  0.50256682  0.63020262  1
  Zn  Zn98  1  0.74517185  0.25446103  -0.00143270  1
  Zn  Zn99  1  0.87826081  0.50123123  0.87556734  1
  Zn  Zn100  1  0.86876829  0.37263624  0.49418767  1
  Zn  Zn101  1  0.37647227  0.00003644  0.37546964  1
  Zn  Zn102  1  0.49858445  0.74925979  0.24818055  1
  Zn  Zn103  1  0.13053475  0.86584467  0.26473702  1
  Zn  Zn104  1  -0.00314984  0.00618828  0.00505972  1
  Zn  Zn105  1  0.26204819  0.75087694  -0.00943942  1
  Zn  Zn106  1  0.74488091  0.13669813  0.87086491  1
  Zn  Zn107  1  0.19256765  0.18718241  0.18702988  1
  Zn  Zn108  1  0.20232978  0.21796084  0.70526881  1
  Zn  Zn109  1  0.18510512  0.69288098  0.18303982  1
  Zn  Zn110  1  0.18106283  0.69515860  0.68014859  1
  Zn  Zn111  1  0.69210397  0.18905703  0.18485266  1
  Zn  Zn112  1  0.69061277  0.18776309  0.68426068  1
  Zn  Zn113  1  0.68570189  0.69143910  0.18808578  1
  Zn  Zn114  1  0.68629043  0.68262682  0.68781043  1
  Zn  Zn115  1  0.31212456  0.31097321  0.31249890  1
  Zn  Zn116  1  0.31838042  0.31031272  0.81441013  1
  Zn  Zn117  1  0.31428559  0.81239034  0.30944463  1
  Zn  Zn118  1  0.30881529  0.80861562  0.80736496  1
  Zn  Zn119  1  0.81141671  0.30561064  0.30928374  1
  Zn  Zn120  1  0.81478920  0.31169676  0.81651634  1
  Zn  Zn121  1  0.81187368  0.80966024  0.31163594  1
  Zn  Zn122  1  0.81405703  0.81326578  0.81342649  1
  Zn  Zn123  1  0.20167880  0.45083020  0.47673888  1
  Zn  Zn124  1  0.19044093  0.43944290  0.93772972  1
  Zn  Zn125  1  0.18339817  0.93903676  0.43650778  1
  Zn  Zn126  1  0.18511996  0.94054156  0.93755246  1
  Zn  Zn127  1  0.66808215  0.45063359  0.40132262  1
  Zn  Zn128  1  0.68872248  0.43516572  0.94258075  1
  Zn  Zn129  1  0.68975995  0.94190377  0.43613931  1
  Zn  Zn130  1  0.68825282  0.93845315  0.93873812  1
  Zn  Zn131  1  0.31254926  0.06530402  0.06312389  1
  Zn  Zn132  1  0.31325006  0.06078763  0.56203650  1
  Zn  Zn133  1  0.31722000  0.55601217  0.06347941  1
  Zn  Zn134  1  0.31120798  0.57011676  0.55414074  1
  Zn  Zn135  1  0.80776672  0.06062802  0.06161065  1
  Zn  Zn136  1  0.81282040  0.06720862  0.56142224  1
  Zn  Zn137  1  0.81371467  0.56110985  0.06287547  1
  Zn  Zn138  1  0.81425214  0.55571390  0.55969966  1
  Zn  Zn139  1  0.43245483  0.44484825  0.18640551  1
  Zn  Zn140  1  0.44049365  0.43491555  0.69102233  1
  Zn  Zn141  1  0.43648760  0.93865724  0.18765971  1
  Zn  Zn142  1  0.43392013  0.93180950  0.68981791  1
  Zn  Zn143  1  0.94049990  0.43089911  0.18736299  1
  Zn  Zn144  1  0.93610612  0.43765511  0.68680273  1
  Zn  Zn145  1  0.93968789  0.93459672  0.18870154  1
  Zn  Zn146  1  0.93590366  0.93851522  0.68434929  1
  Zn  Zn147  1  0.07517657  0.03713457  0.32252899  1
  Zn  Zn148  1  0.06232652  0.06533326  0.81429603  1
  Zn  Zn149  1  0.03697323  0.56297743  0.30842063  1
  Zn  Zn150  1  0.06836293  0.56343752  0.81166379  1
  Zn  Zn151  1  0.56320465  0.05829248  0.31359902  1
  Zn  Zn152  1  0.55994313  0.05955229  0.81449403  1
  Zn  Zn153  1  0.56043129  0.56056214  0.30813170  1
  Zn  Zn154  1  0.58062387  0.54209222  0.84758847  1
  Zn  Zn155  1  0.43888288  0.18487831  0.43635509  1
  Zn  Zn156  1  0.43784612  0.18871104  0.94112367  1
  Zn  Zn157  1  0.43592673  0.68807814  0.44110187  1
  Zn  Zn158  1  0.43372516  0.67688560  0.93624879  1
  Zn  Zn159  1  0.94009801  0.18553748  0.44093960  1
  Zn  Zn160  1  0.93673135  0.18924361  0.93916549  1
  Zn  Zn161  1  0.93193918  0.68540158  0.43721412  1
  Zn  Zn162  1  0.94061879  0.68794060  0.93857984  1
  Zn  Zn163  1  0.05969112  0.31008732  0.06771318  1
  Zn  Zn164  1  0.06657843  0.31837188  0.56293836  1
  Zn  Zn165  1  0.06624046  0.81453557  0.06580212  1
  Zn  Zn166  1  0.05880122  0.81850093  0.55853679  1
  Zn  Zn167  1  0.56103228  0.31489337  0.06009330  1
  Zn  Zn168  1  0.56217739  0.31121747  0.56049186  1
  Zn  Zn169  1  0.55959530  0.80886137  0.06317508  1
  Zn  Zn170  1  0.56258757  0.80751135  0.56288726  1
  O  O171  1  0.13435615  0.11889106  0.11092015  1
  O  O172  1  0.11280110  0.12397346  0.63259008  1
  O  O173  1  0.11850169  0.61991062  0.11846208  1
  O  O174  1  0.10900106  0.62710964  0.62545030  1
  O  O175  1  0.62334028  0.11751899  0.11868643  1
  O  O176  1  0.62234842  0.11804537  0.61672332  1
  O  O177  1  0.61537901  0.62542889  0.12857783  1
  O  O178  1  0.61982044  0.62032258  0.61414652  1
  O  O179  1  0.38079943  0.37935512  0.37941987  1
  O  O180  1  0.37903658  0.37867003  0.88032327  1
  O  O181  1  0.38358790  0.87635921  0.38261282  1
  O  O182  1  0.37708781  0.88750648  0.86768481  1
  O  O183  1  0.87896993  0.37903289  0.37276350  1
  O  O184  1  0.88746903  0.37795509  0.88591526  1
  O  O185  1  0.86804366  0.87534799  0.38704632  1
  O  O186  1  0.87569831  0.88165376  0.88441074  1
  O  O187  1  0.25732062  0.00753875  0.36608341  1
  O  O188  1  0.25676171  0.00708100  0.87244571  1
  O  O189  1  0.25605486  0.49770318  0.37997332  1
  O  O190  1  0.26732826  0.49644143  0.87828182  1
  O  O191  1  0.74463623  0.01462663  0.36575805  1
  O  O192  1  0.76138734  -0.00003000  0.86937394  1
  O  O193  1  0.76584095  0.50714143  0.38258301  1
  O  O194  1  0.75712812  0.50650918  0.86540421  1
  O  O195  1  0.24305186  0.48568309  0.12380452  1
  O  O196  1  0.23816229  0.49197251  0.58562048  1
  O  O197  1  0.24888832  0.98973820  0.12764589  1
  O  O198  1  0.23879128  0.99756321  0.62431809  1
  O  O199  1  0.75461484  0.48682526  0.12521918  1
  O  O200  1  0.74909679  0.48778329  0.63412624  1
  O  O201  1  0.74281610  0.99430238  0.13247989  1
  O  O202  1  0.74449259  0.99572363  0.63042636  1
  O  O203  1  0.01066095  0.37006449  0.26046923  1
  O  O204  1  -0.00133489  0.37038494  0.76012248  1
  O  O205  1  0.00153597  0.85705070  0.24478621  1
  O  O206  1  -0.00437489  0.86148478  0.74870642  1
  O  O207  1  0.49652173  0.37777521  0.26010435  1
  O  O208  1  0.49751702  0.35837206  0.75658982  1
  O  O209  1  0.50615836  0.87586150  0.25916383  1
  O  O210  1  0.51180932  0.87325450  0.75807240  1
  O  O211  1  0.48654009  0.11556112  0.24862906  1
  O  O212  1  0.49343568  0.12606651  0.74676832  1
  O  O213  1  0.49376490  0.62580317  0.24205900  1
  O  O214  1  0.50856343  0.63255324  0.73393602  1
  O  O215  1  1.01108906  0.12900403  0.26020711  1
  O  O216  1  0.99152222  0.13273887  0.74572757  1
  O  O217  1  0.99872758  0.63706807  0.23370484  1
  O  O218  1  0.98995933  0.63557832  0.74395688  1
  O  O219  1  0.37898729  0.26347171  0.00859760  1
  O  O220  1  0.37377661  0.25338770  0.50547945  1
  O  O221  1  0.37429858  0.74857144  -0.00431454  1
  O  O222  1  0.36993397  0.76107654  0.50599343  1
  O  O223  1  0.88239264  0.26178365  0.01293747  1
  O  O224  1  0.87780715  0.25204037  0.51460291  1
  O  O225  1  0.87014228  0.75749710  0.00590502  1
  O  O226  1  0.86963964  0.75902706  0.50477403  1
  O  O227  1  0.13661053  0.25100898  0.49394154  1
  O  O228  1  0.12273002  0.23781243  1.00167752  1
  O  O229  1  0.12632897  0.75514008  0.49345613  1
  O  O230  1  0.12607014  0.74346082  0.99318092  1
  O  O231  1  0.61877883  0.23319719  0.49664115  1
  O  O232  1  0.62187678  0.23225652  1.00524083  1
  O  O233  1  0.63328458  0.74112042  0.49927592  1
  O  O234  1  0.63475782  0.75613185  0.99028278  1
  O  O235  1  0.48752008  0.25210562  0.12476416  1
  O  O236  1  0.49590388  0.24138503  0.63192979  1
  O  O237  1  0.49970889  0.73768720  0.12928353  1
  O  O238  1  0.49502054  0.74308377  0.63180365  1
  O  O239  1  0.98800509  0.25182593  0.13691205  1
  O  O240  1  0.99426211  0.24696077  0.63173992  1
  O  O241  1  0.99334684  0.74323190  0.12675366  1
  O  O242  1  0.99318748  0.74529717  0.62985278  1
  O  O243  1  0.00248638  0.25275867  0.36909843  1
  O  O244  1  -0.00197563  0.26071998  0.86970451  1
  O  O245  1  -0.00887859  0.74209019  0.35791963  1
  O  O246  1  0.00605649  0.75308002  0.86704519  1
  O  O247  1  0.50491899  0.25389585  0.37320668  1
  O  O248  1  0.49281869  0.25914801  0.86606097  1
  O  O249  1  0.50224374  0.76155204  0.37560896  1
  O  O250  1  0.50974781  0.75092448  0.86892745  1
  O  O251  1  0.26015927  0.13037256  0.48703979  1
  O  O252  1  0.23801923  0.11876510  0.99310597  1
  O  O253  1  0.24777805  0.64582571  0.49207772  1
  O  O254  1  0.23918651  0.62596367  1.00816785  1
  O  O255  1  0.73933866  0.11708820  0.48612055  1
  O  O256  1  0.73358188  0.12252316  0.99897162  1
  O  O257  1  0.74398831  0.62751066  0.49752150  1
  O  O258  1  0.75776841  0.62850064  0.98543596  1
  O  O259  1  0.25800087  0.37550911  0.00873822  1
  O  O260  1  0.26648738  0.35677584  0.49222820  1
  O  O261  1  0.24729337  0.87602315  0.01287906  1
  O  O262  1  0.25508767  0.88098988  0.50613172  1
  O  O263  1  0.76088230  0.37580386  0.00793183  1
  O  O264  1  0.74874045  0.37893714  0.51401070  1
  O  O265  1  0.76004117  0.87105871  0.00590424  1
  O  O266  1  0.75460124  0.87124025  0.50459457  1
  O  O267  1  0.13148805  0.49446903  0.25181472  1
  O  O268  1  0.12972350  0.50212100  0.74553606  1
  O  O269  1  0.14619819  1.01794482  0.23149682  1
  O  O270  1  0.12258810  0.99977853  0.73880518  1
  O  O271  1  0.63227174  0.47929379  0.29268606  1
  O  O272  1  0.64379747  0.50605933  0.75112611  1
  O  O273  1  0.62942806  0.99049749  0.24405983  1
  O  O274  1  0.63100474  0.99522171  0.74579262  1
  O  O275  1  0.36576030  0.00797625  0.24862262  1
  O  O276  1  0.37427813  0.00942585  0.75731783  1
  O  O277  1  0.37193175  0.51147468  0.26028726  1
  O  O278  1  0.35943027  0.48971331  0.74905682  1
  O  O279  1  0.86242900  -0.00403107  0.24456894  1
  O  O280  1  0.87021416  0.00495285  0.75650501  1
  O  O281  1  0.88264127  0.49669370  0.26365680  1
  O  O282  1  0.86753663  0.51056585  0.75008721  1
  O  O283  1  0.11682151  0.36401069  0.36884373  1
  O  O284  1  0.11489248  0.37334576  0.87697791  1
  O  O285  1  0.11036592  0.92831002  0.35577129  1
  O  O286  1  0.11985354  0.86927761  0.87268412  1
  O  O287  1  0.60877888  0.35328410  0.39013271  1
  O  O288  1  0.61025826  0.37090063  0.87378643  1
  O  O289  1  0.61862849  0.87542720  0.36907699  1
  O  O290  1  0.62242082  0.86566215  0.87002165  1
  O  O291  1  0.37624117  0.13613771  0.13052166  1
  O  O292  1  0.38301039  0.12403922  0.63407914  1
  O  O293  1  0.37979671  0.62414836  0.13409580  1
  O  O294  1  0.38644486  0.63471301  0.61126956  1
  O  O295  1  0.87333603  0.13809201  0.11625169  1
  O  O296  1  0.87796044  0.13500449  0.63301097  1
  O  O297  1  0.88388415  0.63507734  0.11644061  1
  O  O298  1  0.87806922  0.63073430  0.63217065  1
  O  O299  1  0.26016939  0.26343192  0.13002290  1
  O  O300  1  0.26275500  0.23417232  0.60957080  1
  O  O301  1  0.25044793  0.76496261  0.12295072  1
  O  O302  1  0.24341354  0.76544064  0.60082226  1
  O  O303  1  0.76411192  0.25511464  0.12005997  1
  O  O304  1  0.75769408  0.26475715  0.63209173  1
  O  O305  1  0.75738883  0.75414488  0.12037165  1
  O  O306  1  0.75398522  0.75373347  0.61930830  1
  O  O307  1  0.24696560  0.24098500  0.38171093  1
  O  O308  1  0.25121069  0.23498790  0.87697728  1
  O  O309  1  0.24457288  0.76865802  0.38713207  1
  O  O310  1  0.23426417  0.75433225  0.87400237  1
  O  O311  1  0.73824443  0.23677419  0.37016040  1
  O  O312  1  0.75811405  0.24822610  0.88576830  1
  O  O313  1  0.75155055  0.73974274  0.38309367  1
  O  O314  1  0.74599643  0.74445757  0.87960520  1
  O  O315  1  0.01631839  0.12333764  -0.00483937  1
  O  O316  1  -0.00748642  0.11661182  0.51570662  1
  O  O317  1  0.00633737  0.62040516  0.00973211  1
  O  O318  1  -0.01125108  0.61745792  0.50990041  1
  O  O319  1  0.50935239  0.11393982  0.00164619  1
  O  O320  1  0.50452993  0.11485619  0.50637722  1
  O  O321  1  0.49940700  0.62209835  0.01688130  1
  O  O322  1  0.50925590  0.62148503  0.50715706  1
  O  O323  1  0.48831800  0.37565916  0.49518348  1
  O  O324  1  0.49514291  0.37535901  0.98537813  1
  O  O325  1  0.49356913  0.87579478  0.49579801  1
  O  O326  1  0.50712267  0.88706611  0.99288879  1
  O  O327  1  0.99626517  0.37634140  0.48570510  1
  O  O328  1  0.99686443  0.38110533  0.99697989  1
  O  O329  1  0.98856003  0.89258130  0.50476121  1
  O  O330  1  0.98727235  0.87700726  1.00242465  1
  O  O331  1  0.48927488  0.48994411  0.38272351  1
  O  O332  1  0.48546495  0.47667175  0.85506994  1
  O  O333  1  0.49878400  0.98783931  0.38334943  1
  O  O334  1  0.49170492  0.99236959  0.88242274  1
  O  O335  1  0.98688048  0.49106820  0.37930787  1
  O  O336  1  0.99885858  0.49442602  0.88241689  1
  O  O337  1  0.98652193  1.02216131  0.39618240  1
  O  O338  1  0.98641052  0.99783635  0.87534292  1
  O  O339  1  0.01570995  -0.00425571  0.12712510  1
  O  O340  1  0.00332349  0.01125270  0.62413626  1
  O  O341  1  0.00856295  0.50628193  0.12369472  1
  O  O342  1  -0.00507223  0.51002357  0.61745283  1
  O  O343  1  0.50615598  0.00000709  0.11762250  1
  O  O344  1  0.50570533  0.00127366  0.62291687  1
  O  O345  1  0.50348971  0.51200605  0.12661979  1
  O  O346  1  0.50131849  0.50578939  0.62040043  1
  O  O347  1  0.23674443  0.37027622  0.24625195  1
  O  O348  1  0.23893977  0.33347913  0.73896253  1
  O  O349  1  0.24868122  0.88374422  0.24203371  1
  O  O350  1  0.24683136  0.87801504  0.73338168  1
  O  O351  1  0.75161433  0.37057387  0.23409206  1
  O  O352  1  0.75910504  0.38767220  0.74623151  1
  O  O353  1  0.74265733  0.88146736  0.24769332  1
  O  O354  1  0.74538971  0.87983691  0.74428706  1
  O  O355  1  0.26298032  0.12112176  0.25513012  1
  O  O356  1  0.25918428  0.12552604  0.75899439  1
  O  O357  1  0.25330414  0.62134444  0.24998592  1
  O  O358  1  0.28670275  0.69306106  0.71850073  1
  O  O359  1  0.74405682  0.11709573  0.26210333  1
  O  O360  1  0.75628165  0.11808950  0.75086097  1
  O  O361  1  0.74600867  0.63076998  0.26325441  1
  O  O362  1  0.75915213  0.61939348  0.75558072  1
  O  O363  1  0.36880574  0.12355156  0.36672497  1
  O  O364  1  0.37006455  0.11634012  0.87202267  1
  O  O365  1  0.38228031  0.61299533  0.37044698  1
  O  O366  1  0.38756117  0.60054652  0.86622270  1
  O  O367  1  0.85767617  0.13471979  0.37931191  1
  O  O368  1  0.87401305  0.11756936  0.86985257  1
  O  O369  1  0.86789052  0.61004952  0.37560561  1
  O  O370  1  0.86948316  0.62654209  0.86525556  1
  O  O371  1  0.13025526  0.37816098  0.13352349  1
  O  O372  1  0.13114266  0.37994705  0.62963894  1
  O  O373  1  0.13645681  0.88453549  0.12933309  1
  O  O374  1  0.12860603  0.88588276  0.62617651  1
  O  O375  1  0.64182691  0.37142104  0.12022939  1
  O  O376  1  0.63707318  0.37436774  0.62400356  1
  O  O377  1  0.63019650  0.87989226  0.13256971  1
  O  O378  1  0.63096675  0.87945267  0.62906656  1
  O  O379  1  0.11875979  0.25309535  0.25459565  1
  O  O380  1  0.10590953  0.24498923  0.75979795  1
  O  O381  1  0.11086050  0.75001596  0.24990774  1
  O  O382  1  0.11385509  0.75178582  0.75714396  1
  O  O383  1  0.62468673  0.25565384  0.25634276  1
  O  O384  1  0.61201112  0.23609849  0.75017017  1
  O  O385  1  0.62389722  0.76535575  0.25371592  1
  O  O386  1  0.61920424  0.75675572  0.75304231  1
  O  O387  1  0.37188223  0.24175979  0.24148584  1
  O  O388  1  0.38410939  0.23448295  0.74503983  1
  O  O389  1  0.37621077  0.73513609  0.25153457  1
  O  O390  1  0.40105030  0.76984584  0.74817135  1
  O  O391  1  0.88360428  0.24729500  0.23766367  1
  O  O392  1  0.88474803  0.24759782  0.74231860  1
  O  O393  1  0.88110097  0.75402347  0.23668986  1
  O  O394  1  0.87848637  0.74261957  0.74519168  1
  O  O395  1  0.37975061  0.49072990  0.49175006  1
  O  O396  1  0.38433262  0.48502499  0.99993316  1
  O  O397  1  0.38360495  0.98584495  0.50348355  1
  O  O398  1  0.38499663  1.00526722  0.99226214  1
  O  O399  1  0.88358945  0.49266641  0.49080779  1
  O  O400  1  0.88485126  0.48941041  1.00146365  1
  O  O401  1  0.88422153  0.99253159  0.51115932  1
  O  O402  1  0.87560580  0.99390103  0.99428190  1
  O  O403  1  0.12153869  0.00824152  0.00792615  1
  O  O404  1  0.10771907  0.00047158  0.51473921  1
  O  O405  1  0.12050974  0.50762971  0.00540650  1
  O  O406  1  0.10127264  0.49753090  0.49597568  1
  O  O407  1  0.61923243  0.00523198  0.00771837  1
  O  O408  1  0.61737745  0.00536882  0.50522786  1
  O  O409  1  0.61088685  0.51157709  -0.04362159  1
  O  O410  1  0.61715695  0.50605170  0.49778904  1
  O  O411  1  0.36842491  0.37188126  0.12042209  1
  O  O412  1  0.37338612  0.36661861  0.61669838  1
  O  O413  1  0.36231690  0.87117658  0.13024931  1
  O  O414  1  0.36353428  0.86408951  0.62144145  1
  O  O415  1  0.86856045  0.36919963  0.12022697  1
  O  O416  1  0.86574907  0.36870857  0.62309847  1
  O  O417  1  0.86870855  0.86847363  0.11809376  1
  O  O418  1  0.86678280  0.86848142  0.62001545  1
  O  O419  1  0.14201064  0.12813512  0.37052498  1
  O  O420  1  0.13366275  0.12478322  0.88666742  1
  O  O421  1  0.13496441  0.60655282  0.35934916  1
  O  O422  1  0.11629810  0.63624007  0.88786300  1
  O  O423  1  0.62548845  0.13102452  0.38000602  1
  O  O424  1  0.62566345  0.11519174  0.89037757  1
  O  O425  1  0.63177771  0.62728210  0.38625249  1
  O  O426  1  0.63880028  0.64254193  0.86195484  1
