# generated using pymatgen
data_V85Zn86O256
_symmetry_space_group_name_H-M   'P 1'
_cell_length_a   16.92236930
_cell_length_b   16.92228659
_cell_length_c   16.92368644
_cell_angle_alpha   89.97891439
_cell_angle_beta   89.98091115
_cell_angle_gamma   90.00895884
_symmetry_Int_Tables_number   1
_chemical_formula_structural   V85Zn86O256
_chemical_formula_sum   'V85 Zn86 O256'
_cell_volume   4846.35391144
_cell_formula_units_Z   1
loop_
 _symmetry_equiv_pos_site_id
 _symmetry_equiv_pos_as_xyz
  1  'x, y, z'
loop_
 _atom_site_type_symbol
 _atom_site_label
 _atom_site_symmetry_multiplicity
 _atom_site_fract_x
 _atom_site_fract_y
 _atom_site_fract_z
 _atom_site_occupancy
  V  V0  1  0.61774551  0.00277510  0.12805016  1
  V  V1  1  0.26001494  -0.00440834  0.74515363  1
  V  V2  1  0.12543240  0.50192610  0.11630389  1
  V  V3  1  0.88026814  0.38426465  -0.00667880  1
  V  V4  1  0.00427581  0.00589849  0.50003375  1
  V  V5  1  0.61723637  0.74202831  0.87013142  1
  V  V6  1  0.12487525  0.51118955  0.62084676  1
  V  V7  1  0.74298308  0.74923145  0.49654079  1
  V  V8  1  0.87578220  0.37843373  0.50030073  1
  V  V9  1  0.50528907  0.49906559  0.50255307  1
  V  V10  1  0.37363242  0.49802698  0.37514050  1
  V  V11  1  0.62295079  0.26654781  0.87278340  1
  V  V12  1  0.38546043  0.62821504  0.74986200  1
  V  V13  1  0.50217588  0.85707579  0.37181453  1
  V  V14  1  0.87726405  0.87902016  0.00065160  1
  V  V15  1  0.74809190  0.87909259  0.62421066  1
  V  V16  1  0.12569379  0.74906868  0.87560726  1
  V  V17  1  0.77037805  0.62573917  0.87307442  1
  V  V18  1  0.37456692  0.37091963  0.49900457  1
  V  V19  1  0.00261191  0.25204813  0.75261975  1
  V  V20  1  0.37457060  0.88067142  -0.00420363  1
  V  V21  1  0.24740290  0.49937694  0.25065134  1
  V  V22  1  0.00727820  0.37165717  0.37513821  1
  V  V23  1  0.87632305  0.12242310  0.74784691  1
  V  V24  1  0.00644969  0.63027067  0.12229530  1
  V  V25  1  0.37977852  0.75740841  0.62761890  1
  V  V26  1  0.75587713  0.50706109  0.75473215  1
  V  V27  1  0.87974471  0.75291842  0.13072118  1
  V  V28  1  0.37593966  0.24430664  0.62548323  1
  V  V29  1  0.50359971  0.36669063  0.37567590  1
  V  V30  1  0.24905390  0.62388918  0.87883128  1
  V  V31  1  0.12085083  0.11942432  -0.00379368  1
  V  V32  1  0.24654623  0.74864825  -0.00126155  1
  V  V33  1  0.37966006  -0.00046872  0.37729941  1
  V  V34  1  0.87117106  0.49845591  0.36838319  1
  V  V35  1  0.25964530  0.11765465  0.87507615  1
  V  V36  1  0.87949746  0.62262813  0.24994881  1
  V  V37  1  0.25106038  0.24804673  -0.00159308  1
  V  V38  1  0.24869484  0.87313413  0.12579479  1
  V  V39  1  0.62775019  0.12120533  0.48492238  1
  V  V40  1  -0.00693272  0.74491955  0.74649889  1
  V  V41  1  0.25051868  0.37439269  0.12536916  1
  V  V42  1  0.24845171  -0.00164173  0.25154488  1
  V  V43  1  -0.00344604  0.11875614  0.12096223  1
  V  V44  1  0.12717488  0.87857155  0.73791025  1
  V  V45  1  0.51353079  0.11956382  0.62815114  1
  V  V46  1  0.38432574  0.49642797  0.87435388  1
  V  V47  1  0.74301536  0.62396276  0.37272275  1
  V  V48  1  0.23673977  0.12588733  0.37789053  1
  V  V49  1  0.50387970  0.24644106  0.24963933  1
  V  V50  1  0.74670618  0.74947064  -0.00296708  1
  V  V51  1  0.11935378  0.86629554  0.25032966  1
  V  V52  1  0.25186251  0.49974730  0.75092501  1
  V  V53  1  0.37422986  0.74633125  0.12511548  1
  V  V54  1  0.11468264  0.74240103  0.38020822  1
  V  V55  1  0.75435376  0.38560841  0.12760047  1
  V  V56  1  0.86453417  0.12496110  0.25314628  1
  V  V57  1  0.23364587  0.24353543  0.49887864  1
  V  V58  1  0.38078057  0.24754978  0.12523905  1
  V  V59  1  0.87455203  0.00254256  0.87964178  1
  V  V60  1  0.38364830  0.37468324  -0.00314243  1
  V  V61  1  0.74101949  0.37630490  0.63335560  1
  V  V62  1  0.74911819  0.25285523  -0.00009475  1
  V  V63  1  0.50499827  0.26419514  0.75127192  1
  V  V64  1  0.24674561  0.37237517  0.62649127  1
  V  V65  1  0.37198904  0.63025772  0.25143223  1
  V  V66  1  0.86351801  0.00125591  0.37699008  1
  V  V67  1  0.50100359  0.51438282  0.00425966  1
  V  V68  1  0.54762557  0.68210566  0.18407802  1
  V  V69  1  0.63121188  0.37276653  0.25261163  1
  V  V70  1  0.00831261  0.24604219  0.25321874  1
  V  V71  1  0.00293908  0.88435891  0.87319982  1
  V  V72  1  0.61900926  0.88015120  0.74453198  1
  V  V73  1  0.24454725  0.75808889  0.50853563  1
  V  V74  1  0.87531241  0.25065651  0.12455272  1
  V  V75  1  0.74730805  0.12646584  0.87520789  1
  V  V76  1  0.12040758  -0.00285834  0.12278876  1
  V  V77  1  0.62063825  0.49953667  0.12490996  1
  V  V78  1  0.24461285  0.62499834  0.38565722  1
  V  V79  1  0.49990422  0.88407281  0.87324137  1
  V  V80  1  0.87366882  0.24945617  0.62393996  1
  V  V81  1  0.74412997  0.24907692  0.48749190  1
  V  V82  1  -0.00592927  0.87182349  0.37330749  1
  V  V83  1  0.61613954  0.12598789  0.00115209  1
  V  V84  1  0.37620541  0.12338965  0.24724857  1
  Zn  Zn85  1  0.00396644  0.38356804  0.87254937  1
  Zn  Zn86  1  0.74563608  0.00239899  0.74488823  1
  Zn  Zn87  1  0.37330999  0.87868429  0.50270655  1
  Zn  Zn88  1  0.62385886  0.62693419  0.50280245  1
  Zn  Zn89  1  0.62127059  0.86540761  0.25110341  1
  Zn  Zn90  1  0.62136043  0.50081674  0.63720336  1
  Zn  Zn91  1  0.74473326  -0.00371201  0.25160931  1
  Zn  Zn92  1  0.49245440  0.00656723  0.00134992  1
  Zn  Zn93  1  0.12499408  0.37603951  0.75414739  1
  Zn  Zn94  1  0.50395916  0.62725964  0.62712609  1
  Zn  Zn95  1  0.00774121  0.51004985  0.49268467  1
  Zn  Zn96  1  0.13452374  0.00493423  0.61629338  1
  Zn  Zn97  1  0.38251281  0.12102086  0.75450071  1
  Zn  Zn98  1  0.12695690  0.37122399  0.25139117  1
  Zn  Zn99  1  -0.00874962  0.62509404  0.61960021  1
  Zn  Zn100  1  0.00755352  0.12879268  0.61772899  1
  Zn  Zn101  1  0.86501490  0.74175328  0.62780670  1
  Zn  Zn102  1  0.87279547  0.87329559  0.50331656  1
  Zn  Zn103  1  0.00214491  0.51408898  -0.01031342  1
  Zn  Zn104  1  0.74747648  0.87737539  0.12757569  1
  Zn  Zn105  1  0.50439348  -0.00466905  0.50303200  1
  Zn  Zn106  1  0.12572305  0.24969619  0.87444701  1
  Zn  Zn107  1  0.18844792  0.18447594  0.18502125  1
  Zn  Zn108  1  0.18598146  0.18034844  0.68680221  1
  Zn  Zn109  1  0.18698690  0.68663885  0.19185898  1
  Zn  Zn110  1  0.19183556  0.68893474  0.69308641  1
  Zn  Zn111  1  0.68584050  0.18918356  0.18279435  1
  Zn  Zn112  1  0.68838842  0.19219715  0.68938134  1
  Zn  Zn113  1  0.70957491  0.68564022  0.18755332  1
  Zn  Zn114  1  0.68503980  0.68797166  0.68830105  1
  Zn  Zn115  1  0.31033575  0.30842904  0.31462783  1
  Zn  Zn116  1  0.31410982  0.30940138  0.81260775  1
  Zn  Zn117  1  0.31081040  0.81124199  0.31710089  1
  Zn  Zn118  1  0.31466414  0.81444978  0.81036066  1
  Zn  Zn119  1  0.81769294  0.31311883  0.30961889  1
  Zn  Zn120  1  0.81326791  0.31283612  0.81242785  1
  Zn  Zn121  1  0.80669638  0.81178995  0.31217775  1
  Zn  Zn122  1  0.80848429  0.81588834  0.81154722  1
  Zn  Zn123  1  0.18802117  0.43395416  0.44010377  1
  Zn  Zn124  1  0.18931505  0.43497296  0.93642098  1
  Zn  Zn125  1  0.18628175  0.93503448  0.43404098  1
  Zn  Zn126  1  0.18834986  0.93886484  0.93419792  1
  Zn  Zn127  1  0.68930513  0.43556813  0.43692290  1
  Zn  Zn128  1  0.69117024  0.44684232  0.94122823  1
  Zn  Zn129  1  0.68187776  0.93416874  0.43706282  1
  Zn  Zn130  1  0.68662418  0.93858992  0.93676036  1
  Zn  Zn131  1  0.30937800  0.06204164  0.06553063  1
  Zn  Zn132  1  0.31455698  0.06446889  0.56276399  1
  Zn  Zn133  1  0.31292472  0.56318129  0.06178486  1
  Zn  Zn134  1  0.31603324  0.56304619  0.56383011  1
  Zn  Zn135  1  0.80548343  0.06206496  0.06293587  1
  Zn  Zn136  1  0.81052608  0.06155452  0.56038908  1
  Zn  Zn137  1  0.81189319  0.56633652  0.06022699  1
  Zn  Zn138  1  0.81438604  0.56394888  0.56374832  1
  Zn  Zn139  1  0.43819571  0.43741762  0.18805151  1
  Zn  Zn140  1  0.43418357  0.43757838  0.68491504  1
  Zn  Zn141  1  0.44116940  0.93413113  0.18856717  1
  Zn  Zn142  1  0.44011865  0.93733684  0.68754371  1
  Zn  Zn143  1  0.94263860  0.43935982  0.18606508  1
  Zn  Zn144  1  0.93716593  0.43961270  0.68856878  1
  Zn  Zn145  1  0.93530289  0.93849096  0.19073390  1
  Zn  Zn146  1  0.93454684  0.93434827  0.68577813  1
  Zn  Zn147  1  0.05595349  0.05670307  0.31030666  1
  Zn  Zn148  1  0.06582177  0.06362656  0.80765358  1
  Zn  Zn149  1  0.05980198  0.56034517  0.30785859  1
  Zn  Zn150  1  0.06361711  0.56200262  0.81146101  1
  Zn  Zn151  1  0.56004802  0.06296538  0.31149316  1
  Zn  Zn152  1  0.56341782  0.06422326  0.81387234  1
  Zn  Zn153  1  0.56398599  0.55024405  0.31550030  1
  Zn  Zn154  1  0.56880034  0.55508787  0.81258348  1
  Zn  Zn155  1  0.43583533  0.18378323  0.43846532  1
  Zn  Zn156  1  0.43997869  0.19157361  0.93314546  1
  Zn  Zn157  1  0.43212813  0.68505204  0.44381915  1
  Zn  Zn158  1  0.43677683  0.69162630  0.93682177  1
  Zn  Zn159  1  0.93464909  0.18720321  0.43463379  1
  Zn  Zn160  1  0.93749436  0.19087489  0.93770839  1
  Zn  Zn161  1  0.93158303  0.68504871  0.44603137  1
  Zn  Zn162  1  0.94169328  0.69595159  0.94060068  1
  Zn  Zn163  1  0.06337880  0.30898524  0.06378567  1
  Zn  Zn164  1  0.06000883  0.31651595  0.56606312  1
  Zn  Zn165  1  0.05905966  0.81205435  0.05824377  1
  Zn  Zn166  1  0.05931476  0.81400771  0.55927683  1
  Zn  Zn167  1  0.56277595  0.31528562  0.06182767  1
  Zn  Zn168  1  0.56339791  0.30775243  0.56181534  1
  Zn  Zn169  1  0.56579898  0.82007818  0.05493328  1
  Zn  Zn170  1  0.56086078  0.81184418  0.55799873  1
  O  O171  1  0.11719933  0.11787533  0.11883674  1
  O  O172  1  0.11914282  0.11708698  0.62557614  1
  O  O173  1  0.11718989  0.61842908  0.13186126  1
  O  O174  1  0.13013280  0.61212653  0.62930277  1
  O  O175  1  0.62742616  0.11522433  0.11494487  1
  O  O176  1  0.61569858  0.13202681  0.61980907  1
  O  O177  1  0.61745291  0.62087668  0.13658407  1
  O  O178  1  0.62089153  0.61971849  0.62340149  1
  O  O179  1  0.38063172  0.37886789  0.37882366  1
  O  O180  1  0.36899069  0.38442952  0.88449026  1
  O  O181  1  0.38296953  0.88245194  0.37470583  1
  O  O182  1  0.38544027  0.86610731  0.88453696  1
  O  O183  1  0.88233461  0.38015914  0.38009008  1
  O  O184  1  0.87497196  0.37074694  0.89128594  1
  O  O185  1  0.88046703  0.88193785  0.37287919  1
  O  O186  1  0.88023667  0.88409699  0.87882450  1
  O  O187  1  0.25977015  0.00340683  0.37001586  1
  O  O188  1  0.24721535  0.00826393  0.86356659  1
  O  O189  1  0.25307896  0.50503568  0.37208158  1
  O  O190  1  0.25998117  0.50754852  0.87300897  1
  O  O191  1  0.75977540  -0.00424964  0.37459404  1
  O  O192  1  0.75785180  0.00802035  0.87182528  1
  O  O193  1  0.76430891  0.50394647  0.37952765  1
  O  O194  1  0.74980509  0.51898859  0.87351808  1
  O  O195  1  0.24612930  0.49610976  0.13062835  1
  O  O196  1  0.24561336  0.49218896  0.62798458  1
  O  O197  1  0.24169408  0.99215634  0.13245695  1
  O  O198  1  0.25274668  1.00307209  0.63991770  1
  O  O199  1  0.74213742  0.49187093  0.11979212  1
  O  O200  1  0.74770885  0.48659943  0.62746867  1
  O  O201  1  0.73576239  0.99766580  0.12648673  1
  O  O202  1  0.75277298  0.98566359  0.62550434  1
  O  O203  1  0.00011650  0.36426718  0.25649285  1
  O  O204  1  0.00033029  0.36422330  0.74968274  1
  O  O205  1  0.00635976  0.87939973  0.26260203  1
  O  O206  1  0.00873026  0.87070050  0.75584491  1
  O  O207  1  0.50429836  0.36548273  0.25673616  1
  O  O208  1  0.49773739  0.36351980  0.74378786  1
  O  O209  1  0.50085355  0.87392028  0.26530105  1
  O  O210  1  0.51010353  0.87590007  0.75600610  1
  O  O211  1  0.49199942  0.13849756  0.25422864  1
  O  O212  1  0.50224556  0.13118691  0.73982634  1
  O  O213  1  0.49343842  0.62393137  0.25226289  1
  O  O214  1  0.48826271  0.61917588  0.75292716  1
  O  O215  1  0.99185010  0.12922099  0.24273385  1
  O  O216  1  0.98849767  0.13170963  0.74920586  1
  O  O217  1  0.98862848  0.62359847  0.23915819  1
  O  O218  1  1.00921683  0.64355911  0.74707977  1
  O  O219  1  0.37379757  0.25532543  0.00682028  1
  O  O220  1  0.37218158  0.25289994  0.51132771  1
  O  O221  1  0.36808493  0.75810915  0.00773168  1
  O  O222  1  0.36447559  0.75044538  0.51244870  1
  O  O223  1  0.86870699  0.25761767  0.00710160  1
  O  O224  1  0.86684313  0.25578130  0.50590544  1
  O  O225  1  0.86781759  0.76007359  0.00646442  1
  O  O226  1  0.85826606  0.75458862  0.50171672  1
  O  O227  1  0.13478947  0.25318067  0.50532049  1
  O  O228  1  0.13317516  0.23638079  1.00301780  1
  O  O229  1  0.13150555  0.75388535  0.49148904  1
  O  O230  1  0.12995623  0.75718320  0.98416845  1
  O  O231  1  0.63815867  0.24384129  0.50000574  1
  O  O232  1  0.62870692  0.24483372  0.99631271  1
  O  O233  1  0.63661082  0.74671763  0.50077880  1
  O  O234  1  0.63895387  0.75958251  0.98634516  1
  O  O235  1  0.48801403  0.25576436  0.13262989  1
  O  O236  1  0.49505770  0.24213308  0.63030438  1
  O  O237  1  0.49525813  0.74597707  0.11963519  1
  O  O238  1  0.48343610  0.74604085  0.61822260  1
  O  O239  1  0.99474378  0.23891904  0.13167298  1
  O  O240  1  0.98715554  0.25051986  0.62995171  1
  O  O241  1  0.99188838  0.74497989  0.12305726  1
  O  O242  1  1.00108982  0.75474353  0.63958865  1
  O  O243  1  -0.00636397  0.25791148  0.36538618  1
  O  O244  1  0.00086999  0.25259331  0.86408812  1
  O  O245  1  0.00695880  0.75667756  0.38032079  1
  O  O246  1  0.00771830  0.75976094  0.86582805  1
  O  O247  1  0.49266375  0.25992613  0.36773712  1
  O  O248  1  0.50966571  0.24952162  0.86360486  1
  O  O249  1  0.49235762  0.75851297  0.37751597  1
  O  O250  1  0.51338425  0.76001739  0.88289670  1
  O  O251  1  0.25399824  0.13216129  0.49056163  1
  O  O252  1  0.24471706  0.12702543  0.99357984  1
  O  O253  1  0.25424102  0.62985268  0.48898403  1
  O  O254  1  0.25670101  0.63205275  0.98694332  1
  O  O255  1  0.73850628  0.13738267  0.50533134  1
  O  O256  1  0.74110379  0.13388370  0.99475507  1
  O  O257  1  0.74789639  0.62941745  0.49009944  1
  O  O258  1  0.75490725  0.63609254  0.98677176  1
  O  O259  1  0.26116406  0.36838721  0.00680840  1
  O  O260  1  0.25599209  0.36486708  0.50585816  1
  O  O261  1  0.25460899  0.86927252  0.00480992  1
  O  O262  1  0.25351411  0.86223282  0.49341172  1
  O  O263  1  0.76163367  0.37418276  0.00745121  1
  O  O264  1  0.75520472  0.36492301  0.50689124  1
  O  O265  1  0.76234760  0.86949556  -0.00278453  1
  O  O266  1  0.74638739  0.86854474  0.50661122  1
  O  O267  1  0.13255717  0.49642781  0.24005216  1
  O  O268  1  0.13578133  0.49771775  0.73890832  1
  O  O269  1  0.12757708  0.98705272  0.24453406  1
  O  O270  1  0.13506991  0.99233943  0.74829161  1
  O  O271  1  0.61810664  0.48421003  0.23719888  1
  O  O272  1  0.64371796  0.49607120  0.75231607  1
  O  O273  1  0.62445094  1.00540241  0.23736455  1
  O  O274  1  0.62677295  0.98504475  0.75488821  1
  O  O275  1  0.37071960  0.00679079  0.25315027  1
  O  O276  1  0.36414243  -0.00044000  0.75056112  1
  O  O277  1  0.36904450  0.51008412  0.25342128  1
  O  O278  1  0.37131396  0.50529554  0.75765408  1
  O  O279  1  0.87155335  0.00849509  0.25752018  1
  O  O280  1  0.87439865  0.00733048  0.75908291  1
  O  O281  1  0.87950084  0.50692775  0.25702246  1
  O  O282  1  0.85635329  0.49010022  0.74889230  1
  O  O283  1  0.11156491  0.37936744  0.37292855  1
  O  O284  1  0.12554757  0.36753317  0.87259857  1
  O  O285  1  0.11635756  0.86655686  0.36763189  1
  O  O286  1  0.11738109  0.87180979  0.86793183  1
  O  O287  1  0.61693878  0.37834806  0.36481626  1
  O  O288  1  0.63131714  0.36496173  0.88618682  1
  O  O289  1  0.60692025  0.87635249  0.37205075  1
  O  O290  1  0.61882915  0.86943511  0.86765876  1
  O  O291  1  0.36985280  0.13188139  0.13757611  1
  O  O292  1  0.38721194  0.13287040  0.62616386  1
  O  O293  1  0.36924470  0.63702044  0.13320367  1
  O  O294  1  0.37732013  0.63191850  0.63432963  1
  O  O295  1  0.88059854  0.12828786  0.12825094  1
  O  O296  1  0.87594625  0.13234207  0.63118342  1
  O  O297  1  0.87937473  0.63266488  0.13086372  1
  O  O298  1  0.87630376  0.62831940  0.62891201  1
  O  O299  1  0.26113354  0.25248395  0.11990747  1
  O  O300  1  0.25731891  0.25355167  0.62163961  1
  O  O301  1  0.25452365  0.75416029  0.12058603  1
  O  O302  1  0.25838928  0.74304210  0.61576796  1
  O  O303  1  0.75453639  0.26228238  0.11831435  1
  O  O304  1  0.75828756  0.25904848  0.62019363  1
  O  O305  1  0.75904196  0.75445337  0.11257823  1
  O  O306  1  0.74618010  0.76051109  0.61929184  1
  O  O307  1  0.25232641  0.23921118  0.38599578  1
  O  O308  1  0.25022140  0.23916543  0.88169401  1
  O  O309  1  0.24067604  0.74188426  0.38333418  1
  O  O310  1  0.24457356  0.74456158  0.87686344  1
  O  O311  1  0.75646789  0.25417896  0.38951166  1
  O  O312  1  0.74387308  0.24560539  0.87979006  1
  O  O313  1  0.75284806  0.73622826  0.38142153  1
  O  O314  1  0.74421536  0.74215679  0.87790047  1
  O  O315  1  0.00801331  0.12976849  0.00843527  1
  O  O316  1  -0.00515791  0.10970205  0.49666127  1
  O  O317  1  -0.00352844  0.62920753  0.01556169  1
  O  O318  1  0.00166921  0.62240031  0.50474574  1
  O  O319  1  0.51150027  0.12570611  -0.00468469  1
  O  O320  1  0.51419520  0.12979512  0.50937292  1
  O  O321  1  0.49138292  0.61382182  0.00169743  1
  O  O322  1  0.50139835  0.61214636  0.49803393  1
  O  O323  1  0.49562484  0.37534753  0.49316294  1
  O  O324  1  0.48704694  0.38270836  1.00488201  1
  O  O325  1  0.49608361  0.87764322  0.48766074  1
  O  O326  1  0.49085022  0.87916958  0.99193946  1
  O  O327  1  0.99141783  0.37615490  0.49275947  1
  O  O328  1  0.98602483  0.37099402  1.00303724  1
  O  O329  1  0.99516113  0.88194546  0.48791676  1
  O  O330  1  0.98638907  0.87136784  0.98821974  1
  O  O331  1  0.49220530  0.48605525  0.38027894  1
  O  O332  1  0.48980904  0.50249102  0.88275165  1
  O  O333  1  0.48753482  1.00064320  0.37627336  1
  O  O334  1  0.50228531  0.98886497  0.87892188  1
  O  O335  1  0.99067050  0.49087274  0.37424192  1
  O  O336  1  1.00614732  0.49750684  0.87906322  1
  O  O337  1  0.99064989  0.99228822  0.38289323  1
  O  O338  1  0.99393828  0.99098720  0.86957066  1
  O  O339  1  0.00312652  0.01130852  0.12869543  1
  O  O340  1  -0.00527158  -0.00296988  0.60654915  1
  O  O341  1  0.01001813  0.50893131  0.12054047  1
  O  O342  1  0.01678916  0.49875102  0.62769155  1
  O  O343  1  0.51172162  -0.00096244  0.12163068  1
  O  O344  1  0.49674341  0.01603971  0.62290140  1
  O  O345  1  0.50710581  0.49732265  0.11799861  1
  O  O346  1  0.50084822  0.49960099  0.61602756  1
  O  O347  1  0.25013479  0.37961375  0.24450762  1
  O  O348  1  0.25285773  0.38033522  0.74143488  1
  O  O349  1  0.24201595  0.87850232  0.24605084  1
  O  O350  1  0.24309931  0.88819251  0.75669641  1
  O  O351  1  0.74248241  0.36900515  0.24130513  1
  O  O352  1  0.75230521  0.37436824  0.73624066  1
  O  O353  1  0.73908077  0.87543373  0.24682989  1
  O  O354  1  0.73738130  0.87661078  0.74399593  1
  O  O355  1  0.25656714  0.11895969  0.25520421  1
  O  O356  1  0.25431525  0.11397534  0.75836716  1
  O  O357  1  0.25634649  0.61975530  0.26090461  1
  O  O358  1  0.26107303  0.61913724  0.76035884  1
  O  O359  1  0.76183100  0.12727356  0.24444236  1
  O  O360  1  0.76087935  0.12541196  0.75385075  1
  O  O361  1  0.76657459  0.62224617  0.25876769  1
  O  O362  1  0.74973573  0.62308258  0.76500534  1
  O  O363  1  0.36863855  0.11890134  0.36440811  1
  O  O364  1  0.36460491  0.12652700  0.87535800  1
  O  O365  1  0.36641334  0.61921036  0.36931066  1
  O  O366  1  0.37035723  0.62063657  0.86884415  1
  O  O367  1  0.87810828  0.11495194  0.36451411  1
  O  O368  1  0.87057860  0.11987765  0.86963749  1
  O  O369  1  0.87217082  0.61641462  0.36735074  1
  O  O370  1  0.86863488  0.63302210  0.87530381  1
  O  O371  1  0.13268398  0.38110943  0.12624797  1
  O  O372  1  0.13766777  0.37961146  0.62797923  1
  O  O373  1  0.12582607  0.87602631  0.13097304  1
  O  O374  1  0.12247935  0.87998883  0.63525850  1
  O  O375  1  0.63360003  0.38147089  0.12950972  1
  O  O376  1  0.63917707  0.37397104  0.61990358  1
  O  O377  1  0.62411366  0.88859521  0.12595062  1
  O  O378  1  0.62508455  0.86857791  0.63958771  1
  O  O379  1  0.11238456  0.24895548  0.24393828  1
  O  O380  1  0.11347472  0.24950188  0.74884478  1
  O  O381  1  0.12839460  0.76063853  0.25998294  1
  O  O382  1  0.12249497  0.76075997  0.75795774  1
  O  O383  1  0.61492645  0.25948441  0.24178532  1
  O  O384  1  0.61824047  0.24991295  0.76021360  1
  O  O385  1  0.61370071  0.74074714  0.23468195  1
  O  O386  1  0.62794969  0.76137381  0.76488515  1
  O  O387  1  0.37987562  0.24349947  0.24334692  1
  O  O388  1  0.38245731  0.24693426  0.73979172  1
  O  O389  1  0.36907000  0.73823080  0.24456295  1
  O  O390  1  0.36833921  0.74286816  0.73664449  1
  O  O391  1  0.88359742  0.24252792  0.24320225  1
  O  O392  1  0.88023344  0.24337279  0.74308165  1
  O  O393  1  0.86990608  0.74449091  0.23631623  1
  O  O394  1  0.89148231  0.75796774  0.75404329  1
  O  O395  1  0.38317761  0.49147857  0.49542112  1
  O  O396  1  0.37987262  0.49341228  0.99470957  1
  O  O397  1  0.37794294  0.99913932  0.49130134  1
  O  O398  1  0.37261891  0.98511790  1.00868663  1
  O  O399  1  0.87516454  0.48669746  0.49361690  1
  O  O400  1  0.87887809  0.48674010  1.00741296  1
  O  O401  1  0.88081414  0.99729742  0.49138215  1
  O  O402  1  0.87097169  0.99610474  0.98827165  1
  O  O403  1  0.12922989  0.01086750  0.00617794  1
  O  O404  1  0.10874196  -0.00747032  0.49713507  1
  O  O405  1  0.12953469  0.49896253  0.01304000  1
  O  O406  1  0.12715475  0.49412729  0.51676886  1
  O  O407  1  0.62346351  0.00874776  0.00783960  1
  O  O408  1  0.62455715  0.01696189  0.49702085  1
  O  O409  1  0.61563821  0.49724866  0.01386992  1
  O  O410  1  0.61201721  0.49605015  0.49873802  1
  O  O411  1  0.36931451  0.36755155  0.12074271  1
  O  O412  1  0.36423055  0.36761677  0.61977005  1
  O  O413  1  0.37093273  0.86328607  0.12222719  1
  O  O414  1  0.37687650  0.86167208  0.62550230  1
  O  O415  1  0.86966911  0.37166884  0.12100140  1
  O  O416  1  0.86802192  0.36884442  0.61615680  1
  O  O417  1  0.87621782  0.87089829  0.11741864  1
  O  O418  1  0.86293064  0.86722704  0.62541707  1
  O  O419  1  0.13804773  0.11536720  0.36661464  1
  O  O420  1  0.13251487  0.12596933  0.88242821  1
  O  O421  1  0.13083716  0.63331294  0.36665809  1
  O  O422  1  0.13737347  0.63674106  0.86704936  1
  O  O423  1  0.62133110  0.12853763  0.38631460  1
  O  O424  1  0.63137059  0.13140802  0.88213390  1
  O  O425  1  0.64021788  0.61321370  0.37182087  1
  O  O426  1  0.62408069  0.64089168  0.87306260  1
