# generated using pymatgen
data_V85Zn86O256
_symmetry_space_group_name_H-M   'P 1'
_cell_length_a   16.91759055
_cell_length_b   16.92886324
_cell_length_c   16.91569398
_cell_angle_alpha   90.00188913
_cell_angle_beta   90.01676617
_cell_angle_gamma   90.01184678
_symmetry_Int_Tables_number   1
_chemical_formula_structural   V85Zn86O256
_chemical_formula_sum   'V85 Zn86 O256'
_cell_volume   4844.57962165
_cell_formula_units_Z   1
loop_
 _symmetry_equiv_pos_site_id
 _symmetry_equiv_pos_as_xyz
  1  'x, y, z'
loop_
 _atom_site_type_symbol
 _atom_site_label
 _atom_site_symmetry_multiplicity
 _atom_site_fract_x
 _atom_site_fract_y
 _atom_site_fract_z
 _atom_site_occupancy
  V  V0  1  0.38514775  0.88099406  0.49368350  1
  V  V1  1  0.00310785  0.87377860  0.87708122  1
  V  V2  1  0.24751875  0.37044304  0.62527191  1
  V  V3  1  0.56580617  0.06571038  0.44397657  1
  V  V4  1  0.61359292  0.74729465  0.37448952  1
  V  V5  1  0.74426913  0.23651703  0.49721112  1
  V  V6  1  0.50803112  0.62618546  0.61178022  1
  V  V7  1  -0.00155763  -0.00004947  0.49890573  1
  V  V8  1  0.88222105  0.49562364  0.37337946  1
  V  V9  1  0.37654212  0.49500406  0.37974978  1
  V  V10  1  0.12600349  0.13112898  0.00396104  1
  V  V11  1  0.62938826  0.75412829  0.87444305  1
  V  V12  1  0.25024007  0.87418106  0.62461587  1
  V  V13  1  0.61570081  0.38252870  0.25113430  1
  V  V14  1  0.75724974  0.74828140  0.00764464  1
  V  V15  1  0.61828370  0.00220549  0.62523858  1
  V  V16  1  0.12571401  -0.00113353  0.62534095  1
  V  V17  1  0.50625927  0.75093540  0.75133819  1
  V  V18  1  0.36319614  0.63149293  0.25428560  1
  V  V19  1  0.37104600  0.36830537  0.00043921  1
  V  V20  1  0.12855313  0.25647640  0.87559281  1
  V  V21  1  0.50001418  0.37507638  0.86430230  1
  V  V22  1  0.37387155  -0.00191795  0.87782473  1
  V  V23  1  0.12632629  0.74321970  0.37123763  1
  V  V24  1  0.62225533  0.24895355  0.86922608  1
  V  V25  1  0.74902436  0.49760712  0.75046718  1
  V  V26  1  -0.00596252  0.75045691  0.24144708  1
  V  V27  1  0.50525022  -0.00123044  0.00699279  1
  V  V28  1  0.75043092  0.62267420  0.87567402  1
  V  V29  1  0.12723946  0.12683429  0.50023464  1
  V  V30  1  0.38500577  0.25107104  0.63022628  1
  V  V31  1  0.75482922  0.24914037  0.00561848  1
  V  V32  1  0.87563974  0.74823303  0.62485565  1
  V  V33  1  0.74399338  0.50270118  0.24589155  1
  V  V34  1  0.12392483  0.62175248  0.49812398  1
  V  V35  1  0.61752533  0.88191714  0.24973837  1
  V  V36  1  0.50006093  0.25795778  0.24883505  1
  V  V37  1  -0.00133756  0.87488194  0.37264297  1
  V  V38  1  0.38384270  0.12726820  0.75376006  1
  V  V39  1  0.12581617  0.87542947  0.24948173  1
  V  V40  1  0.50388955  0.87339608  0.87443602  1
  V  V41  1  0.25197226  0.12391510  0.37528965  1
  V  V42  1  0.74493031  -0.00500410  0.75118874  1
  V  V43  1  0.62722690  0.50467994  0.60889495  1
  V  V44  1  0.12692272  0.87047100  0.75369286  1
  V  V45  1  0.00252232  0.74768321  0.75331431  1
  V  V46  1  0.11948794  0.25729600  0.36960506  1
  V  V47  1  0.75560548  0.87157832  0.12919621  1
  V  V48  1  0.74263657  0.87224152  0.62824094  1
  V  V49  1  0.37642837  0.50166489  0.87493180  1
  V  V50  1  0.75266396  0.00539472  0.24708372  1
  V  V51  1  0.37547153  0.74952252  0.62436574  1
  V  V52  1  0.74643152  0.74302421  0.49519963  1
  V  V53  1  0.23852329  0.62855201  0.87604710  1
  V  V54  1  0.24961351  0.74751470  0.49535636  1
  V  V55  1  0.37656686  0.62272742  0.75001749  1
  V  V56  1  0.75184907  0.37456367  0.61989325  1
  V  V57  1  0.87353494  0.62816753  0.24581671  1
  V  V58  1  0.74597386  0.37288000  0.12774374  1
  V  V59  1  0.12338506  0.49629980  0.62897022  1
  V  V60  1  0.87507820  0.12507115  0.75108811  1
  V  V61  1  0.37730146  0.86301718  0.00252504  1
  V  V62  1  -0.00102988  0.00272259  0.00164570  1
  V  V63  1  0.00341011  0.25610944  0.75107098  1
  V  V64  1  0.25423872  0.87112808  0.12537170  1
  V  V65  1  0.00112510  0.12491282  0.62801222  1
  V  V66  1  0.62576159  0.62086493  0.01046302  1
  V  V67  1  0.24602658  0.36839066  0.12447216  1
  V  V68  1  0.74914601  0.12493657  0.87592837  1
  V  V69  1  0.62706024  0.12257339  0.01315254  1
  V  V70  1  0.25044013  0.12940629  0.88085577  1
  V  V71  1  0.25252081  -0.00004985  0.25047317  1
  V  V72  1  -0.00010795  0.62033604  0.11206878  1
  V  V73  1  0.00005871  0.38036960  0.87890816  1
  V  V74  1  -0.01231949  0.13233453  0.13456594  1
  V  V75  1  0.38015502  0.12667191  0.24991434  1
  V  V76  1  0.50253144  0.49693277  0.00795141  1
  V  V77  1  0.23544036  0.74555143  -0.00248583  1
  V  V78  1  0.86953567  0.01149777  0.37330761  1
  V  V79  1  0.87465590  0.87363175  0.49835140  1
  V  V80  1  0.61406201  0.25924724  0.38297745  1
  V  V81  1  0.87740518  0.37858745  0.00585273  1
  V  V82  1  0.12535848  0.50351212  0.11067860  1
  V  V83  1  0.25067138  0.49299140  0.75053847  1
  V  V84  1  0.49054655  0.63443148  0.12596730  1
  Zn  Zn85  1  0.87825010  0.36925252  0.49342843  1
  Zn  Zn86  1  0.11688754  0.38314693  0.25216889  1
  Zn  Zn87  1  0.87479492  -0.00291322  0.87533009  1
  Zn  Zn88  1  0.37174403  0.25022206  0.12244400  1
  Zn  Zn89  1  0.38807446  0.37482053  0.49226059  1
  Zn  Zn90  1  0.12420813  0.00300460  0.12755712  1
  Zn  Zn91  1  -0.02574335  0.26023673  0.25648661  1
  Zn  Zn92  1  -0.00081823  0.62132165  0.62424155  1
  Zn  Zn93  1  0.87848204  0.50021478  0.87683740  1
  Zn  Zn94  1  0.49721484  0.12860420  0.12145642  1
  Zn  Zn95  1  0.87633345  0.62272613  0.75009073  1
  Zn  Zn96  1  0.62434326  0.37298336  0.74746778  1
  Zn  Zn97  1  0.50398737  0.12465741  0.62427945  1
  Zn  Zn98  1  0.87944988  0.87059125  0.00572959  1
  Zn  Zn99  1  0.00662955  0.48760009  0.49382379  1
  Zn  Zn100  1  0.74545275  0.62389927  0.37487601  1
  Zn  Zn101  1  0.87508742  0.25087394  0.62206971  1
  Zn  Zn102  1  0.24459024  0.50314018  0.25427243  1
  Zn  Zn103  1  0.39265278  -0.00079526  0.37681926  1
  Zn  Zn104  1  0.25003185  -0.00042533  0.75221243  1
  Zn  Zn105  1  0.25351820  0.25172790  0.50115908  1
  Zn  Zn106  1  0.49295193  0.75621924  0.24702162  1
  Zn  Zn107  1  0.18768714  0.18786081  0.18774342  1
  Zn  Zn108  1  0.19116934  0.18698812  0.69385731  1
  Zn  Zn109  1  0.18367665  0.68852860  0.17947607  1
  Zn  Zn110  1  0.18755480  0.68440198  0.68635582  1
  Zn  Zn111  1  0.80469311  0.18482302  0.19091218  1
  Zn  Zn112  1  0.68668135  0.18584383  0.68540827  1
  Zn  Zn113  1  0.68265624  0.69030240  0.18989524  1
  Zn  Zn114  1  0.68772147  0.68603275  0.68908498  1
  Zn  Zn115  1  0.30797233  0.31657187  0.31104213  1
  Zn  Zn116  1  0.31336443  0.31238236  0.81189995  1
  Zn  Zn117  1  0.31397734  0.81111915  0.31468904  1
  Zn  Zn118  1  0.31383057  0.80976824  0.81412842  1
  Zn  Zn119  1  0.80181102  0.31415396  0.31809924  1
  Zn  Zn120  1  0.81356474  0.31243054  0.81391998  1
  Zn  Zn121  1  0.81137589  0.81375644  0.31287979  1
  Zn  Zn122  1  0.81628058  0.81260175  0.81378353  1
  Zn  Zn123  1  0.19955915  0.43981505  0.43819952  1
  Zn  Zn124  1  0.18873100  0.43823006  0.93793474  1
  Zn  Zn125  1  0.18998110  0.93639718  0.43629392  1
  Zn  Zn126  1  0.18569984  0.93867025  0.94003327  1
  Zn  Zn127  1  0.69246521  0.43638760  0.43292259  1
  Zn  Zn128  1  0.68614744  0.43632934  0.93911957  1
  Zn  Zn129  1  0.68972657  0.92948579  0.43273849  1
  Zn  Zn130  1  0.68917932  0.93618620  0.94063038  1
  Zn  Zn131  1  0.31293865  0.06027996  0.06307471  1
  Zn  Zn132  1  0.31480014  0.06235083  0.56504457  1
  Zn  Zn133  1  0.31220980  0.56110134  0.06324353  1
  Zn  Zn134  1  0.31184953  0.56341544  0.56098059  1
  Zn  Zn135  1  0.81188536  0.05455328  0.06203160  1
  Zn  Zn136  1  0.81094978  0.06076996  0.56488237  1
  Zn  Zn137  1  0.81401904  0.55839300  0.06564854  1
  Zn  Zn138  1  0.81362826  0.56251766  0.56021105  1
  Zn  Zn139  1  0.43133546  0.44606449  0.18783233  1
  Zn  Zn140  1  0.45053784  0.42832264  0.65929988  1
  Zn  Zn141  1  0.43565804  0.94010388  0.18677108  1
  Zn  Zn142  1  0.43665994  0.93462504  0.68995181  1
  Zn  Zn143  1  0.93703150  0.43710625  0.18768448  1
  Zn  Zn144  1  0.93647470  0.43636684  0.68701948  1
  Zn  Zn145  1  0.93444670  0.94138214  0.18625911  1
  Zn  Zn146  1  0.93513274  0.93589934  0.68828852  1
  Zn  Zn147  1  0.06260677  0.06379624  0.31295803  1
  Zn  Zn148  1  0.06471385  0.06162426  0.81485367  1
  Zn  Zn149  1  0.06324637  0.56294798  0.30505359  1
  Zn  Zn150  1  0.06382589  0.56174290  0.81032962  1
  Zn  Zn151  1  0.60830529  0.10416629  0.26478844  1
  Zn  Zn152  1  0.56571702  0.05945987  0.81646322  1
  Zn  Zn153  1  0.55631147  0.56524979  0.31266528  1
  Zn  Zn154  1  0.56556438  0.56235094  0.81228031  1
  Zn  Zn155  1  0.43351795  0.19403794  0.43730863  1
  Zn  Zn156  1  0.44130371  0.18920911  0.93646458  1
  Zn  Zn157  1  0.43280014  0.68577603  0.43258212  1
  Zn  Zn158  1  0.43751660  0.68440490  0.93682644  1
  Zn  Zn159  1  0.93672274  0.19159337  0.43839537  1
  Zn  Zn160  1  0.93747737  0.19027409  0.93864962  1
  Zn  Zn161  1  0.93865168  0.68296288  0.43315839  1
  Zn  Zn162  1  0.93657544  0.68963315  0.93315886  1
  Zn  Zn163  1  0.05956744  0.31244372  0.06614396  1
  Zn  Zn164  1  0.06231551  0.31338179  0.56081793  1
  Zn  Zn165  1  0.06427202  0.81243978  0.06501096  1
  Zn  Zn166  1  0.06217723  0.81109710  0.56276744  1
  Zn  Zn167  1  0.56443073  0.31144302  0.06266209  1
  Zn  Zn168  1  0.56229619  0.31616410  0.56393960  1
  Zn  Zn169  1  0.56995153  0.81272667  0.06492067  1
  Zn  Zn170  1  0.56452801  0.81132629  0.56122547  1
  O  O171  1  0.11824921  0.12448177  0.11787191  1
  O  O172  1  0.12346166  0.11903190  0.61967392  1
  O  O173  1  0.11193657  0.61629687  0.12392810  1
  O  O174  1  0.12425951  0.61629556  0.61603518  1
  O  O175  1  0.62046961  0.12708806  0.11307524  1
  O  O176  1  0.62172491  0.11199861  0.62849936  1
  O  O177  1  0.61722254  0.62767132  0.11438095  1
  O  O178  1  0.61637896  0.62372094  0.62323623  1
  O  O179  1  0.37328593  0.38672311  0.37558982  1
  O  O180  1  0.38125576  0.38074715  0.88071696  1
  O  O181  1  0.37264532  0.87874604  0.38860865  1
  O  O182  1  0.38049472  0.88095126  0.88250083  1
  O  O183  1  0.86778840  0.39302287  0.37311631  1
  O  O184  1  0.88342287  0.37512871  0.88276552  1
  O  O185  1  0.88154653  0.88084925  0.38031280  1
  O  O186  1  0.88998279  0.87651701  0.87758821  1
  O  O187  1  0.25016464  0.01172967  0.36976619  1
  O  O188  1  0.25874185  0.00516918  0.87696720  1
  O  O189  1  0.26278313  0.50289157  0.36938726  1
  O  O190  1  0.25491448  0.50728026  0.86895451  1
  O  O191  1  0.75757379  -0.00708706  0.36132454  1
  O  O192  1  0.75155709  0.00435951  0.86805536  1
  O  O193  1  0.75738617  0.50535278  0.36250614  1
  O  O194  1  0.74770116  0.50702754  0.86831036  1
  O  O195  1  0.23706512  0.49579333  0.12381598  1
  O  O196  1  0.24670262  0.49352355  0.63221688  1
  O  O197  1  0.24802068  0.99147989  0.13151369  1
  O  O198  1  0.24408074  0.99233114  0.62863652  1
  O  O199  1  0.75035791  0.49231547  0.13818147  1
  O  O200  1  0.74590268  0.49685169  0.62990515  1
  O  O201  1  0.75296585  0.98936635  0.13754053  1
  O  O202  1  0.74235505  0.99135249  0.63081858  1
  O  O203  1  0.00550345  0.36698212  0.23886620  1
  O  O204  1  -0.00573289  0.36134106  0.75779873  1
  O  O205  1  0.00414686  0.86887976  0.25036391  1
  O  O206  1  0.00643813  0.87010545  0.75631607  1
  O  O207  1  0.50839337  0.37471232  0.23966871  1
  O  O208  1  0.50182400  0.38454118  0.76136769  1
  O  O209  1  0.51292025  0.87612053  0.24265211  1
  O  O210  1  0.49420047  0.85920949  0.75745094  1
  O  O211  1  0.49673797  0.13594955  0.24481042  1
  O  O212  1  0.48668890  0.11724961  0.75446274  1
  O  O213  1  0.48952986  0.62920801  0.23951203  1
  O  O214  1  0.49513128  0.63605616  0.74970886  1
  O  O215  1  1.00272882  0.12540053  0.23571130  1
  O  O216  1  0.99365895  0.12969885  0.74852769  1
  O  O217  1  0.99225998  0.63384892  0.24157427  1
  O  O218  1  0.99813051  0.63412199  0.74789033  1
  O  O219  1  0.38064207  0.26413017  0.00064673  1
  O  O220  1  0.37272827  0.25342217  0.51367718  1
  O  O221  1  0.37155148  0.76124842  -0.00452599  1
  O  O222  1  0.36638346  0.75613645  0.50297003  1
  O  O223  1  0.86247582  0.25981496  -0.00629252  1
  O  O224  1  0.85912522  0.24878438  0.50065023  1
  O  O225  1  0.86101301  0.75130932  -0.00421727  1
  O  O226  1  0.87087855  0.75385111  0.50475815  1
  O  O227  1  0.12761353  0.23771576  0.49335612  1
  O  O228  1  0.11856664  0.23728277  0.99222706  1
  O  O229  1  0.12937054  0.74510754  0.49240647  1
  O  O230  1  0.13695837  0.75293379  0.99608782  1
  O  O231  1  0.63111669  0.25605765  0.49654994  1
  O  O232  1  0.63351823  0.24229666  0.99169755  1
  O  O233  1  0.63181402  0.75951265  0.48339632  1
  O  O234  1  0.63476262  0.74154061  0.99332558  1
  O  O235  1  0.49531467  0.25052856  0.13351596  1
  O  O236  1  0.48838921  0.24420812  0.63106700  1
  O  O237  1  0.50163314  0.73830944  0.12149437  1
  O  O238  1  0.50002339  0.74244042  0.63284997  1
  O  O239  1  0.99812371  0.23418437  0.12565920  1
  O  O240  1  1.00108459  0.24188742  0.63492473  1
  O  O241  1  1.00649952  0.73979707  0.13425006  1
  O  O242  1  0.99188844  0.75164292  0.63459175  1
  O  O243  1  0.01616733  0.24229024  0.37344854  1
  O  O244  1  0.00698731  0.25687536  0.86997797  1
  O  O245  1  0.00604289  0.75521171  0.36457430  1
  O  O246  1  -0.00167360  0.75692822  0.86235536  1
  O  O247  1  0.50600253  0.25343475  0.37054805  1
  O  O248  1  0.50980295  0.26159075  0.87912204  1
  O  O249  1  0.51043576  0.74994261  0.37351069  1
  O  O250  1  0.50885992  0.75240916  0.87101766  1
  O  O251  1  0.24387682  0.12405881  0.49335020  1
  O  O252  1  0.24224678  0.11997555  0.99048457  1
  O  O253  1  0.23895942  0.63920472  0.50607612  1
  O  O254  1  0.25618554  0.63905012  0.99341001  1
  O  O255  1  0.74689490  0.13783584  0.50752035  1
  O  O256  1  0.74607132  0.12887113  0.99701190  1
  O  O257  1  0.75240696  0.63999809  0.49902158  1
  O  O258  1  0.74427601  0.62844526  0.99763614  1
  O  O259  1  0.26126569  0.38113692  0.00710172  1
  O  O260  1  0.25910710  0.37278481  0.51381586  1
  O  O261  1  0.25580956  0.86653767  0.00377362  1
  O  O262  1  0.25321341  0.86499122  0.50607336  1
  O  O263  1  0.75084576  0.36702484  0.00771332  1
  O  O264  1  0.75470137  0.36861431  0.50665799  1
  O  O265  1  0.74975034  0.86641347  0.01028074  1
  O  O266  1  0.75646876  0.86498450  0.50757038  1
  O  O267  1  0.12722511  0.50122262  0.23609708  1
  O  O268  1  0.13546461  0.50674456  0.73643581  1
  O  O269  1  0.13304563  0.99275497  0.25116331  1
  O  O270  1  0.12533848  0.98790071  0.74512193  1
  O  O271  1  0.63031004  0.49385095  0.25616064  1
  O  O272  1  0.63842815  0.50194619  0.74374267  1
  O  O273  1  0.63543039  0.98721252  0.25425818  1
  O  O274  1  0.63797414  1.00108710  0.74441046  1
  O  O275  1  0.37251305  0.00829402  0.25616028  1
  O  O276  1  0.37378246  0.00202240  0.76422192  1
  O  O277  1  0.36815261  0.51340563  0.25557241  1
  O  O278  1  0.36829878  0.50747988  0.75377655  1
  O  O279  1  0.86183398  -0.00075372  0.25724894  1
  O  O280  1  0.86515733  0.00687817  0.75017372  1
  O  O281  1  0.86811530  0.50745333  0.25655579  1
  O  O282  1  0.86276003  0.50242299  0.75211142  1
  O  O283  1  0.13394713  0.35926467  0.37857483  1
  O  O284  1  0.11855398  0.36350167  0.88350752  1
  O  O285  1  0.11896287  0.86598021  0.36981521  1
  O  O286  1  0.11478039  0.87922598  0.86702856  1
  O  O287  1  0.62488196  0.37007073  0.36543646  1
  O  O288  1  0.61704224  0.36735390  0.87443979  1
  O  O289  1  0.62932300  0.86371179  0.35882601  1
  O  O290  1  0.62176358  0.86146085  0.88094780  1
  O  O291  1  0.37320504  0.12792983  0.13702304  1
  O  O292  1  0.37597094  0.13009728  0.63664111  1
  O  O293  1  0.38120230  0.62061725  0.13525620  1
  O  O294  1  0.38549823  0.63000831  0.62999877  1
  O  O295  1  0.88294925  0.12298107  0.12390813  1
  O  O296  1  0.88056052  0.12522685  0.63632488  1
  O  O297  1  0.88645919  0.61818502  0.13513057  1
  O  O298  1  0.87631782  0.63753207  0.62534215  1
  O  O299  1  0.24969311  0.26328148  0.12543744  1
  O  O300  1  0.25371088  0.25555153  0.62627172  1
  O  O301  1  0.24686463  0.75758290  0.10965677  1
  O  O302  1  0.25495965  0.75532870  0.61878514  1
  O  O303  1  0.75008415  0.25532030  0.11444611  1
  O  O304  1  0.74718707  0.25766607  0.61525375  1
  O  O305  1  0.74591191  0.75567279  0.11780733  1
  O  O306  1  0.75477975  0.75535284  0.62049576  1
  O  O307  1  0.24373370  0.23779116  0.37737831  1
  O  O308  1  0.24099158  0.24249629  0.87271507  1
  O  O309  1  0.23838562  0.75555386  0.38363795  1
  O  O310  1  0.25439319  0.74328202  0.88709278  1
  O  O311  1  0.73240660  0.25169751  0.39078600  1
  O  O312  1  0.74405442  0.24442709  0.88382732  1
  O  O313  1  0.74225618  0.74895102  0.38107522  1
  O  O314  1  0.74528493  0.74378743  0.87993118  1
  O  O315  1  0.00402729  0.11971273  0.00724277  1
  O  O316  1  0.00755554  0.12003438  0.50734952  1
  O  O317  1  -0.00743226  0.63133535  0.01368654  1
  O  O318  1  0.01354208  0.62411314  0.50183915  1
  O  O319  1  0.50801671  0.11652409  -0.00200024  1
  O  O320  1  0.49849057  0.11920765  0.50183372  1
  O  O321  1  0.50596590  0.61897195  0.00435410  1
  O  O322  1  0.49675420  0.63275790  0.51383657  1
  O  O323  1  0.48253322  0.39113762  0.55197046  1
  O  O324  1  0.49592490  0.38283324  0.99386723  1
  O  O325  1  0.48299735  0.86993125  0.50564388  1
  O  O326  1  0.49543909  0.87864761  0.99748675  1
  O  O327  1  0.99075491  0.37556933  0.50421901  1
  O  O328  1  0.98849191  0.36799295  0.99320742  1
  O  O329  1  0.99558748  0.88071981  0.49496821  1
  O  O330  1  1.00292336  0.88154056  0.99478141  1
  O  O331  1  0.47781671  0.50770296  0.36942131  1
  O  O332  1  0.49645889  0.49541468  0.88287305  1
  O  O333  1  0.51114135  1.00935177  0.38308740  1
  O  O334  1  0.49465792  0.99167095  0.88316738  1
  O  O335  1  0.98598716  0.50659950  0.37224487  1
  O  O336  1  1.00134036  0.48432600  0.86716999  1
  O  O337  1  0.99384532  0.99427425  0.37946749  1
  O  O338  1  0.99955892  0.99353424  0.88348976  1
  O  O339  1  0.00146085  0.00975548  0.11840809  1
  O  O340  1  0.00504116  0.00399237  0.61984002  1
  O  O341  1  0.00851219  0.51283504  0.12408600  1
  O  O342  1  0.01006048  0.50088165  0.62551246  1
  O  O343  1  0.49488287  0.00315758  0.11013338  1
  O  O344  1  0.51499442  -0.00469280  0.63190580  1
  O  O345  1  0.49627635  0.51011752  0.11197438  1
  O  O346  1  0.51445219  0.52197398  0.63750854  1
  O  O347  1  0.24247510  0.37880462  0.23777801  1
  O  O348  1  0.24785570  0.38881690  0.75182858  1
  O  O349  1  0.24842856  0.87735764  0.24235888  1
  O  O350  1  0.24299180  0.87393340  0.74600447  1
  O  O351  1  0.73797652  0.38188017  0.24510187  1
  O  O352  1  0.74845055  0.38176837  0.74431150  1
  O  O353  1  0.74377527  0.88001187  0.24454037  1
  O  O354  1  0.75700306  0.88259428  0.74125110  1
  O  O355  1  0.25889059  0.12169232  0.25618413  1
  O  O356  1  0.25764035  0.11942350  0.76530027  1
  O  O357  1  0.26085597  0.62884335  0.24055646  1
  O  O358  1  0.25722571  0.61988760  0.75598819  1
  O  O359  1  0.73066966  0.10631683  0.24254645  1
  O  O360  1  0.75793463  0.11814515  0.75392470  1
  O  O361  1  0.75626973  0.61957175  0.24556862  1
  O  O362  1  0.75154248  0.61926180  0.75989192  1
  O  O363  1  0.36944157  0.12336586  0.36632410  1
  O  O364  1  0.36955354  0.11901210  0.87452546  1
  O  O365  1  0.37187982  0.62206507  0.36010698  1
  O  O366  1  0.36903214  0.61951407  0.86879553  1
  O  O367  1  0.87682469  0.10973395  0.38449405  1
  O  O368  1  0.87000328  0.12338479  0.86559172  1
  O  O369  1  0.87167913  0.61897567  0.36114023  1
  O  O370  1  0.86226542  0.62187596  0.87522072  1
  O  O371  1  0.13053843  0.38651097  0.11831247  1
  O  O372  1  0.13718252  0.38145210  0.62354577  1
  O  O373  1  0.13601605  0.87803021  0.13092109  1
  O  O374  1  0.13024707  0.87983558  0.63056056  1
  O  O375  1  0.63688973  0.37042853  0.13346445  1
  O  O376  1  0.63707629  0.38617497  0.62888758  1
  O  O377  1  0.63639419  0.87039218  0.14059020  1
  O  O378  1  0.63723284  0.87940695  0.62082078  1
  O  O379  1  0.12790162  0.24848236  0.26608177  1
  O  O380  1  0.11490130  0.24206288  0.76304102  1
  O  O381  1  0.11883345  0.75416923  0.25534166  1
  O  O382  1  0.11786159  0.76210848  0.74246709  1
  O  O383  1  0.60925284  0.25787670  0.26245067  1
  O  O384  1  0.63159955  0.25064379  0.76471394  1
  O  O385  1  0.62027739  0.76079798  0.25851261  1
  O  O386  1  0.61856906  0.74512912  0.76122103  1
  O  O387  1  0.38418853  0.24504289  0.25199958  1
  O  O388  1  0.36995434  0.23696001  0.74644252  1
  O  O389  1  0.37664158  0.73868883  0.25312179  1
  O  O390  1  0.38134131  0.74289560  0.74346864  1
  O  O391  1  0.86434015  0.23913387  0.26640477  1
  O  O392  1  0.88200569  0.24037945  0.74891066  1
  O  O393  1  0.88396522  0.74308913  0.25365436  1
  O  O394  1  0.88291468  0.74903016  0.74151686  1
  O  O395  1  0.36968407  0.50396564  0.48458097  1
  O  O396  1  0.38277398  0.49310256  0.99303514  1
  O  O397  1  0.37097720  0.98527357  0.49907800  1
  O  O398  1  0.38121559  0.99222242  0.99137767  1
  O  O399  1  0.87519163  0.50589671  0.48170576  1
  O  O400  1  0.86636287  0.48389495  0.99492094  1
  O  O401  1  0.87753163  0.99253211  0.49618698  1
  O  O402  1  0.88737453  0.99592186  0.99713690  1
  O  O403  1  0.11478344  0.01113706  0.00050105  1
  O  O404  1  0.12088762  0.00911634  0.50270109  1
  O  O405  1  0.12571068  0.50316842  0.01069688  1
  O  O406  1  0.12781820  0.50700336  0.50648097  1
  O  O407  1  0.61707750  0.00892755  -0.00636189  1
  O  O408  1  0.62709294  0.00135861  0.50306180  1
  O  O409  1  0.61610408  0.50985862  -0.00538926  1
  O  O410  1  0.63409028  0.50124526  0.50936243  1
  O  O411  1  0.36495774  0.37801038  0.11689616  1
  O  O412  1  0.35753494  0.36132569  0.64677583  1
  O  O413  1  0.36345465  0.87969306  0.11675211  1
  O  O414  1  0.36850654  0.86903589  0.61854464  1
  O  O415  1  0.86029664  0.37866343  0.11799441  1
  O  O416  1  0.86148195  0.37248308  0.62580963  1
  O  O417  1  0.86261353  0.87459225  0.12506234  1
  O  O418  1  0.86736025  0.86495969  0.62029955  1
  O  O419  1  0.13220140  0.12938460  0.38274161  1
  O  O420  1  0.13222274  0.13147025  0.88195887  1
  O  O421  1  0.11996966  0.63619303  0.37981692  1
  O  O422  1  0.13909014  0.62334287  0.87075577  1
  O  O423  1  0.61539862  0.13292815  0.38090013  1
  O  O424  1  0.63129851  0.13134740  0.88199866  1
  O  O425  1  0.62700302  0.64281222  0.36590638  1
  O  O426  1  0.63464423  0.63276426  0.88392541  1
