# generated using pymatgen
data_V85Zn86O256
_symmetry_space_group_name_H-M   'P 1'
_cell_length_a   16.92718442
_cell_length_b   16.94139217
_cell_length_c   16.94060477
_cell_angle_alpha   89.95929394
_cell_angle_beta   90.08721532
_cell_angle_gamma   90.06097896
_symmetry_Int_Tables_number   1
_chemical_formula_structural   V85Zn86O256
_chemical_formula_sum   'V85 Zn86 O256'
_cell_volume   4858.04880758
_cell_formula_units_Z   1
loop_
 _symmetry_equiv_pos_site_id
 _symmetry_equiv_pos_as_xyz
  1  'x, y, z'
loop_
 _atom_site_type_symbol
 _atom_site_label
 _atom_site_symmetry_multiplicity
 _atom_site_fract_x
 _atom_site_fract_y
 _atom_site_fract_z
 _atom_site_occupancy
  V  V0  1  0.24911123  0.00726161  0.74713139  1
  V  V1  1  0.37941150  0.37486936  -0.00171937  1
  V  V2  1  0.87928267  0.50240275  0.37799370  1
  V  V3  1  0.88044067  0.13312075  0.75573190  1
  V  V4  1  0.00095510  0.37413549  0.37636824  1
  V  V5  1  0.19911135  0.07702730  0.93554149  1
  V  V6  1  0.75982747  0.37635462  0.12393192  1
  V  V7  1  0.87569540  0.63216169  0.25104863  1
  V  V8  1  0.63207460  0.62576548  0.00560503  1
  V  V9  1  0.74466237  0.36915996  0.63425384  1
  V  V10  1  0.50939319  0.49752211  0.00215202  1
  V  V11  1  0.62441028  0.25053133  0.86459025  1
  V  V12  1  0.38303243  0.13286637  0.75225173  1
  V  V13  1  0.87326985  0.37673767  0.50011154  1
  V  V14  1  0.50507903  0.12618237  0.12277591  1
  V  V15  1  0.25208371  0.62190553  0.36065875  1
  V  V16  1  0.00068423  0.74576695  0.76527063  1
  V  V17  1  0.50722601  0.62780081  0.62025781  1
  V  V18  1  -0.01222095  0.24370616  0.23935716  1
  V  V19  1  0.62812313  0.13348369  0.49694911  1
  V  V20  1  0.74864392  0.24252294  0.00760687  1
  V  V21  1  0.50944520  0.37333646  0.37616671  1
  V  V22  1  0.50771040  0.24826952  0.25449557  1
  V  V23  1  0.24733070  0.12742082  0.37413659  1
  V  V24  1  -0.00647540  0.37469164  0.87026936  1
  V  V25  1  0.50101935  0.75052455  0.75000849  1
  V  V26  1  0.74832178  0.12062346  0.88047234  1
  V  V27  1  0.24948842  0.38322088  0.13147630  1
  V  V28  1  0.75770612  0.61718810  0.86940145  1
  V  V29  1  0.76296734  -0.00323980  0.75588426  1
  V  V30  1  0.24819321  0.25409869  -0.00307765  1
  V  V31  1  0.62790322  0.00160681  0.62660160  1
  V  V32  1  0.88710175  0.74579445  0.62122096  1
  V  V33  1  0.87756691  0.87790373  -0.01168268  1
  V  V34  1  0.37500063  0.00102353  0.37545691  1
  V  V35  1  0.87327421  0.87769977  0.49850404  1
  V  V36  1  0.24789107  0.50088082  0.74811006  1
  V  V37  1  0.49996320  0.87603492  0.37377237  1
  V  V38  1  0.62818904  0.00452587  0.12077339  1
  V  V39  1  0.50895816  0.50660740  0.49701119  1
  V  V40  1  0.50272536  0.00360282  -0.00074197  1
  V  V41  1  0.37588220  0.74968118  0.62376419  1
  V  V42  1  0.12279855  0.25262862  0.87503554  1
  V  V43  1  0.50008496  0.87397871  0.87651771  1
  V  V44  1  0.25050813  0.25150645  0.49906874  1
  V  V45  1  -0.00544539  0.49878947  0.00042084  1
  V  V46  1  0.74009357  0.62429966  0.37785755  1
  V  V47  1  0.62545207  0.87405830  0.24914767  1
  V  V48  1  -0.00208331  0.87424137  0.36865531  1
  V  V49  1  0.62505386  0.37644409  0.24002585  1
  V  V50  1  0.37465467  0.50464288  0.36136517  1
  V  V51  1  0.37576665  0.12602984  0.25130957  1
  V  V52  1  0.37718993  0.37953290  0.49691941  1
  V  V53  1  -0.00290514  0.00712173  0.49912810  1
  V  V54  1  0.37743337  0.25018849  0.12349106  1
  V  V55  1  0.11129500  0.50254136  0.62076195  1
  V  V56  1  0.74947004  0.87065132  0.11902659  1
  V  V57  1  0.49083744  0.74736555  0.24961781  1
  V  V58  1  0.12058093  0.87729699  0.24269071  1
  V  V59  1  0.63168669  0.74847705  0.88138213  1
  V  V60  1  0.00051487  0.62729072  0.12911899  1
  V  V61  1  0.24933826  0.37872807  0.62204740  1
  V  V62  1  0.25092128  0.87404365  0.62152756  1
  V  V63  1  0.12301922  -0.00005688  0.62223052  1
  V  V64  1  0.75065589  0.13342869  0.36726935  1
  V  V65  1  0.24449933  0.63116398  0.87694774  1
  V  V66  1  0.50594329  0.37236690  0.85939173  1
  V  V67  1  0.50186209  0.00306561  0.50176265  1
  V  V68  1  0.36739177  0.87121118  0.00032467  1
  V  V69  1  0.62697474  0.87641181  0.75278813  1
  V  V70  1  0.37626211  0.50040469  0.87384749  1
  V  V71  1  0.24911734  0.74478122  0.49805450  1
  V  V72  1  0.87367179  0.00518214  0.36427005  1
  V  V73  1  0.62601966  0.49930368  0.63668444  1
  V  V74  1  0.86994964  0.74992558  0.12165913  1
  V  V75  1  0.00030183  0.11299948  0.11074300  1
  V  V76  1  0.49629954  0.62171631  0.12645256  1
  V  V77  1  0.10982332  0.62180562  0.50027897  1
  V  V78  1  0.24350238  0.00172912  0.24436741  1
  V  V79  1  0.37413990  0.00272036  0.87502814  1
  V  V80  1  0.74496786  0.50294543  0.24432154  1
  V  V81  1  0.75227281  0.87391873  0.62587410  1
  V  V82  1  0.11885081  0.74782633  0.36947664  1
  V  V83  1  0.12191596  0.86874815  0.75590368  1
  V  V84  1  0.74283752  0.74676598  0.50162851  1
  Zn  Zn85  1  0.12318627  0.25273161  0.37060938  1
  Zn  Zn86  1  -0.06586079  0.58392186  0.69053853  1
  Zn  Zn87  1  0.87542208  0.37347910  0.00036037  1
  Zn  Zn88  1  -0.00485201  -0.00253262  -0.00895046  1
  Zn  Zn89  1  0.74726793  0.25379907  0.49637782  1
  Zn  Zn90  1  0.12412773  0.37919216  0.25191107  1
  Zn  Zn91  1  0.00604326  0.13445687  0.63722010  1
  Zn  Zn92  1  0.24452103  0.87497426  0.12173373  1
  Zn  Zn93  1  0.75371476  0.00295259  0.24549054  1
  Zn  Zn94  1  0.88323314  0.24856583  0.62201641  1
  Zn  Zn95  1  0.11638490  0.63285400  -0.00442100  1
  Zn  Zn96  1  0.36997101  0.74761910  0.12728141  1
  Zn  Zn97  1  0.38007750  0.25468975  0.62990668  1
  Zn  Zn98  1  0.37541321  0.62673225  0.74828515  1
  Zn  Zn99  1  0.77034420  0.49930632  0.75259521  1
  Zn  Zn100  1  0.12859905  0.50696793  0.12856218  1
  Zn  Zn101  1  0.62110121  0.74751671  0.37873445  1
  Zn  Zn102  1  0.12510510  0.36662001  0.74729652  1
  Zn  Zn103  1  0.37437918  0.87609075  0.49875097  1
  Zn  Zn104  1  0.12369702  0.12904288  0.50188807  1
  Zn  Zn105  1  0.50672762  0.13450427  0.63173668  1
  Zn  Zn106  1  0.23834830  0.75255482  0.00196784  1
  Zn  Zn107  1  0.17841892  0.19512631  0.18551190  1
  Zn  Zn108  1  0.19006706  0.18796936  0.68773410  1
  Zn  Zn109  1  0.18499076  0.69372744  0.18484279  1
  Zn  Zn110  1  0.18352946  0.68360190  0.68664204  1
  Zn  Zn111  1  0.68821454  0.18907497  0.18800746  1
  Zn  Zn112  1  0.69247203  0.18447803  0.68817736  1
  Zn  Zn113  1  0.68254019  0.68890466  0.18766579  1
  Zn  Zn114  1  0.68867071  0.68695421  0.68896816  1
  Zn  Zn115  1  0.31929635  0.31310126  0.31297970  1
  Zn  Zn116  1  0.30929568  0.31498388  0.81405333  1
  Zn  Zn117  1  0.30877039  0.81460868  0.31307832  1
  Zn  Zn118  1  0.31065885  0.81637707  0.80970419  1
  Zn  Zn119  1  0.81370341  0.31403451  0.31073168  1
  Zn  Zn120  1  0.81008911  0.30977263  0.81601560  1
  Zn  Zn121  1  0.80932774  0.81316041  0.31103349  1
  Zn  Zn122  1  0.81521634  0.80195256  0.81010876  1
  Zn  Zn123  1  0.18639855  0.44279397  0.43543478  1
  Zn  Zn124  1  0.18130171  0.44082831  0.94325471  1
  Zn  Zn125  1  0.18546025  0.93733635  0.43442364  1
  Zn  Zn126  1  0.15026637  0.91465799  0.94425350  1
  Zn  Zn127  1  0.68774675  0.43904917  0.43876597  1
  Zn  Zn128  1  0.68825694  0.43525772  0.93597759  1
  Zn  Zn129  1  0.68839321  0.94089965  0.43610068  1
  Zn  Zn130  1  0.69054227  0.93631399  0.94055738  1
  Zn  Zn131  1  0.31937045  0.05928199  0.06755894  1
  Zn  Zn132  1  0.31511610  0.06613700  0.56457639  1
  Zn  Zn133  1  0.31718435  0.56306263  0.05863788  1
  Zn  Zn134  1  0.31496904  0.56435782  0.55732595  1
  Zn  Zn135  1  0.82208158  0.06419265  0.06609189  1
  Zn  Zn136  1  0.81364343  0.06564520  0.56424720  1
  Zn  Zn137  1  0.81312978  0.55949283  0.06095431  1
  Zn  Zn138  1  0.80643879  0.55938414  0.55973578  1
  Zn  Zn139  1  0.43937917  0.43709001  0.18404135  1
  Zn  Zn140  1  0.43530220  0.44088249  0.68439075  1
  Zn  Zn141  1  0.43561700  0.93716496  0.18592947  1
  Zn  Zn142  1  0.43726086  0.94000523  0.68647310  1
  Zn  Zn143  1  0.93876469  0.44212650  0.19271269  1
  Zn  Zn144  1  0.93609066  0.41733293  0.69104006  1
  Zn  Zn145  1  0.93981102  0.94099974  0.18028335  1
  Zn  Zn146  1  0.94103112  0.93395424  0.68848822  1
  Zn  Zn147  1  0.06190313  0.06678491  0.30935812  1
  Zn  Zn148  1  0.05711114  0.05002143  0.82001642  1
  Zn  Zn149  1  0.06456114  0.55844068  0.30696407  1
  Zn  Zn150  1  0.06310692  0.55562903  0.81372538  1
  Zn  Zn151  1  0.56743521  0.06152878  0.31224363  1
  Zn  Zn152  1  0.56765306  0.06387517  0.81573400  1
  Zn  Zn153  1  0.56168862  0.56173668  0.30824106  1
  Zn  Zn154  1  0.56347536  0.56530617  0.81361512  1
  Zn  Zn155  1  0.43800964  0.19045270  0.44091300  1
  Zn  Zn156  1  0.43875070  0.18744031  0.93400165  1
  Zn  Zn157  1  0.43536558  0.68660233  0.43582547  1
  Zn  Zn158  1  0.43902296  0.68552365  0.93840729  1
  Zn  Zn159  1  0.93495114  0.19193815  0.43544912  1
  Zn  Zn160  1  0.93345915  0.18998304  0.94010839  1
  Zn  Zn161  1  0.93209204  0.69023345  0.43644981  1
  Zn  Zn162  1  0.93375143  0.69119130  0.94480877  1
  Zn  Zn163  1  0.06370952  0.30891855  0.06085909  1
  Zn  Zn164  1  0.06106803  0.31228627  0.55888395  1
  Zn  Zn165  1  0.05627248  0.80316062  0.06291487  1
  Zn  Zn166  1  0.06435759  0.81685439  0.55611376  1
  Zn  Zn167  1  0.56900209  0.31046404  0.05744240  1
  Zn  Zn168  1  0.56231128  0.31307832  0.56644735  1
  Zn  Zn169  1  0.55921172  0.81166105  0.06277162  1
  Zn  Zn170  1  0.56363576  0.81683791  0.56256843  1
  O  O171  1  0.10031070  0.13441629  0.12985504  1
  O  O172  1  0.12555050  0.11248303  0.62497566  1
  O  O173  1  0.11175974  0.62819291  0.12601852  1
  O  O174  1  0.12890538  0.61498685  0.61251143  1
  O  O175  1  0.62010738  0.11345324  0.13010051  1
  O  O176  1  0.62746622  0.11776036  0.61719349  1
  O  O177  1  0.61414991  0.63117358  0.11427999  1
  O  O178  1  0.61463396  0.61910872  0.62706033  1
  O  O179  1  0.38629218  0.38392127  0.37827389  1
  O  O180  1  0.38202354  0.38365365  0.87814002  1
  O  O181  1  0.38139582  0.88286111  0.37719410  1
  O  O182  1  0.37940761  0.88273540  0.87938642  1
  O  O183  1  0.87586386  0.38473526  0.38049700  1
  O  O184  1  0.89016042  0.36948790  0.87475215  1
  O  O185  1  0.87978897  0.88186358  0.37834874  1
  O  O186  1  0.86757424  0.86525521  0.89008102  1
  O  O187  1  0.25590222  0.00809928  0.36966847  1
  O  O188  1  0.25025796  0.00959464  0.86885597  1
  O  O189  1  0.26218303  0.50976025  0.37977733  1
  O  O190  1  0.25741446  0.50352546  0.86810723  1
  O  O191  1  0.75892249  0.00717309  0.37188411  1
  O  O192  1  0.74216552  0.00845117  0.86763023  1
  O  O193  1  0.75607289  0.50767634  0.36942608  1
  O  O194  1  0.74512278  0.51190819  0.87110008  1
  O  O195  1  0.25604094  0.48589294  0.11916199  1
  O  O196  1  0.24885114  0.49590035  0.63050727  1
  O  O197  1  0.25580436  0.99895414  0.14190794  1
  O  O198  1  0.24396594  0.99555318  0.62849816  1
  O  O199  1  0.75029396  0.49265194  0.13418298  1
  O  O200  1  0.74111704  0.49187506  0.62796683  1
  O  O201  1  0.74288089  0.99502602  0.12575249  1
  O  O202  1  0.74694761  0.99363665  0.63381488  1
  O  O203  1  -0.00511762  0.36950686  0.26248753  1
  O  O204  1  0.00846060  0.37043793  0.76629526  1
  O  O205  1  0.00453431  0.88328351  0.26184515  1
  O  O206  1  0.01320370  0.86633180  0.74976507  1
  O  O207  1  0.50749495  0.36945326  0.25388306  1
  O  O208  1  0.49421120  0.37836552  0.76061288  1
  O  O209  1  0.50566657  0.87017268  0.25367407  1
  O  O210  1  0.50615231  0.87228046  0.75655881  1
  O  O211  1  0.49883623  0.13239707  0.24779413  1
  O  O212  1  0.48700092  0.11752322  0.75067617  1
  O  O213  1  0.50678734  0.63485526  0.24004179  1
  O  O214  1  0.49838267  0.63323943  0.74171581  1
  O  O215  1  0.99968697  0.14018329  0.25057166  1
  O  O216  1  0.98386611  0.11138468  0.75702500  1
  O  O217  1  0.98515852  0.62013346  0.24430832  1
  O  O218  1  1.01322535  0.64067256  0.75028641  1
  O  O219  1  0.37304676  0.25644733  0.00356100  1
  O  O220  1  0.36401550  0.26019819  0.49747858  1
  O  O221  1  0.37663161  0.76427391  -0.00371201  1
  O  O222  1  0.36631075  0.75219327  0.50509498  1
  O  O223  1  0.85352426  0.25570732  -0.00662198  1
  O  O224  1  0.86910208  0.26347024  0.49875275  1
  O  O225  1  0.87015728  0.75890622  0.01479529  1
  O  O226  1  0.86488811  0.75878922  0.50398244  1
  O  O227  1  0.13933884  0.24981990  0.49484364  1
  O  O228  1  0.13744469  0.25057994  0.99151770  1
  O  O229  1  0.13058202  0.74474125  0.49035532  1
  O  O230  1  0.12438460  0.74801470  0.99551457  1
  O  O231  1  0.62479181  0.23632573  0.49956857  1
  O  O232  1  0.64126896  0.25170697  0.98971587  1
  O  O233  1  0.63860586  0.75690897  0.49923452  1
  O  O234  1  0.61858103  0.74099459  0.99129810  1
  O  O235  1  0.49867235  0.24504103  0.12969106  1
  O  O236  1  0.49222919  0.24604238  0.61817365  1
  O  O237  1  0.49635163  0.74404442  0.13352299  1
  O  O238  1  0.49805120  0.74496818  0.62693874  1
  O  O239  1  0.99702327  0.25323243  0.13571418  1
  O  O240  1  0.99876802  0.24712392  0.62369693  1
  O  O241  1  0.98498373  0.73629532  0.12800104  1
  O  O242  1  0.98907792  0.75734660  0.61911470  1
  O  O243  1  0.00132711  0.25873917  0.36924258  1
  O  O244  1  0.01005187  0.26292208  0.88654232  1
  O  O245  1  0.00578247  0.76210304  0.38049407  1
  O  O246  1  -0.00379259  0.74798027  0.86340138  1
  O  O247  1  0.49491909  0.26077701  0.36638471  1
  O  O248  1  0.51561197  0.25642485  0.88056296  1
  O  O249  1  0.50175718  0.75669856  0.37005507  1
  O  O250  1  0.50777427  0.75439012  0.86949564  1
  O  O251  1  0.25215906  0.13418141  0.49283485  1
  O  O252  1  0.26444466  0.13424814  0.99409163  1
  O  O253  1  0.24467546  0.63602524  0.49315416  1
  O  O254  1  0.25244410  0.62448606  0.98491167  1
  O  O255  1  0.74328376  0.12640352  0.49194284  1
  O  O256  1  0.75447155  0.13307555  0.99598395  1
  O  O257  1  0.75247984  0.63465025  0.48974106  1
  O  O258  1  0.73680567  0.61741841  0.99267102  1
  O  O259  1  0.25936857  0.37050192  0.00668216  1
  O  O260  1  0.25520523  0.37155319  0.50345668  1
  O  O261  1  0.25397315  0.87507111  -0.00156649  1
  O  O262  1  0.24812326  0.86311126  0.50288652  1
  O  O263  1  0.75021812  0.36946748  0.00920137  1
  O  O264  1  0.75403560  0.37387047  0.50724770  1
  O  O265  1  0.75739336  0.87581188  0.01288158  1
  O  O266  1  0.75503118  0.87087647  0.50469772  1
  O  O267  1  0.12385007  0.49201185  0.24142579  1
  O  O268  1  0.13671099  0.49769386  0.74063996  1
  O  O269  1  0.13317303  0.99107631  0.25961513  1
  O  O270  1  0.13094444  0.98910230  0.74153427  1
  O  O271  1  0.63639638  0.49208087  0.25348585  1
  O  O272  1  0.62245405  0.50106909  0.73784917  1
  O  O273  1  0.62296791  0.98847550  0.23867167  1
  O  O274  1  0.63400600  0.99466781  0.74551639  1
  O  O275  1  0.37013556  0.00733693  0.25714378  1
  O  O276  1  0.36672843  0.00367950  0.75603746  1
  O  O277  1  0.38312650  0.49817880  0.26229440  1
  O  O278  1  0.36457861  0.50184522  0.75555106  1
  O  O279  1  0.87533147  -0.00370027  0.26167730  1
  O  O280  1  0.86598543  0.00046020  0.74951958  1
  O  O281  1  0.86206306  0.50979217  0.25739327  1
  O  O282  1  0.88312193  0.50161612  0.74318672  1
  O  O283  1  0.11348326  0.37733945  0.37677737  1
  O  O284  1  0.11933982  0.36748910  0.87556127  1
  O  O285  1  0.11592956  0.86794452  0.37014469  1
  O  O286  1  0.15003837  0.85278605  0.84935664  1
  O  O287  1  0.61418647  0.38086022  0.36551272  1
  O  O288  1  0.61955077  0.36247057  0.87482710  1
  O  O289  1  0.61886873  0.87652634  0.36547557  1
  O  O290  1  0.62144961  0.86693684  0.87356409  1
  O  O291  1  0.38442119  0.13050979  0.13322212  1
  O  O292  1  0.37834426  0.12411121  0.64072487  1
  O  O293  1  0.39088199  0.62895163  0.11662943  1
  O  O294  1  0.38654795  0.63172316  0.62493150  1
  O  O295  1  0.89713758  0.12207783  0.12824357  1
  O  O296  1  0.87497883  0.12548247  0.64170228  1
  O  O297  1  0.87396008  0.63166965  0.13238192  1
  O  O298  1  0.87173592  0.63843544  0.61371132  1
  O  O299  1  0.25725406  0.25513365  0.11489147  1
  O  O300  1  0.25362023  0.25963383  0.61690895  1
  O  O301  1  0.25475390  0.75542351  0.12126901  1
  O  O302  1  0.25415524  0.75221976  0.61750230  1
  O  O303  1  0.74412279  0.25671618  0.11452806  1
  O  O304  1  0.75002790  0.26083149  0.62212311  1
  O  O305  1  0.75452156  0.75957073  0.13145410  1
  O  O306  1  0.75632253  0.75504771  0.61977691  1
  O  O307  1  0.25134649  0.24397433  0.37948865  1
  O  O308  1  0.24661957  0.25608656  0.88961338  1
  O  O309  1  0.24253729  0.74481383  0.38164437  1
  O  O310  1  0.26159315  0.73167046  0.87114818  1
  O  O311  1  0.75086444  0.23677422  0.37354430  1
  O  O312  1  0.74081898  0.24392492  0.88237007  1
  O  O313  1  0.74807136  0.74303910  0.38290872  1
  O  O314  1  0.73625097  0.74032545  0.86952762  1
  O  O315  1  -0.00376685  0.11858984  0.00398815  1
  O  O316  1  0.00087161  0.11487478  0.49810939  1
  O  O317  1  -0.00427733  0.61840834  0.00851328  1
  O  O318  1  0.01055995  0.62888439  0.49333329  1
  O  O319  1  0.49372214  0.11074077  0.00437736  1
  O  O320  1  0.50845318  0.11450710  0.49492977  1
  O  O321  1  0.50881747  0.61678340  0.00360193  1
  O  O322  1  0.49855517  0.61918682  0.50724832  1
  O  O323  1  0.49830604  0.38248406  0.49104968  1
  O  O324  1  0.49802253  0.38151480  0.99380974  1
  O  O325  1  0.50124079  0.88811101  0.49399225  1
  O  O326  1  0.49249960  0.88432123  0.99506896  1
  O  O327  1  0.98923241  0.37379678  0.48628331  1
  O  O328  1  0.99848697  0.38136312  0.99501721  1
  O  O329  1  0.99568642  0.88771638  0.48873706  1
  O  O330  1  0.97974047  0.87239734  1.00897076  1
  O  O331  1  0.49661439  0.49668891  0.38073345  1
  O  O332  1  0.49489954  0.49348048  0.87864077  1
  O  O333  1  0.49599891  0.99605908  0.38068204  1
  O  O334  1  0.49856961  0.99411809  0.88260534  1
  O  O335  1  0.98387184  0.49580963  0.36927999  1
  O  O336  1  1.00803887  0.48416585  0.88425260  1
  O  O337  1  0.99275671  0.99799865  0.38084893  1
  O  O338  1  1.05520996  0.97277797  0.89882336  1
  O  O339  1  0.00521567  0.00668140  0.11421683  1
  O  O340  1  0.00719045  0.00142730  0.61699494  1
  O  O341  1  -0.00390661  0.51169110  0.12009029  1
  O  O342  1  0.01042456  0.49605893  0.63275117  1
  O  O343  1  0.50643243  0.00472290  0.11844805  1
  O  O344  1  0.50764427  0.00320594  0.61642385  1
  O  O345  1  0.49840795  0.50670302  0.11420599  1
  O  O346  1  0.50519116  0.50782039  0.61788322  1
  O  O347  1  0.25585993  0.36756736  0.23318161  1
  O  O348  1  0.24939035  0.38296655  0.73958630  1
  O  O349  1  0.23910986  0.88491662  0.25219805  1
  O  O350  1  0.24705119  0.88526845  0.73824185  1
  O  O351  1  0.74312141  0.38089457  0.24517202  1
  O  O352  1  0.75549188  0.37705286  0.73725667  1
  O  O353  1  0.74022416  0.87849193  0.24192555  1
  O  O354  1  0.74753850  0.87900033  0.74776005  1
  O  O355  1  0.25230753  0.12233190  0.25614158  1
  O  O356  1  0.25989981  0.11156055  0.74412763  1
  O  O357  1  0.24622449  0.63135997  0.26212208  1
  O  O358  1  0.25284892  0.61792788  0.75751687  1
  O  O359  1  0.74418774  0.12169840  0.26318124  1
  O  O360  1  0.75926774  0.11524443  0.75797081  1
  O  O361  1  0.75173015  0.61914150  0.25506558  1
  O  O362  1  0.74586963  0.62192309  0.76432464  1
  O  O363  1  0.36578748  0.12270033  0.37041785  1
  O  O364  1  0.37894041  0.11759168  0.86285147  1
  O  O365  1  0.36553128  0.61665965  0.37737063  1
  O  O366  1  0.37176899  0.61173709  0.87309258  1
  O  O367  1  0.86014181  0.11766547  0.38158244  1
  O  O368  1  0.86249043  0.12761883  0.86632841  1
  O  O369  1  0.86536391  0.62100090  0.36890284  1
  O  O370  1  0.85481511  0.63388846  0.88271452  1
  O  O371  1  0.14430883  0.37359804  0.12067257  1
  O  O372  1  0.13602164  0.38373469  0.62150139  1
  O  O373  1  0.12007154  0.86900900  0.14010582  1
  O  O374  1  0.13087564  0.88450890  0.62756743  1
  O  O375  1  0.63146924  0.37303777  0.13613948  1
  O  O376  1  0.63759561  0.38267077  0.62052728  1
  O  O377  1  0.63000123  0.88036568  0.12930709  1
  O  O378  1  0.63215793  0.88163687  0.63226948  1
  O  O379  1  0.11318685  0.26134005  0.25349196  1
  O  O380  1  0.13883711  0.24845107  0.76941940  1
  O  O381  1  0.12631869  0.75927847  0.26424321  1
  O  O382  1  0.11081900  0.76046533  0.73351384  1
  O  O383  1  0.61462510  0.25792657  0.24887298  1
  O  O384  1  0.63126059  0.24552676  0.76505202  1
  O  O385  1  0.61508410  0.76230877  0.25168494  1
  O  O386  1  0.61939611  0.75763705  0.75611084  1
  O  O387  1  0.38771417  0.24529851  0.24409678  1
  O  O388  1  0.36775113  0.23520198  0.75278680  1
  O  O389  1  0.38749807  0.75700139  0.25115520  1
  O  O390  1  0.38274724  0.75145292  0.74120853  1
  O  O391  1  0.88881430  0.25194331  0.25359821  1
  O  O392  1  0.87156281  0.23510259  0.75008062  1
  O  O393  1  0.86685414  0.73809895  0.24424943  1
  O  O394  1  0.89304355  0.75292622  0.73935327  1
  O  O395  1  0.38767245  0.49557360  0.49373274  1
  O  O396  1  0.38638027  0.49446410  0.99023800  1
  O  O397  1  0.38429480  1.00131688  0.49490183  1
  O  O398  1  0.38087031  0.99126799  0.99407736  1
  O  O399  1  0.86803973  0.48897363  0.49074200  1
  O  O400  1  0.88830977  0.49504491  1.00254119  1
  O  O401  1  0.88104487  0.99612947  0.49407523  1
  O  O402  1  0.87279531  0.98297345  0.99867583  1
  O  O403  1  0.16258099  0.01673146  0.00494478  1
  O  O404  1  0.11738535  0.00111791  0.50618419  1
  O  O405  1  0.11257645  0.50762895  0.00885061  1
  O  O406  1  0.12770388  0.51077898  0.50837087  1
  O  O407  1  0.61571823  -0.00678172  0.01059939  1
  O  O408  1  0.61980243  0.00632494  0.50645981  1
  O  O409  1  0.61452714  0.50662366  -0.00597726  1
  O  O410  1  0.61298458  0.49786342  0.50784088  1
  O  O411  1  0.36990074  0.36862368  0.11882544  1
  O  O412  1  0.36405501  0.37827199  0.61666988  1
  O  O413  1  0.37233530  0.87523346  0.11309795  1
  O  O414  1  0.36962637  0.86888447  0.62074048  1
  O  O415  1  0.86216198  0.37796769  0.12859174  1
  O  O416  1  0.86206417  0.37180870  0.61577859  1
  O  O417  1  0.86536109  0.86709745  0.12788130  1
  O  O418  1  0.86992980  0.86945294  0.61873860  1
  O  O419  1  0.13865147  0.12580173  0.37817187  1
  O  O420  1  0.12821592  0.12937187  0.88065274  1
  O  O421  1  0.12899194  0.63125854  0.37954273  1
  O  O422  1  0.14216623  0.61837399  0.87337732  1
  O  O423  1  0.64061814  0.11555072  0.38370773  1
  O  O424  1  0.63694208  0.13500681  0.87462362  1
  O  O425  1  0.63624634  0.62672171  0.37054911  1
  O  O426  1  0.62913081  0.63182237  0.88357418  1
