# generated using pymatgen
data_V85Zn86O256
_symmetry_space_group_name_H-M   'P 1'
_cell_length_a   16.92515852
_cell_length_b   16.92829445
_cell_length_c   16.92745691
_cell_angle_alpha   89.98460629
_cell_angle_beta   89.96779554
_cell_angle_gamma   90.06871798
_symmetry_Int_Tables_number   1
_chemical_formula_structural   V85Zn86O256
_chemical_formula_sum   'V85 Zn86 O256'
_cell_volume   4849.95009306
_cell_formula_units_Z   1
loop_
 _symmetry_equiv_pos_site_id
 _symmetry_equiv_pos_as_xyz
  1  'x, y, z'
loop_
 _atom_site_type_symbol
 _atom_site_label
 _atom_site_symmetry_multiplicity
 _atom_site_fract_x
 _atom_site_fract_y
 _atom_site_fract_z
 _atom_site_occupancy
  V  V0  1  0.50554049  0.49720754  -0.00526284  1
  V  V1  1  0.61325689  0.37372803  0.75389434  1
  V  V2  1  -0.00211863  0.87191510  0.88073139  1
  V  V3  1  0.25481557  0.62517942  0.86909980  1
  V  V4  1  0.62709039  -0.00709526  0.62711420  1
  V  V5  1  0.61420233  0.25481322  0.87443461  1
  V  V6  1  0.12361888  0.62051883  -0.00181035  1
  V  V7  1  0.88225824  0.62531077  0.75316525  1
  V  V8  1  0.86708978  0.61922068  0.24768347  1
  V  V9  1  0.00797572  0.12564431  0.13204641  1
  V  V10  1  0.51232491  0.13614255  0.62839770  1
  V  V11  1  0.37718507  -0.00566082  0.87359636  1
  V  V12  1  0.24885116  0.12504698  0.87428149  1
  V  V13  1  0.37775283  0.13315718  0.74888751  1
  V  V14  1  0.50589855  0.37694703  0.37255554  1
  V  V15  1  0.61292440  0.63036661  0.50444296  1
  V  V16  1  0.36899635  0.49741150  0.37308248  1
  V  V17  1  0.12209028  0.49854274  0.12178743  1
  V  V18  1  0.88167092  0.13271678  0.75269802  1
  V  V19  1  0.12017639  0.36825584  0.75077126  1
  V  V20  1  0.74647702  0.61951612  0.37697498  1
  V  V21  1  0.38123849  0.00280906  0.38274560  1
  V  V22  1  0.62526309  0.49613014  0.13893101  1
  V  V23  1  0.00164647  0.50628897  0.49749225  1
  V  V24  1  0.00739443  -0.00023863  0.00721562  1
  V  V25  1  0.48605023  0.62750706  0.64170978  1
  V  V26  1  -0.00170974  0.36650747  0.37176387  1
  V  V27  1  0.49960358  0.75536005  0.24291801  1
  V  V28  1  0.24430719  -0.00965751  0.74379925  1
  V  V29  1  0.62352938  0.76746450  0.86901658  1
  V  V30  1  0.49067680  0.76789678  0.75567180  1
  V  V31  1  0.12396429  0.50017715  0.62458138  1
  V  V32  1  0.37834301  0.25105697  0.12430222  1
  V  V33  1  0.86484892  0.75732874  0.12332117  1
  V  V34  1  0.12211488  0.10810098  0.49942799  1
  V  V35  1  -0.01609009  0.49673793  -0.00393407  1
  V  V36  1  0.00052653  0.87890002  0.37495915  1
  V  V37  1  0.62471650  0.50317328  0.62654595  1
  V  V38  1  0.51217880  0.01092460  0.49739529  1
  V  V39  1  0.38031248  0.87428348  -0.00260707  1
  V  V40  1  0.74948247  0.37394615  0.62738078  1
  V  V41  1  0.37735121  0.12450400  0.25023341  1
  V  V42  1  0.87285976  0.88026177  0.50144087  1
  V  V43  1  0.87437817  0.37319301  0.50194203  1
  V  V44  1  0.50340374  -0.00016448  -0.00278494  1
  V  V45  1  0.87987759  0.25365152  0.12721840  1
  V  V46  1  0.11899391  0.24794873  0.87590514  1
  V  V47  1  0.64211337  -0.00307080  0.12568039  1
  V  V48  1  0.12040234  0.36804088  0.24839422  1
  V  V49  1  0.37539865  0.74919439  0.12416527  1
  V  V50  1  0.75584789  0.49994444  0.75669250  1
  V  V51  1  -0.01320099  0.37461584  0.87568624  1
  V  V52  1  0.13579013  0.73698343  0.36721830  1
  V  V53  1  0.12451394  0.75433529  0.87588452  1
  V  V54  1  0.74629443  0.11952560  0.38081045  1
  V  V55  1  0.86806581  -0.00344089  0.36966612  1
  V  V56  1  0.75073443  0.37875060  0.14231522  1
  V  V57  1  0.25000391  0.12427848  0.37577092  1
  V  V58  1  0.75225616  0.12907643  0.87736824  1
  V  V59  1  0.24660743  0.88130475  0.13052269  1
  V  V60  1  0.86836065  0.49718063  0.37108259  1
  V  V61  1  0.25038834  0.37446235  0.12318442  1
  V  V62  1  0.87224925  0.75077128  0.63085891  1
  V  V63  1  0.74772782  0.74786358  0.50303097  1
  V  V64  1  0.24758373  0.50428136  0.24948608  1
  V  V65  1  0.62535266  0.74882162  0.37151283  1
  V  V66  1  0.50467753  0.12385886  0.12479201  1
  V  V67  1  0.37348901  0.62865597  0.25037771  1
  V  V68  1  0.37896184  0.37430337  -0.00612667  1
  V  V69  1  0.37351567  0.37327769  0.49908511  1
  V  V70  1  0.63208259  0.87711771  0.24627936  1
  V  V71  1  0.00317750  0.12269580  0.62606118  1
  V  V72  1  0.48121232  0.84092388  0.40865720  1
  V  V73  1  0.05691252  0.81059830  0.70206857  1
  V  V74  1  0.24818825  0.37161782  0.62559407  1
  V  V75  1  0.87430684  0.12659437  0.25117987  1
  V  V76  1  0.62642704  0.24781082  0.38368516  1
  V  V77  1  0.75357969  0.26450610  0.00008118  1
  V  V78  1  -0.00482773  0.74720682  0.25044061  1
  V  V79  1  0.51127017  0.25403166  0.24912250  1
  V  V80  1  0.37809070  0.50002833  0.86936356  1
  V  V81  1  0.24692443  0.24518547  0.50129601  1
  V  V82  1  0.25100743  0.74975251  -0.00145775  1
  V  V83  1  0.74906507  0.62553081  0.87707857  1
  V  V84  1  0.74692930  -0.00383472  0.75373501  1
  Zn  Zn85  1  0.62493572  0.62548334  -0.00166802  1
  Zn  Zn86  1  0.25165729  0.49862923  0.75045948  1
  Zn  Zn87  1  0.86758371  0.88370175  0.00627482  1
  Zn  Zn88  1  0.87702703  -0.00006985  0.87663754  1
  Zn  Zn89  1  0.74732290  0.24557072  0.50546064  1
  Zn  Zn90  1  0.74512845  0.87297248  0.63155784  1
  Zn  Zn91  1  0.25701169  0.76861969  0.51918359  1
  Zn  Zn92  1  0.12284704  -0.01320101  0.62612683  1
  Zn  Zn93  1  0.24153318  0.00461779  0.24730129  1
  Zn  Zn94  1  0.24995684  0.24813772  0.00050229  1
  Zn  Zn95  1  0.74152672  0.75669948  0.00270661  1
  Zn  Zn96  1  0.11926336  0.24385546  0.37272565  1
  Zn  Zn97  1  0.88370620  0.25285799  0.62865826  1
  Zn  Zn98  1  0.16036155  0.62122539  0.49176372  1
  Zn  Zn99  1  0.12809965  0.12135257  0.00518151  1
  Zn  Zn100  1  0.11771974  0.87906954  0.24446350  1
  Zn  Zn101  1  0.50248451  0.62278905  0.12122273  1
  Zn  Zn102  1  0.49591799  0.50208712  0.50303511  1
  Zn  Zn103  1  0.00541667  0.62817266  0.62621498  1
  Zn  Zn104  1  0.62877656  0.12806993  0.00276257  1
  Zn  Zn105  1  0.37847203  0.25166571  0.62929816  1
  Zn  Zn106  1  -0.00567166  0.62383471  0.12149692  1
  Zn  Zn107  1  0.19075732  0.18915477  0.18885422  1
  Zn  Zn108  1  0.18562248  0.18452153  0.68890132  1
  Zn  Zn109  1  0.18642280  0.68872705  0.18525036  1
  Zn  Zn110  1  0.19379221  0.68011131  0.68303535  1
  Zn  Zn111  1  0.69191467  0.18581772  0.19154066  1
  Zn  Zn112  1  0.69008577  0.18934751  0.69371182  1
  Zn  Zn113  1  0.68663725  0.68136094  0.18765015  1
  Zn  Zn114  1  0.68386741  0.68915367  0.69272263  1
  Zn  Zn115  1  0.31230531  0.31086219  0.31161707  1
  Zn  Zn116  1  0.30891474  0.31266229  0.81370288  1
  Zn  Zn117  1  0.30432794  0.82641337  0.33739374  1
  Zn  Zn118  1  0.31652570  0.81764140  0.69659864  1
  Zn  Zn119  1  0.81248777  0.30677363  0.31279570  1
  Zn  Zn120  1  0.80875536  0.31090019  0.81014454  1
  Zn  Zn121  1  0.81127386  0.80848251  0.31306165  1
  Zn  Zn122  1  0.81331888  0.81200893  0.81665312  1
  Zn  Zn123  1  0.18592013  0.43395836  0.43598635  1
  Zn  Zn124  1  0.18795234  0.43576038  0.93623566  1
  Zn  Zn125  1  0.19134631  0.93205026  0.43051836  1
  Zn  Zn126  1  0.18966926  0.93673168  0.93691586  1
  Zn  Zn127  1  0.68441093  0.43802141  0.44080222  1
  Zn  Zn128  1  0.68944680  0.43826557  0.93743011  1
  Zn  Zn129  1  0.68058357  0.93290024  0.43788380  1
  Zn  Zn130  1  0.69173003  0.93863252  0.94157513  1
  Zn  Zn131  1  0.31416428  0.06282895  0.06123313  1
  Zn  Zn132  1  0.31691938  0.05665907  0.56717410  1
  Zn  Zn133  1  0.31331798  0.56105913  0.05971721  1
  Zn  Zn134  1  0.31082551  0.56207367  0.56526276  1
  Zn  Zn135  1  0.82002292  0.06778120  0.05812923  1
  Zn  Zn136  1  0.81381492  0.06238585  0.56300309  1
  Zn  Zn137  1  0.80568730  0.56429996  0.06361461  1
  Zn  Zn138  1  0.81314572  0.56263742  0.56488139  1
  Zn  Zn139  1  0.43962222  0.43669687  0.18561466  1
  Zn  Zn140  1  0.43704184  0.43843449  0.68575620  1
  Zn  Zn141  1  0.43841525  0.93849321  0.18545634  1
  Zn  Zn142  1  0.44365881  0.95060624  0.69230498  1
  Zn  Zn143  1  0.93672105  0.43696378  0.18589895  1
  Zn  Zn144  1  0.93928386  0.43827295  0.69034570  1
  Zn  Zn145  1  0.93645827  0.94030454  0.19004398  1
  Zn  Zn146  1  0.93023989  0.94873109  0.68459286  1
  Zn  Zn147  1  0.05961350  0.05859376  0.31091073  1
  Zn  Zn148  1  0.06236498  0.05876281  0.81232045  1
  Zn  Zn149  1  0.05623315  0.55894455  0.31004543  1
  Zn  Zn150  1  0.06326530  0.55766615  0.81391716  1
  Zn  Zn151  1  0.56824275  0.06351957  0.30866223  1
  Zn  Zn152  1  0.56464854  0.06653644  0.81295824  1
  Zn  Zn153  1  0.55468175  0.56646026  0.31287068  1
  Zn  Zn154  1  0.56636687  0.56079350  0.81483606  1
  Zn  Zn155  1  0.43902384  0.18832328  0.44119081  1
  Zn  Zn156  1  0.43663992  0.18428711  0.93810437  1
  Zn  Zn157  1  0.39372696  0.66696974  0.45817239  1
  Zn  Zn158  1  0.44114586  0.68590975  0.93254943  1
  Zn  Zn159  1  0.93692670  0.18309158  0.44312853  1
  Zn  Zn160  1  0.93853782  0.18858749  0.94405752  1
  Zn  Zn161  1  0.93443219  0.68813879  0.43694877  1
  Zn  Zn162  1  0.93656101  0.68721608  0.93765499  1
  Zn  Zn163  1  0.05985069  0.31094570  0.05769312  1
  Zn  Zn164  1  0.06168479  0.30737975  0.56044236  1
  Zn  Zn165  1  0.05968240  0.80954797  0.06336218  1
  Zn  Zn166  1  0.06455639  0.80508317  0.53792528  1
  Zn  Zn167  1  0.56618859  0.31668035  0.06081977  1
  Zn  Zn168  1  0.56191203  0.31591758  0.56235344  1
  Zn  Zn169  1  0.56645726  0.81498713  0.05993749  1
  Zn  Zn170  1  0.45336481  0.81918235  0.57570722  1
  O  O171  1  0.11209992  0.13280182  0.12810324  1
  O  O172  1  0.11786710  0.12136365  0.61817159  1
  O  O173  1  0.12162379  0.62019162  0.11275435  1
  O  O174  1  0.12440685  0.61411912  0.61647887  1
  O  O175  1  0.62069657  0.11914006  0.12643066  1
  O  O176  1  0.61537282  0.12575013  0.63097576  1
  O  O177  1  0.62744143  0.60867025  0.12051643  1
  O  O178  1  0.61834503  0.62219123  0.61985330  1
  O  O179  1  0.38257704  0.37863296  0.37830247  1
  O  O180  1  0.36815105  0.38061481  0.88758591  1
  O  O181  1  0.40233472  0.89206279  0.35627882  1
  O  O182  1  0.37172211  0.89240796  0.88533878  1
  O  O183  1  0.87819055  0.37940800  0.38036701  1
  O  O184  1  0.88799546  0.37033163  0.86936381  1
  O  O185  1  0.87650991  0.87866933  0.37972022  1
  O  O186  1  0.88583230  0.87578233  0.87849918  1
  O  O187  1  0.26542797  0.00813656  0.37124827  1
  O  O188  1  0.25589774  0.00974401  0.87033520  1
  O  O189  1  0.26021743  0.49204937  0.36516070  1
  O  O190  1  0.25817783  0.50739755  0.87768139  1
  O  O191  1  0.75483809  0.00589432  0.37999583  1
  O  O192  1  0.75030997  0.01267055  0.87080435  1
  O  O193  1  0.76127000  0.50180796  0.38195699  1
  O  O194  1  0.74925076  0.50777177  0.86625066  1
  O  O195  1  0.24312233  0.49315593  0.12923114  1
  O  O196  1  0.23895431  0.49202426  0.62394293  1
  O  O197  1  0.25779601  0.98511168  0.12652735  1
  O  O198  1  0.24631185  1.00014038  0.63837099  1
  O  O199  1  0.74081126  0.48739042  0.12398221  1
  O  O200  1  0.74467100  0.49152736  0.63107138  1
  O  O201  1  0.74072679  1.00929365  0.11907141  1
  O  O202  1  0.74373720  1.00414020  0.63457597  1
  O  O203  1  0.00859898  0.38128353  0.25875097  1
  O  O204  1  0.00827045  0.37893044  0.76251091  1
  O  O205  1  -0.00369882  0.86443964  0.25663928  1
  O  O206  1  -0.00308696  0.87520235  0.75552034  1
  O  O207  1  0.49260371  0.36450617  0.25927686  1
  O  O208  1  0.51413897  0.37718263  0.74497961  1
  O  O209  1  0.50613786  0.86085289  0.24011779  1
  O  O210  1  0.50176611  0.86696670  0.75116973  1
  O  O211  1  0.49595983  0.13409176  0.24371462  1
  O  O212  1  0.49294949  0.12185523  0.73790949  1
  O  O213  1  0.49122225  0.63428705  0.24240761  1
  O  O214  1  0.50370026  0.62611114  0.74303310  1
  O  O215  1  0.98712944  0.12254626  0.24551091  1
  O  O216  1  0.99435796  0.12178596  0.74118427  1
  O  O217  1  0.98518943  0.62925097  0.24885766  1
  O  O218  1  0.98637619  0.61664726  0.74934452  1
  O  O219  1  0.37574121  0.25759668  0.00502553  1
  O  O220  1  0.36292460  0.25484064  0.50120945  1
  O  O221  1  0.37277386  0.75768149  0.00133443  1
  O  O222  1  0.42002216  0.77596156  0.47385489  1
  O  O223  1  0.86520966  0.24563949  0.01562427  1
  O  O224  1  0.87435995  0.26416465  0.50235801  1
  O  O225  1  0.87838385  0.74790959  0.01899800  1
  O  O226  1  0.86887189  0.75437167  0.51137365  1
  O  O227  1  0.13632240  0.24115348  0.49700608  1
  O  O228  1  0.12893250  0.24789059  0.98792929  1
  O  O229  1  0.13487827  0.74004421  0.48012983  1
  O  O230  1  0.12735812  0.74038691  0.99419859  1
  O  O231  1  0.62578245  0.25449197  0.48783176  1
  O  O232  1  0.63353095  0.25133815  0.99115716  1
  O  O233  1  0.62884213  0.73675063  0.49312341  1
  O  O234  1  0.62070992  0.74659524  0.98498702  1
  O  O235  1  0.49940224  0.24709992  0.13200004  1
  O  O236  1  0.49911291  0.24026271  0.62321123  1
  O  O237  1  0.49392754  0.74589961  0.12618952  1
  O  O238  1  0.50149562  0.73794463  0.64400231  1
  O  O239  1  0.98989592  0.24331685  0.12028019  1
  O  O240  1  1.00069956  0.23266895  0.62190879  1
  O  O241  1  0.99086608  0.74613528  0.13644517  1
  O  O242  1  0.99866690  0.75217896  0.63159020  1
  O  O243  1  -0.00124737  0.26290563  0.38142238  1
  O  O244  1  0.00704800  0.26193078  0.88164895  1
  O  O245  1  -0.00117662  0.75334081  0.36390304  1
  O  O246  1  0.00727927  0.76136522  0.88034072  1
  O  O247  1  0.50600859  0.25555065  0.36964475  1
  O  O248  1  0.51566357  0.24676839  0.88077536  1
  O  O249  1  0.50939224  0.74521753  0.35882358  1
  O  O250  1  0.51267190  0.74575209  0.86509536  1
  O  O251  1  0.24557454  0.12821502  0.49704177  1
  O  O252  1  0.24792712  0.12520656  0.99110788  1
  O  O253  1  0.27869452  0.64723408  0.49727770  1
  O  O254  1  0.24137117  0.62816557  0.99410647  1
  O  O255  1  0.76038300  0.13001086  0.48642287  1
  O  O256  1  0.75064507  0.13542248  0.98960370  1
  O  O257  1  0.74197820  0.62891155  0.49730558  1
  O  O258  1  0.74870682  0.63230710  0.99051271  1
  O  O259  1  0.25790918  0.37371379  0.00759920  1
  O  O260  1  0.25189195  0.36511588  0.50436836  1
  O  O261  1  0.26036874  0.87149664  0.00844790  1
  O  O262  1  0.26823940  0.85303581  0.44610827  1
  O  O263  1  0.75031902  0.36710148  0.00738045  1
  O  O264  1  0.75740038  0.37587795  0.50975955  1
  O  O265  1  0.75614111  0.86910614  -0.00196834  1
  O  O266  1  0.75501376  0.86415189  0.50096400  1
  O  O267  1  0.13055788  0.49303290  0.24447747  1
  O  O268  1  0.12562298  0.49024787  0.74031659  1
  O  O269  1  0.12941730  0.99076945  0.25788582  1
  O  O270  1  0.14006773  1.00101843  0.74914025  1
  O  O271  1  0.61801330  0.50198774  0.23780179  1
  O  O272  1  0.63553838  0.49309417  0.74605536  1
  O  O273  1  0.61816418  0.98965967  0.23772550  1
  O  O274  1  0.63637291  1.00995718  0.74287018  1
  O  O275  1  0.38170363  0.01502885  0.25577379  1
  O  O276  1  0.36834461  0.01280070  0.75902098  1
  O  O277  1  0.36770371  0.50414670  0.25214835  1
  O  O278  1  0.37234957  0.49048280  0.76564759  1
  O  O279  1  0.87324796  0.00570224  0.26265683  1
  O  O280  1  0.86595473  0.01477508  0.75434596  1
  O  O281  1  0.87804329  0.50629165  0.25984175  1
  O  O282  1  0.86361850  0.50863604  0.74309756  1
  O  O283  1  0.11475443  0.37464002  0.36686277  1
  O  O284  1  0.12129719  0.36716803  0.86751880  1
  O  O285  1  0.11282671  0.85722673  0.37212674  1
  O  O286  1  0.12071925  0.86084120  0.88033133  1
  O  O287  1  0.61195223  0.37099832  0.37852099  1
  O  O288  1  0.62920138  0.36392093  0.86902688  1
  O  O289  1  0.60611659  0.86411123  0.37158508  1
  O  O290  1  0.62623515  0.86574606  0.87495372  1
  O  O291  1  0.38208069  0.13094738  0.13157104  1
  O  O292  1  0.38491480  0.12641122  0.63413213  1
  O  O293  1  0.37469663  0.62955445  0.13366734  1
  O  O294  1  0.38733051  0.61681523  0.63394248  1
  O  O295  1  0.88097960  0.13307131  0.13427678  1
  O  O296  1  0.88652882  0.12546319  0.63048770  1
  O  O297  1  0.87296733  0.63059385  0.13397546  1
  O  O298  1  0.87974775  0.63411638  0.63094586  1
  O  O299  1  0.26001379  0.25645241  0.12410414  1
  O  O300  1  0.25066206  0.25356710  0.61779552  1
  O  O301  1  0.25750309  0.75583856  0.11831256  1
  O  O302  1  0.24791462  0.75886844  0.62988493  1
  O  O303  1  0.75205356  0.26177188  0.12131997  1
  O  O304  1  0.75071287  0.26299998  0.62519914  1
  O  O305  1  0.76182802  0.74539486  0.12617408  1
  O  O306  1  0.75573725  0.75142637  0.62194882  1
  O  O307  1  0.24861629  0.24186435  0.38228818  1
  O  O308  1  0.24245971  0.23857462  0.87603021  1
  O  O309  1  0.23207652  0.73379063  0.34386714  1
  O  O310  1  0.23891661  0.73963806  0.88424832  1
  O  O311  1  0.74139696  0.24473360  0.37850911  1
  O  O312  1  0.74586990  0.24757817  0.88389295  1
  O  O313  1  0.74414645  0.74063788  0.38238961  1
  O  O314  1  0.73681263  0.74464720  0.87191899  1
  O  O315  1  0.00386821  0.11830513  0.01134148  1
  O  O316  1  0.01114966  0.12372478  0.50879385  1
  O  O317  1  0.00705333  0.61544499  -0.00249768  1
  O  O318  1  -0.00704498  0.61072483  0.50160980  1
  O  O319  1  0.50313793  0.11923692  0.00896338  1
  O  O320  1  0.49788217  0.12290092  0.51685784  1
  O  O321  1  0.50063454  0.61064320  0.00232031  1
  O  O322  1  0.49965179  0.62476387  0.51405317  1
  O  O323  1  0.49168261  0.37856703  0.49251020  1
  O  O324  1  0.49153494  0.38521628  1.00397771  1
  O  O325  1  0.50966522  0.89451931  0.49729695  1
  O  O326  1  0.48798137  0.88408854  1.00546378  1
  O  O327  1  0.99490513  0.38419755  0.49376766  1
  O  O328  1  1.00226114  0.38286707  0.98595554  1
  O  O329  1  0.98522834  0.86572547  0.48684588  1
  O  O330  1  0.99659988  0.88084638  0.99715583  1
  O  O331  1  0.48809003  0.49200142  0.37380644  1
  O  O332  1  0.49253105  0.50213223  0.88286657  1
  O  O333  1  0.49889546  1.01609480  0.38784434  1
  O  O334  1  0.49348135  1.01042941  0.88806529  1
  O  O335  1  0.98910961  0.49090205  0.38111784  1
  O  O336  1  1.00301122  0.48517742  0.88244828  1
  O  O337  1  0.98880092  0.98450147  0.37303150  1
  O  O338  1  1.00240496  0.98657898  0.88110263  1
  O  O339  1  -0.00496631  0.01124441  0.11998661  1
  O  O340  1  0.00537403  0.01394520  0.62654286  1
  O  O341  1  0.00574860  0.49979279  0.11516995  1
  O  O342  1  0.01115958  0.49732672  0.61620109  1
  O  O343  1  0.50381689  0.00665297  0.11410555  1
  O  O344  1  0.51084850  0.01461236  0.61908851  1
  O  O345  1  0.51266257  0.49737264  0.11890169  1
  O  O346  1  0.50669915  0.51092965  0.62676897  1
  O  O347  1  0.24485859  0.38425788  0.24367277  1
  O  O348  1  0.23925557  0.37618625  0.74358397  1
  O  O349  1  0.25559190  0.87485013  0.23665624  1
  O  O350  1  0.25388796  0.89351112  0.76107428  1
  O  O351  1  0.74833804  0.37294658  0.24078854  1
  O  O352  1  0.74530357  0.38265171  0.74415626  1
  O  O353  1  0.73067106  0.87005928  0.26237003  1
  O  O354  1  0.75853974  0.89240284  0.75137539  1
  O  O355  1  0.26051946  0.12543101  0.25579908  1
  O  O356  1  0.25676681  0.11872885  0.75719738  1
  O  O357  1  0.25522331  0.61032901  0.24048305  1
  O  O358  1  0.24342624  0.61785644  0.76555757  1
  O  O359  1  0.76399534  0.12986774  0.26403484  1
  O  O360  1  0.75734499  0.12229455  0.76198960  1
  O  O361  1  0.75950397  0.62602458  0.26011267  1
  O  O362  1  0.75753711  0.61729996  0.75405940  1
  O  O363  1  0.37294721  0.12170165  0.36836190  1
  O  O364  1  0.36759535  0.11940108  0.87051461  1
  O  O365  1  0.37948495  0.61134164  0.35814954  1
  O  O366  1  0.36471645  0.61404936  0.88347175  1
  O  O367  1  0.87294774  0.11583314  0.37138032  1
  O  O368  1  0.87087480  0.12694758  0.87013030  1
  O  O369  1  0.86875091  0.61558135  0.37042905  1
  O  O370  1  0.86229876  0.63687207  0.86491247  1
  O  O371  1  0.12804268  0.37768556  0.13037907  1
  O  O372  1  0.12639104  0.37774684  0.63109562  1
  O  O373  1  0.14307832  0.86494293  0.12475516  1
  O  O374  1  0.10758875  0.86623305  0.63117621  1
  O  O375  1  0.63629575  0.38544463  0.12507505  1
  O  O376  1  0.63173115  0.38137840  0.63067972  1
  O  O377  1  0.62497331  0.88445858  0.13243137  1
  O  O378  1  0.62761643  0.89335331  0.62589242  1
  O  O379  1  0.13063974  0.26443011  0.25379124  1
  O  O380  1  0.12787419  0.25896206  0.76016778  1
  O  O381  1  0.11099071  0.74857145  0.25257733  1
  O  O382  1  0.11809171  0.74663931  0.75648243  1
  O  O383  1  0.61525642  0.24786354  0.25907090  1
  O  O384  1  0.63112095  0.25918293  0.76566911  1
  O  O385  1  0.61778359  0.75269020  0.24978076  1
  O  O386  1  0.61709518  0.74960312  0.76324464  1
  O  O387  1  0.38428036  0.24056011  0.24688332  1
  O  O388  1  0.37081931  0.23790230  0.75163425  1
  O  O389  1  0.38065688  0.74288119  0.24667559  1
  O  O390  1  0.39137462  0.75485611  0.76265379  1
  O  O391  1  0.87288501  0.24229630  0.23873279  1
  O  O392  1  0.87025920  0.23725546  0.74656182  1
  O  O393  1  0.87695419  0.74164038  0.24299657  1
  O  O394  1  0.87023679  0.74308130  0.73817872  1
  O  O395  1  0.37289563  0.49265542  0.48929180  1
  O  O396  1  0.38236534  0.49197300  0.99417651  1
  O  O397  1  0.38623360  1.00689861  0.48771606  1
  O  O398  1  0.38301445  0.99548047  0.99535865  1
  O  O399  1  0.88118189  0.49022251  0.49555077  1
  O  O400  1  0.88519646  0.50524601  1.00420755  1
  O  O401  1  0.86903205  0.98577912  0.49184793  1
  O  O402  1  0.89028747  1.00163143  0.99613101  1
  O  O403  1  0.11314886  0.00070717  -0.00310319  1
  O  O404  1  0.13467210  0.00451521  0.50203543  1
  O  O405  1  0.11989134  0.50570801  0.00291344  1
  O  O406  1  0.12058672  0.50471549  0.50242655  1
  O  O407  1  0.61788884  0.00349406  0.00602671  1
  O  O408  1  0.62049135  0.00562316  0.50853927  1
  O  O409  1  0.61783233  0.49848700  0.00569381  1
  O  O410  1  0.62070919  0.51289143  0.50624267  1
  O  O411  1  0.37126406  0.37057463  0.11614910  1
  O  O412  1  0.36784675  0.37366498  0.61840395  1
  O  O413  1  0.36782571  0.86859175  0.11825350  1
  O  O414  1  0.38033935  0.88389538  0.62888674  1
  O  O415  1  0.86135866  0.36929482  0.13057748  1
  O  O416  1  0.86941937  0.37556430  0.61938671  1
  O  O417  1  0.87615066  0.86007619  0.12985519  1
  O  O418  1  0.87251753  0.86976600  0.61814783  1
  O  O419  1  0.12886353  0.12412840  0.38330297  1
  O  O420  1  0.13029279  0.13222744  0.87442193  1
  O  O421  1  0.11673063  0.63319532  0.37470468  1
  O  O422  1  0.12762666  0.63035179  0.88280098  1
  O  O423  1  0.63525885  0.13428016  0.37042812  1
  O  O424  1  0.63411041  0.13893901  0.87613527  1
  O  O425  1  0.62584609  0.62696316  0.38233167  1
  O  O426  1  0.63842651  0.62739233  0.87514522  1
