# generated using pymatgen
data_V85Zn86O256
_symmetry_space_group_name_H-M   'P 1'
_cell_length_a   16.92524659
_cell_length_b   16.94697816
_cell_length_c   16.95304789
_cell_angle_alpha   89.95170089
_cell_angle_beta   89.99094271
_cell_angle_gamma   89.96472024
_symmetry_Int_Tables_number   1
_chemical_formula_structural   V85Zn86O256
_chemical_formula_sum   'V85 Zn86 O256'
_cell_volume   4862.67026331
_cell_formula_units_Z   1
loop_
 _symmetry_equiv_pos_site_id
 _symmetry_equiv_pos_as_xyz
  1  'x, y, z'
loop_
 _atom_site_type_symbol
 _atom_site_label
 _atom_site_symmetry_multiplicity
 _atom_site_fract_x
 _atom_site_fract_y
 _atom_site_fract_z
 _atom_site_occupancy
  V  V0  1  -0.01111002  0.50387226  0.49891662  1
  V  V1  1  0.61565360  0.74757009  0.87219381  1
  V  V2  1  0.62446109  0.49920409  0.62596889  1
  V  V3  1  0.00304157  0.48959075  -0.00338600  1
  V  V4  1  0.87382224  0.87921910  -0.00508707  1
  V  V5  1  0.37481787  0.00394369  0.35998709  1
  V  V6  1  0.25368693  0.25140751  0.49263484  1
  V  V7  1  0.37671511  0.25416491  0.62177117  1
  V  V8  1  0.62548821  0.62406662  0.00209044  1
  V  V9  1  0.37517222  0.88841087  0.50692133  1
  V  V10  1  0.75259640  -0.00174104  0.75248449  1
  V  V11  1  0.62885203  0.37721085  0.24787924  1
  V  V12  1  0.75397000  0.50182882  0.75071825  1
  V  V13  1  0.61627915  0.87276438  0.75094308  1
  V  V14  1  0.36266451  0.24788652  0.12248706  1
  V  V15  1  0.62871739  0.49625925  0.12527950  1
  V  V16  1  0.24682353  0.49453060  0.74926799  1
  V  V17  1  0.49626523  0.24636846  0.24661453  1
  V  V18  1  0.25317835  0.12229881  0.36152877  1
  V  V19  1  0.13940927  -0.00535661  0.12767528  1
  V  V20  1  0.13736598  0.87589511  0.24770597  1
  V  V21  1  0.24410716  0.74207347  0.00790096  1
  V  V22  1  0.50168302  0.12080767  0.61916932  1
  V  V23  1  0.50360035  0.88250433  0.38349965  1
  V  V24  1  -0.00165189  0.87295202  0.37142559  1
  V  V25  1  0.37510591  0.63009981  0.75445039  1
  V  V26  1  0.37282411  0.49955405  0.87700672  1
  V  V27  1  0.01361362  0.62664070  0.10987324  1
  V  V28  1  0.92434875  0.81899868  0.55631621  1
  V  V29  1  0.50074131  0.25041990  0.75121027  1
  V  V30  1  0.50207554  0.62988683  0.63328843  1
  V  V31  1  0.50134027  0.11970640  0.12729524  1
  V  V32  1  -0.00239623  0.11770398  0.13584890  1
  V  V33  1  0.12985041  0.62351639  0.49679654  1
  V  V34  1  0.00036868  -0.00206693  -0.00282395  1
  V  V35  1  0.24995677  0.13197453  0.87801569  1
  V  V36  1  -0.00628283  0.38437056  0.36826485  1
  V  V37  1  0.75453063  0.36792132  0.62423612  1
  V  V38  1  0.87502145  0.23943704  0.13174870  1
  V  V39  1  0.62300704  0.87807268  0.24540685  1
  V  V40  1  0.37254189  0.74888356  0.13370039  1
  V  V41  1  0.87932686  0.64378445  0.74632680  1
  V  V42  1  0.12491690  0.25740569  0.36434303  1
  V  V43  1  0.49946250  0.37238153  0.87997212  1
  V  V44  1  0.36818789  0.87437471  0.00654208  1
  V  V45  1  0.12351861  0.12563968  0.50184053  1
  V  V46  1  0.37614933  -0.00037711  0.87926539  1
  V  V47  1  0.74600536  0.87655353  0.12510595  1
  V  V48  1  0.87460194  0.74987491  0.12448615  1
  V  V49  1  0.12573540  0.74374984  0.87265556  1
  V  V50  1  0.74833635  0.87101554  0.62553773  1
  V  V51  1  0.12294199  0.49872821  0.62674117  1
  V  V52  1  0.75472886  0.61807090  0.37481452  1
  V  V53  1  0.25614211  0.75527311  0.50055385  1
  V  V54  1  0.12291717  0.25486178  0.87094437  1
  V  V55  1  -0.00375148  0.00664982  0.50505307  1
  V  V56  1  0.49898959  0.49583984  0.00256976  1
  V  V57  1  0.75667041  0.11958486  0.87470680  1
  V  V58  1  0.49421990  0.50188962  0.49851733  1
  V  V59  1  0.88370464  0.12782408  0.74414601  1
  V  V60  1  -0.01094875  0.37027827  0.86673475  1
  V  V61  1  -0.00100393  0.87094512  0.87020085  1
  V  V62  1  0.12809718  0.12532304  -0.00031826  1
  V  V63  1  0.49477833  0.37801919  0.37474632  1
  V  V64  1  0.76555919  0.37603203  0.12188197  1
  V  V65  1  0.75750886  0.25247595  -0.00174591  1
  V  V66  1  0.62745045  0.24964022  0.37605000  1
  V  V67  1  0.87946022  0.61130032  0.24805010  1
  V  V68  1  0.75068330  0.75545932  0.49988514  1
  V  V69  1  0.62441559  0.11441172  0.49599074  1
  V  V70  1  0.62628451  0.11611704  0.00461853  1
  V  V71  1  0.25706510  0.50181304  0.25985413  1
  V  V72  1  0.62792031  0.74945477  0.37458723  1
  V  V73  1  0.37460081  0.75677161  0.63089816  1
  V  V74  1  0.62627566  0.24773421  0.87672889  1
  V  V75  1  0.00270388  0.74701537  0.24878959  1
  V  V76  1  0.74677402  0.75040095  0.00144170  1
  V  V77  1  0.49674896  0.62367098  0.13553350  1
  V  V78  1  0.87718748  -0.00110416  0.37214260  1
  V  V79  1  0.37649126  0.12663837  0.75168217  1
  V  V80  1  0.35336860  0.37188682  0.00373042  1
  V  V81  1  0.25154213  -0.00243819  0.74250064  1
  V  V82  1  0.75816059  0.12578908  0.37014955  1
  V  V83  1  0.75206423  0.00200654  0.24395358  1
  V  V84  1  0.12898605  0.87222289  0.74762047  1
  Zn  Zn85  1  0.75785412  0.49467083  0.25564300  1
  Zn  Zn86  1  -0.08556556  0.22601755  0.61242672  1
  Zn  Zn87  1  0.12516648  0.00140280  0.62440556  1
  Zn  Zn88  1  0.37201918  0.38044699  0.49519919  1
  Zn  Zn89  1  0.75585107  0.24554477  0.50224817  1
  Zn  Zn90  1  0.75074630  0.62476147  0.87457720  1
  Zn  Zn91  1  0.24615997  0.37294948  0.62487475  1
  Zn  Zn92  1  0.49522955  0.87013387  0.87639152  1
  Zn  Zn93  1  0.16657485  0.42938739  0.15426503  1
  Zn  Zn94  1  0.13209709  0.74830550  0.37239919  1
  Zn  Zn95  1  -0.00254201  0.63562647  0.62551717  1
  Zn  Zn96  1  0.49510193  0.74492169  0.25843136  1
  Zn  Zn97  1  0.87214405  0.50146186  0.87721241  1
  Zn  Zn98  1  0.06653508  0.31566815  0.70391155  1
  Zn  Zn99  1  0.62726192  0.62631553  0.50179164  1
  Zn  Zn100  1  0.27605499  0.62417921  0.37586047  1
  Zn  Zn101  1  0.00296135  0.25371540  0.24528643  1
  Zn  Zn102  1  0.24282750  0.62098379  0.87857114  1
  Zn  Zn103  1  0.87390497  0.37015240  0.49884966  1
  Zn  Zn104  1  0.62182754  -0.00282382  0.62195059  1
  Zn  Zn105  1  0.50209623  -0.00528439  0.00670624  1
  Zn  Zn106  1  0.62615442  0.37398059  0.75181852  1
  Zn  Zn107  1  0.18486641  0.18309941  0.18606466  1
  Zn  Zn108  1  0.19041014  0.18400552  0.68448665  1
  Zn  Zn109  1  0.19197724  0.67739721  0.19364938  1
  Zn  Zn110  1  0.19035361  0.68492369  0.68674562  1
  Zn  Zn111  1  0.68609829  0.18744161  0.18724455  1
  Zn  Zn112  1  0.68618498  0.18476801  0.68920834  1
  Zn  Zn113  1  0.68702001  0.68618775  0.19098224  1
  Zn  Zn114  1  0.69002090  0.68923270  0.68946775  1
  Zn  Zn115  1  0.31074849  0.31854468  0.30308227  1
  Zn  Zn116  1  0.31119927  0.31264814  0.81401095  1
  Zn  Zn117  1  0.31706254  0.81157926  0.31979853  1
  Zn  Zn118  1  0.30909886  0.81191078  0.81779099  1
  Zn  Zn119  1  0.81801745  0.31208026  0.31100093  1
  Zn  Zn120  1  0.81554541  0.30742822  0.80522169  1
  Zn  Zn121  1  0.81667189  0.81195784  0.31157715  1
  Zn  Zn122  1  0.80603266  0.81334290  0.81745906  1
  Zn  Zn123  1  0.18681926  0.44020522  0.43076030  1
  Zn  Zn124  1  0.17777800  0.43997329  0.93442735  1
  Zn  Zn125  1  0.18918055  0.93793588  0.43458108  1
  Zn  Zn126  1  0.18995477  0.93569448  0.93577372  1
  Zn  Zn127  1  0.68335316  0.43771368  0.44118872  1
  Zn  Zn128  1  0.68917428  0.43526200  0.93750307  1
  Zn  Zn129  1  0.69255689  0.93659414  0.43611227  1
  Zn  Zn130  1  0.68590634  0.93675479  0.93457400  1
  Zn  Zn131  1  0.31421228  0.06607645  0.06416913  1
  Zn  Zn132  1  0.31160804  0.06946866  0.55997657  1
  Zn  Zn133  1  0.30923203  0.56145814  0.06893789  1
  Zn  Zn134  1  0.31273543  0.56599628  0.56560221  1
  Zn  Zn135  1  0.81377706  0.06039570  0.06080455  1
  Zn  Zn136  1  0.81095561  0.05758598  0.56051102  1
  Zn  Zn137  1  0.81910808  0.56108134  0.06174361  1
  Zn  Zn138  1  0.81156378  0.56815795  0.56748923  1
  Zn  Zn139  1  0.43298624  0.43176437  0.18431828  1
  Zn  Zn140  1  0.43648792  0.43811979  0.69000254  1
  Zn  Zn141  1  0.43766501  0.93246306  0.18808444  1
  Zn  Zn142  1  0.43712107  0.94073041  0.68966949  1
  Zn  Zn143  1  0.97021569  0.42261822  0.16481064  1
  Zn  Zn144  1  0.93297133  0.44525884  0.68400493  1
  Zn  Zn145  1  0.93858648  0.93621183  0.18683742  1
  Zn  Zn146  1  0.93999360  0.94615588  0.69522115  1
  Zn  Zn147  1  0.06911712  0.05947133  0.31484851  1
  Zn  Zn148  1  0.06417704  0.05773007  0.81583061  1
  Zn  Zn149  1  0.07020952  0.56011677  0.30955766  1
  Zn  Zn150  1  0.05636824  0.56165094  0.80958848  1
  Zn  Zn151  1  0.56371058  0.06093104  0.31080114  1
  Zn  Zn152  1  0.56402677  0.06108300  0.81321754  1
  Zn  Zn153  1  0.43949836  0.55991098  0.31558525  1
  Zn  Zn154  1  0.56258157  0.56062029  0.81348868  1
  Zn  Zn155  1  0.43927073  0.18540878  0.43446641  1
  Zn  Zn156  1  0.43700830  0.18803714  0.94431267  1
  Zn  Zn157  1  0.44672984  0.69639915  0.45006571  1
  Zn  Zn158  1  0.43525509  0.68545584  0.94491670  1
  Zn  Zn159  1  0.93813527  0.19041834  0.43188085  1
  Zn  Zn160  1  0.93805410  0.18580114  0.93657542  1
  Zn  Zn161  1  0.94233111  0.67933295  0.43002962  1
  Zn  Zn162  1  0.93444338  0.69042088  0.93188031  1
  Zn  Zn163  1  0.05919327  0.30413179  0.05083232  1
  Zn  Zn164  1  0.06836195  0.31893180  0.54181140  1
  Zn  Zn165  1  0.06527420  0.81311694  0.06313108  1
  Zn  Zn166  1  0.08652841  0.81807013  0.56203613  1
  Zn  Zn167  1  0.56553343  0.30768666  0.06295714  1
  Zn  Zn168  1  0.56596243  0.31179351  0.56036708  1
  Zn  Zn169  1  0.55662788  0.81193345  0.06370676  1
  Zn  Zn170  1  0.56064963  0.81213624  0.56343958  1
  O  O171  1  0.11768838  0.11720089  0.11668936  1
  O  O172  1  0.13508935  0.12062119  0.60597025  1
  O  O173  1  0.11132283  0.63146088  0.12354932  1
  O  O174  1  0.12119973  0.62278772  0.61420350  1
  O  O175  1  0.61688597  0.12943930  0.11546901  1
  O  O176  1  0.61968929  0.12472506  0.61443992  1
  O  O177  1  0.62031049  0.61899072  0.11963907  1
  O  O178  1  0.61916868  0.61889087  0.62779152  1
  O  O179  1  0.39216960  0.36494086  0.37566787  1
  O  O180  1  0.37925871  0.37775885  0.88564937  1
  O  O181  1  0.38335056  0.88620991  0.38360052  1
  O  O182  1  0.37592432  0.88370364  0.88189419  1
  O  O183  1  0.88827108  0.37175625  0.38019617  1
  O  O184  1  0.88522196  0.37315736  0.87094599  1
  O  O185  1  0.88919775  0.88133643  0.37160375  1
  O  O186  1  0.88347197  0.86938205  0.88350734  1
  O  O187  1  0.26537198  0.00760582  0.38035191  1
  O  O188  1  0.25975469  0.01006251  0.87028199  1
  O  O189  1  0.25679928  0.50475139  0.36957389  1
  O  O190  1  0.25251759  0.50223077  0.86833134  1
  O  O191  1  0.75905056  0.00390986  0.36718413  1
  O  O192  1  0.74625092  0.00826114  0.86639773  1
  O  O193  1  0.74319387  0.51496571  0.37721154  1
  O  O194  1  0.75009799  0.50091272  0.86550948  1
  O  O195  1  0.25288270  0.49965485  0.14050481  1
  O  O196  1  0.24311616  0.49822066  0.63079963  1
  O  O197  1  0.23862261  1.00444480  0.12365985  1
  O  O198  1  0.25424077  1.00747332  0.63962110  1
  O  O199  1  0.74768111  0.48995241  0.12296770  1
  O  O200  1  0.74202437  0.49364655  0.62959403  1
  O  O201  1  0.75550673  0.99503145  0.13733938  1
  O  O202  1  0.74618620  0.98626445  0.62900547  1
  O  O203  1  -0.00768903  0.37493038  0.26621476  1
  O  O204  1  -0.00348686  0.38438102  0.76158286  1
  O  O205  1  0.00535935  0.86582063  0.25549084  1
  O  O206  1  0.01047800  0.88386416  0.76110869  1
  O  O207  1  0.50985632  0.36637375  0.25426912  1
  O  O208  1  0.49969253  0.36863829  0.76114534  1
  O  O209  1  0.50859328  0.87385537  0.26149845  1
  O  O210  1  0.51260390  0.88077266  0.75393330  1
  O  O211  1  0.50922485  0.13803029  0.24361761  1
  O  O212  1  0.49552598  0.13168619  0.74451210  1
  O  O213  1  0.50554371  0.62418160  0.23833879  1
  O  O214  1  0.49187265  0.61845681  0.74104829  1
  O  O215  1  1.00584144  0.12238240  0.23779770  1
  O  O216  1  0.98160200  0.11069903  0.75685537  1
  O  O217  1  0.99713368  0.63008903  0.24211219  1
  O  O218  1  0.98461958  0.62745503  0.74564768  1
  O  O219  1  0.37417549  0.25849522  0.01103495  1
  O  O220  1  0.37061698  0.25045545  0.50532757  1
  O  O221  1  0.36499693  0.75575534  0.00765608  1
  O  O222  1  0.37296207  0.76353033  0.51155113  1
  O  O223  1  0.86258368  0.24083302  0.00802055  1
  O  O224  1  0.87319494  0.24891387  0.50617831  1
  O  O225  1  0.86693474  0.75910415  0.00399830  1
  O  O226  1  0.87237928  0.75290331  0.49626569  1
  O  O227  1  0.13598143  0.24286979  0.48429399  1
  O  O228  1  0.12108080  0.23629668  0.98581587  1
  O  O229  1  0.13992087  0.74431798  0.49856687  1
  O  O230  1  0.13971547  0.75795900  0.99326364  1
  O  O231  1  0.62848540  0.24352532  0.48603202  1
  O  O232  1  0.63653151  0.23871155  0.99523866  1
  O  O233  1  0.63445778  0.75094037  0.49408931  1
  O  O234  1  0.62713053  0.74162579  0.99759767  1
  O  O235  1  0.49689710  0.24177126  0.13153985  1
  O  O236  1  0.49636356  0.24381743  0.62963379  1
  O  O237  1  0.49199223  0.74016710  0.12867657  1
  O  O238  1  0.48957592  0.74110925  0.62375009  1
  O  O239  1  0.99076823  0.23395829  0.12153666  1
  O  O240  1  1.02086783  0.25446716  0.62157916  1
  O  O241  1  0.99602711  0.74267169  0.12896081  1
  O  O242  1  0.99068328  0.76250245  0.60856534  1
  O  O243  1  0.00833342  0.26038092  0.37116695  1
  O  O244  1  0.00400603  0.26191844  0.87649206  1
  O  O245  1  0.00301328  0.75596629  0.36553978  1
  O  O246  1  0.01028389  0.76347893  0.88163783  1
  O  O247  1  0.50891394  0.25334852  0.36645763  1
  O  O248  1  0.50454270  0.25323159  0.87291844  1
  O  O249  1  0.51242998  0.76202336  0.37672867  1
  O  O250  1  0.51141179  0.74825211  0.88220257  1
  O  O251  1  0.24734968  0.13647947  0.48937455  1
  O  O252  1  0.23666408  0.11823758  0.99234686  1
  O  O253  1  0.24660607  0.63317092  0.49914885  1
  O  O254  1  0.25440035  0.63857341  0.99724489  1
  O  O255  1  0.74255790  0.12482411  0.48981331  1
  O  O256  1  0.74538567  0.12726874  0.99279919  1
  O  O257  1  0.75177878  0.63803994  0.49448499  1
  O  O258  1  0.73834448  0.62823915  1.00184950  1
  O  O259  1  0.25394872  0.38005865  -0.00097422  1
  O  O260  1  0.25262920  0.36306753  0.49745907  1
  O  O261  1  0.26121685  0.86348004  -0.00465259  1
  O  O262  1  0.25902206  0.86591908  0.49751184  1
  O  O263  1  0.74616381  0.36333703  0.00902300  1
  O  O264  1  0.75042692  0.37372921  0.51145082  1
  O  O265  1  0.75515659  0.87320364  0.00432485  1
  O  O266  1  0.75093675  0.86487090  0.50705354  1
  O  O267  1  0.14547333  0.50463544  0.24963019  1
  O  O268  1  0.13159306  0.50968592  0.73607529  1
  O  O269  1  0.11982609  0.98841471  0.24008506  1
  O  O270  1  0.13554948  0.99613264  0.74951190  1
  O  O271  1  0.63231183  0.48262749  0.24234966  1
  O  O272  1  0.63468641  0.49946010  0.74220010  1
  O  O273  1  0.63598836  0.98600194  0.25742234  1
  O  O274  1  0.63457361  0.99262222  0.74837179  1
  O  O275  1  0.37317134  -0.00530782  0.26202965  1
  O  O276  1  0.37016478  0.00707890  0.75891792  1
  O  O277  1  0.37039531  0.49582559  0.25147601  1
  O  O278  1  0.36917634  0.50846212  0.75646204  1
  O  O279  1  0.86791337  -0.00587733  0.26113245  1
  O  O280  1  0.85927172  0.00719784  0.74853716  1
  O  O281  1  0.87731459  0.51072474  0.24037964  1
  O  O282  1  0.86236687  0.50694453  0.75147882  1
  O  O283  1  0.11062208  0.36679292  0.38271028  1
  O  O284  1  0.11194656  0.36465530  0.87590149  1
  O  O285  1  0.11324280  0.87390715  0.36978795  1
  O  O286  1  0.11993781  0.86798694  0.86769486  1
  O  O287  1  0.62076911  0.36717306  0.36849323  1
  O  O288  1  0.61844539  0.36578390  0.87473276  1
  O  O289  1  0.62065847  0.87041804  0.37155943  1
  O  O290  1  0.62093304  0.86664444  0.86879655  1
  O  O291  1  0.38458646  0.13996584  0.11710350  1
  O  O292  1  0.38288141  0.13645927  0.62778598  1
  O  O293  1  0.38745684  0.63515199  0.11552057  1
  O  O294  1  0.38302532  0.63203427  0.63524225  1
  O  O295  1  0.88467707  0.12719455  0.12097699  1
  O  O296  1  0.87035547  0.11990810  0.63791351  1
  O  O297  1  0.88084547  0.63475237  0.13152857  1
  O  O298  1  0.87624725  0.62752959  0.64012523  1
  O  O299  1  0.26336664  0.24447018  0.12918114  1
  O  O300  1  0.25941691  0.25052884  0.61475584  1
  O  O301  1  0.25555152  0.74287932  0.11544281  1
  O  O302  1  0.26644165  0.74494137  0.61764444  1
  O  O303  1  0.75677613  0.25280363  0.11821029  1
  O  O304  1  0.74101292  0.26490490  0.62510203  1
  O  O305  1  0.75390346  0.75558596  0.12060685  1
  O  O306  1  0.74758073  0.76219522  0.61778960  1
  O  O307  1  0.24823897  0.24567041  0.37611664  1
  O  O308  1  0.24502848  0.23819936  0.87362680  1
  O  O309  1  0.25233436  0.74549068  0.38734651  1
  O  O310  1  0.24329712  0.74527360  0.88706294  1
  O  O311  1  0.74513096  0.24157746  0.37242338  1
  O  O312  1  0.74684533  0.24435959  0.88082252  1
  O  O313  1  0.74772117  0.74952282  0.38225348  1
  O  O314  1  0.73585625  0.74853047  0.88558069  1
  O  O315  1  0.00797674  0.11414424  0.00214287  1
  O  O316  1  0.01038270  0.11670411  0.48911682  1
  O  O317  1  0.00034843  0.63312284  0.00848087  1
  O  O318  1  0.00769038  0.62006081  0.50319434  1
  O  O319  1  0.50984574  0.12388801  0.00866526  1
  O  O320  1  0.51105272  0.13210405  0.50776297  1
  O  O321  1  0.51080866  0.61761534  0.00851067  1
  O  O322  1  0.50580247  0.61866011  0.51635781  1
  O  O323  1  0.50282150  0.38250664  0.49146363  1
  O  O324  1  0.49964292  0.37789885  0.99371016  1
  O  O325  1  0.49386662  0.87526943  0.49081195  1
  O  O326  1  0.48704088  0.87704169  0.99799697  1
  O  O327  1  0.99478320  0.38830753  0.48936264  1
  O  O328  1  0.99469296  0.38441283  0.98546849  1
  O  O329  1  0.99560886  0.87488232  0.49618856  1
  O  O330  1  0.99240356  0.87897799  0.99603856  1
  O  O331  1  0.50572806  0.49077504  0.38614449  1
  O  O332  1  0.49424309  0.49211065  0.88167468  1
  O  O333  1  0.48828019  0.99571355  0.37237247  1
  O  O334  1  0.48526843  1.00338256  0.87784201  1
  O  O335  1  1.00546903  0.49135041  0.38137864  1
  O  O336  1  0.99730560  0.48878953  0.87894217  1
  O  O337  1  0.99552691  0.99253795  0.38109451  1
  O  O338  1  1.00698245  0.98737321  0.89011051  1
  O  O339  1  0.00483774  0.00246788  0.11473521  1
  O  O340  1  -0.00023170  -0.00537305  0.60829590  1
  O  O341  1  -0.00681641  0.51852230  0.10713651  1
  O  O342  1  0.00708076  0.50321452  0.61606952  1
  O  O343  1  0.49243233  0.01519515  0.12782780  1
  O  O344  1  0.50165218  0.01689779  0.63028129  1
  O  O345  1  0.50692789  0.50360626  0.12043677  1
  O  O346  1  0.50853486  0.50476812  0.62372924  1
  O  O347  1  0.24668233  0.39295714  0.25031979  1
  O  O348  1  0.25681916  0.39009982  0.74810674  1
  O  O349  1  0.23573694  0.86819824  0.26042345  1
  O  O350  1  0.24308001  0.88738342  0.76037833  1
  O  O351  1  0.74756527  0.37387803  0.24111033  1
  O  O352  1  0.74919707  0.38156335  0.73993122  1
  O  O353  1  0.74471226  0.88043057  0.24551920  1
  O  O354  1  0.74206439  0.88006703  0.74468125  1
  O  O355  1  0.24786170  0.12449756  0.26224951  1
  O  O356  1  0.25825266  0.11905742  0.75842926  1
  O  O357  1  0.25748715  0.61452684  0.25849518  1
  O  O358  1  0.25976533  0.61428847  0.75203392  1
  O  O359  1  0.74126273  0.11381777  0.25813384  1
  O  O360  1  0.75311256  0.11696803  0.75648154  1
  O  O361  1  0.75964532  0.62302670  0.25729902  1
  O  O362  1  0.75777915  0.61842539  0.75050846  1
  O  O363  1  0.37138146  0.11138012  0.37729383  1
  O  O364  1  0.36784511  0.12175180  0.87474397  1
  O  O365  1  0.38930785  0.63413493  0.38011126  1
  O  O366  1  0.37622780  0.61804205  0.86936785  1
  O  O367  1  0.86437911  0.11874610  0.37272027  1
  O  O368  1  0.86254647  0.12920461  0.86605461  1
  O  O369  1  0.86675429  0.63023405  0.36116610  1
  O  O370  1  0.87100122  0.62645648  0.86098453  1
  O  O371  1  0.07510079  0.37770754  0.13024013  1
  O  O372  1  0.12752728  0.38551113  0.62406188  1
  O  O373  1  0.12177719  0.88302091  0.13459187  1
  O  O374  1  0.12823849  0.88272157  0.64167012  1
  O  O375  1  0.63597996  0.37406941  0.13104542  1
  O  O376  1  0.63224322  0.38335050  0.62788517  1
  O  O377  1  0.63002171  0.87038884  0.13440004  1
  O  O378  1  0.63004984  0.87536148  0.63269431  1
  O  O379  1  0.12334971  0.24622364  0.26020731  1
  O  O380  1  0.13199440  0.24304000  0.76425144  1
  O  O381  1  0.11598644  0.75347806  0.24970634  1
  O  O382  1  0.13640534  0.76042728  0.75803483  1
  O  O383  1  0.62146887  0.25835876  0.25814555  1
  O  O384  1  0.61863672  0.25003191  0.75893625  1
  O  O385  1  0.62559155  0.76083720  0.25887605  1
  O  O386  1  0.62992378  0.75900941  0.76045071  1
  O  O387  1  0.38589808  0.25625112  0.23575145  1
  O  O388  1  0.37889635  0.24496125  0.74271654  1
  O  O389  1  0.37662539  0.75731155  0.23766430  1
  O  O390  1  0.36925231  0.73915369  0.74745393  1
  O  O391  1  0.87799177  0.24749762  0.23551223  1
  O  O392  1  0.87414538  0.23166982  0.74083360  1
  O  O393  1  0.88794686  0.74628315  0.24327189  1
  O  O394  1  0.86790761  0.74229258  0.75090928  1
  O  O395  1  0.39017685  0.49763589  0.51164788  1
  O  O396  1  0.37903295  0.49057722  0.99652523  1
  O  O397  1  0.37176221  0.99048236  0.50072436  1
  O  O398  1  0.37354150  0.99249816  0.99549717  1
  O  O399  1  0.88659933  0.50520966  0.50422630  1
  O  O400  1  0.89430019  0.51301085  0.99119875  1
  O  O401  1  0.88197859  1.00455269  0.48459966  1
  O  O402  1  0.88261064  0.98694677  1.00256987  1
  O  O403  1  0.11951261  0.00184723  0.00636252  1
  O  O404  1  0.11739167  0.00659583  0.49778629  1
  O  O405  1  0.10388515  0.50623788  -0.00719451  1
  O  O406  1  0.12171236  0.50728919  0.50904212  1
  O  O407  1  0.62264729  0.01166340  -0.00417019  1
  O  O408  1  0.62805917  0.01061109  0.49856165  1
  O  O409  1  0.62119206  0.50574541  0.00537837  1
  O  O410  1  0.61679374  0.50382237  0.51192923  1
  O  O411  1  0.38072910  0.35953258  0.11304923  1
  O  O412  1  0.37662751  0.36265671  0.62255239  1
  O  O413  1  0.37865124  0.86434278  0.11710326  1
  O  O414  1  0.38233146  0.86859279  0.62109080  1
  O  O415  1  0.86919512  0.36520497  0.12536715  1
  O  O416  1  0.86011767  0.37783691  0.62286315  1
  O  O417  1  0.86885883  0.86861855  0.11751917  1
  O  O418  1  0.87057975  0.87600823  0.62432652  1
  O  O419  1  0.13492783  0.12962128  0.38145427  1
  O  O420  1  0.13093730  0.12763054  0.88129051  1
  O  O421  1  0.12287151  0.62798678  0.39035647  1
  O  O422  1  0.12133815  0.64015326  0.86648760  1
  O  O423  1  0.63222902  0.13050872  0.37906095  1
  O  O424  1  0.63447679  0.13007189  0.88063472  1
  O  O425  1  0.63804863  0.64380308  0.37764288  1
  O  O426  1  0.62542695  0.62942008  0.88390564  1
