# generated using pymatgen
data_V85Zn86O256
_symmetry_space_group_name_H-M   'P 1'
_cell_length_a   16.95704044
_cell_length_b   16.94798380
_cell_length_c   16.95187671
_cell_angle_alpha   90.00406905
_cell_angle_beta   89.85964825
_cell_angle_gamma   90.10404958
_symmetry_Int_Tables_number   1
_chemical_formula_structural   V85Zn86O256
_chemical_formula_sum   'V85 Zn86 O256'
_cell_volume   4871.73729487
_cell_formula_units_Z   1
loop_
 _symmetry_equiv_pos_site_id
 _symmetry_equiv_pos_as_xyz
  1  'x, y, z'
loop_
 _atom_site_type_symbol
 _atom_site_label
 _atom_site_symmetry_multiplicity
 _atom_site_fract_x
 _atom_site_fract_y
 _atom_site_fract_z
 _atom_site_occupancy
  V  V0  1  0.67610644  0.31198212  0.31242945  1
  V  V1  1  0.62390359  0.13401790  0.49881538  1
  V  V2  1  0.62112558  0.74703615  0.87635981  1
  V  V3  1  0.37475343  0.00653247  0.37102442  1
  V  V4  1  0.24977170  0.75366762  0.50737683  1
  V  V5  1  0.75164650  0.87220291  0.12436800  1
  V  V6  1  0.61768215  0.25260033  0.87713585  1
  V  V7  1  0.11912981  0.49958487  0.62886001  1
  V  V8  1  0.87325991  -0.00265987  0.87602840  1
  V  V9  1  0.12553286  0.62204974  0.00491062  1
  V  V10  1  0.24961437  0.50177476  0.24541396  1
  V  V11  1  0.13412137  0.11764358  -0.00836409  1
  V  V12  1  0.88661307  0.50947403  0.36682145  1
  V  V13  1  0.11733925  0.26494595  0.36681977  1
  V  V14  1  0.25919578  0.75425589  0.00094926  1
  V  V15  1  0.12537471  -0.00183850  0.62336065  1
  V  V16  1  0.87725389  0.25171008  0.62198050  1
  V  V17  1  0.13922366  0.88061868  0.74640450  1
  V  V18  1  0.87540531  0.12559793  0.74886494  1
  V  V19  1  0.11696639  0.62804127  0.50955374  1
  V  V20  1  0.24990740  0.12873123  0.36871968  1
  V  V21  1  0.87388670  0.74380120  0.13364825  1
  V  V22  1  0.75018737  0.37203126  0.62175549  1
  V  V23  1  0.48964034  0.37694264  0.87235474  1
  V  V24  1  0.08299886  0.44266419  0.17849841  1
  V  V25  1  0.49494755  0.24679336  0.25511529  1
  V  V26  1  0.62249802  0.86778216  0.25380738  1
  V  V27  1  0.00267669  0.75078418  0.74360442  1
  V  V28  1  0.74984232  0.87477314  0.62345108  1
  V  V29  1  0.74582550  0.12408541  0.37103785  1
  V  V30  1  0.88534968  0.38019586  0.49529602  1
  V  V31  1  0.50292592  0.62673116  0.62001069  1
  V  V32  1  0.49898062  0.37552887  0.36801594  1
  V  V33  1  0.61857350  0.74310143  0.38028277  1
  V  V34  1  0.62432474  -0.00458516  0.12906904  1
  V  V35  1  0.50184695  0.00622165  0.50628513  1
  V  V36  1  0.37376608  0.24408687  0.12993073  1
  V  V37  1  0.00081684  0.87301217  0.87335784  1
  V  V38  1  0.74769687  0.62178702  0.87664587  1
  V  V39  1  0.49459720  0.11962304  0.12974210  1
  V  V40  1  0.74563645  0.74253204  0.50031975  1
  V  V41  1  0.88142186  0.62480021  0.74962518  1
  V  V42  1  0.50663976  0.50264961  -0.00124238  1
  V  V43  1  0.87735062  0.74462536  0.62241276  1
  V  V44  1  0.62297208  0.12309765  0.00352933  1
  V  V45  1  0.37241021  0.87999872  0.50873456  1
  V  V46  1  0.37625602  0.50113169  0.37421867  1
  V  V47  1  0.00245264  0.13573802  0.12036971  1
  V  V48  1  0.00174894  -0.00343768  0.00184237  1
  V  V49  1  0.37822095  0.37961827  0.00271345  1
  V  V50  1  0.37824038  0.63727114  0.24835404  1
  V  V51  1  0.49734641  -0.02092768  0.00135311  1
  V  V52  1  0.49700587  0.87299808  0.37364126  1
  V  V53  1  -0.00427087  0.62267220  0.12844633  1
  V  V54  1  0.74971008  0.25342741  0.01146351  1
  V  V55  1  0.74579731  0.12534158  0.87673086  1
  V  V56  1  0.88363965  0.00367675  0.37786904  1
  V  V57  1  0.61839220  0.87205909  0.75276370  1
  V  V58  1  0.74739729  -0.00111106  0.75086503  1
  V  V59  1  0.50969085  0.62840551  0.12788764  1
  V  V60  1  0.00563117  0.49405477  -0.00754052  1
  V  V61  1  0.74994679  0.50108717  0.74759705  1
  V  V62  1  0.24614041  0.37377567  0.62991483  1
  V  V63  1  0.87928063  0.48453881  0.86938279  1
  V  V64  1  0.12484768  0.74804052  0.87516764  1
  V  V65  1  0.63001747  0.48294580  0.12885745  1
  V  V66  1  0.25076493  0.62744699  0.38039181  1
  V  V67  1  0.24962818  0.25189046  0.49933414  1
  V  V68  1  0.75174529  -0.00126177  0.25041287  1
  V  V69  1  0.24878141  0.87229699  0.12847626  1
  V  V70  1  0.25490912  0.61452088  0.87733158  1
  V  V71  1  0.24915312  0.37401526  0.12989397  1
  V  V72  1  0.24042233  -0.00621883  0.25397504  1
  V  V73  1  0.75103545  0.62674697  0.36556784  1
  V  V74  1  0.88114409  0.88029476  0.49812541  1
  V  V75  1  0.88004940  0.13185563  0.24190230  1
  V  V76  1  0.61978004  0.37322413  0.74944088  1
  V  V77  1  0.75069957  0.74406332  -0.00089918  1
  V  V78  1  0.37677646  0.61513317  0.75289000  1
  V  V79  1  0.25478469  0.24362145  -0.00480779  1
  V  V80  1  0.37509925  0.75259634  0.62999383  1
  V  V81  1  0.39306018  0.25276737  0.62890094  1
  V  V82  1  0.11375236  0.12375234  0.49681041  1
  V  V83  1  0.62437461  0.50451044  0.61839599  1
  V  V84  1  0.86927703  0.37084220  0.01105005  1
  Zn  Zn85  1  -0.00800654  0.11880638  0.61813195  1
  Zn  Zn86  1  0.00578764  0.76006059  0.24880952  1
  Zn  Zn87  1  0.01239285  0.88061781  0.36768029  1
  Zn  Zn88  1  0.00664229  0.26657384  0.23881434  1
  Zn  Zn89  1  -0.01068714  0.26698177  0.76790100  1
  Zn  Zn90  1  0.10092360  0.38251973  0.77697085  1
  Zn  Zn91  1  0.49517636  0.75195767  0.75825880  1
  Zn  Zn92  1  0.29642516  0.07708792  0.79477414  1
  Zn  Zn93  1  0.00284845  0.50438982  0.49692955  1
  Zn  Zn94  1  0.12239312  0.24554588  0.86651875  1
  Zn  Zn95  1  0.74850830  0.25592595  0.49280709  1
  Zn  Zn96  1  0.74601445  0.49729053  0.24853003  1
  Zn  Zn97  1  0.87638481  0.87141783  -0.00000811  1
  Zn  Zn98  1  0.38325605  0.75628571  0.12309351  1
  Zn  Zn99  1  0.62339264  0.00258106  0.62439992  1
  Zn  Zn100  1  0.37260292  -0.01477505  0.88953593  1
  Zn  Zn101  1  0.12549654  0.75997527  0.37014411  1
  Zn  Zn102  1  0.25160482  0.49087946  0.75569701  1
  Zn  Zn103  1  0.12111117  -0.00847050  0.13045821  1
  Zn  Zn104  1  0.50409535  0.50450624  0.49406874  1
  Zn  Zn105  1  0.37497789  0.37815797  0.49827262  1
  Zn  Zn106  1  0.44883044  0.09349853  0.68626518  1
  Zn  Zn107  1  0.18476223  0.18279167  0.18579726  1
  Zn  Zn108  1  0.17045489  0.19418069  0.68214796  1
  Zn  Zn109  1  0.18760446  0.68782314  0.18566221  1
  Zn  Zn110  1  0.19158818  0.68631804  0.69008436  1
  Zn  Zn111  1  0.68704901  0.18132616  0.18439588  1
  Zn  Zn112  1  0.64282117  0.16863584  0.70331958  1
  Zn  Zn113  1  0.68369953  0.68808535  0.18845258  1
  Zn  Zn114  1  0.68839645  0.68678178  0.68956486  1
  Zn  Zn115  1  0.31075679  0.31334645  0.31093608  1
  Zn  Zn116  1  0.29034413  0.26809591  0.78515631  1
  Zn  Zn117  1  0.30932106  0.81625077  0.31712482  1
  Zn  Zn118  1  0.31304374  0.80788731  0.82105585  1
  Zn  Zn119  1  0.84051559  0.31966627  0.30877219  1
  Zn  Zn120  1  0.80456497  0.30900822  0.81121864  1
  Zn  Zn121  1  0.81581438  0.81364146  0.31404677  1
  Zn  Zn122  1  0.81160869  0.81175717  0.81220648  1
  Zn  Zn123  1  0.18796014  0.44082743  0.44066848  1
  Zn  Zn124  1  0.19178939  0.43277204  0.94102166  1
  Zn  Zn125  1  0.18803173  0.94181356  0.44418854  1
  Zn  Zn126  1  0.19245529  0.93795374  0.93327372  1
  Zn  Zn127  1  0.69478052  0.44649698  0.44132834  1
  Zn  Zn128  1  0.68586214  0.43864889  0.93944488  1
  Zn  Zn129  1  0.68925395  0.93697930  0.43813835  1
  Zn  Zn130  1  0.68357064  0.93295706  0.93919245  1
  Zn  Zn131  1  0.31499060  0.05637059  0.06511239  1
  Zn  Zn132  1  0.30971333  0.06700780  0.57041845  1
  Zn  Zn133  1  0.31658895  0.56298465  0.06452892  1
  Zn  Zn134  1  0.31212244  0.56136917  0.56591030  1
  Zn  Zn135  1  0.81416315  0.06241462  0.06250524  1
  Zn  Zn136  1  0.80576514  0.06541377  0.56003791  1
  Zn  Zn137  1  0.81028231  0.55841270  0.05860000  1
  Zn  Zn138  1  0.81358087  0.56384812  0.55851129  1
  Zn  Zn139  1  0.43950834  0.43919725  0.18867680  1
  Zn  Zn140  1  0.43674349  0.43437723  0.68460794  1
  Zn  Zn141  1  0.43157520  0.93432335  0.19045570  1
  Zn  Zn142  1  0.40358354  0.92127049  0.72749602  1
  Zn  Zn143  1  0.92029772  0.44543475  0.18207389  1
  Zn  Zn144  1  0.93898538  0.43967661  0.68169105  1
  Zn  Zn145  1  0.93613044  0.93733757  0.18731155  1
  Zn  Zn146  1  0.94152536  0.93803820  0.68398612  1
  Zn  Zn147  1  0.06274573  0.06818764  0.31201169  1
  Zn  Zn148  1  0.06327737  0.06217730  0.81035934  1
  Zn  Zn149  1  0.07097993  0.59622028  0.30608856  1
  Zn  Zn150  1  0.06428282  0.56219703  0.81207222  1
  Zn  Zn151  1  0.56163915  0.06128661  0.31489953  1
  Zn  Zn152  1  0.55132703  0.06009331  0.82362971  1
  Zn  Zn153  1  0.56505192  0.56300337  0.30689545  1
  Zn  Zn154  1  0.56159357  0.56067346  0.80944897  1
  Zn  Zn155  1  0.43461218  0.18885784  0.44095185  1
  Zn  Zn156  1  0.43283836  0.17823915  0.93326951  1
  Zn  Zn157  1  0.43600994  0.68876851  0.44171608  1
  Zn  Zn158  1  0.43814786  0.68119238  0.94003050  1
  Zn  Zn159  1  0.93632161  0.19417916  0.43084072  1
  Zn  Zn160  1  0.93406382  0.18434453  0.93969959  1
  Zn  Zn161  1  0.93796549  0.69222117  0.43356878  1
  Zn  Zn162  1  0.93562677  0.68290644  0.93750806  1
  Zn  Zn163  1  0.06233386  0.30925567  0.02994579  1
  Zn  Zn164  1  0.06310367  0.31150779  0.56374759  1
  Zn  Zn165  1  0.06639118  0.81102483  0.06470800  1
  Zn  Zn166  1  0.06381837  0.81817631  0.55978065  1
  Zn  Zn167  1  0.55966409  0.30945994  0.06349982  1
  Zn  Zn168  1  0.56768093  0.31991984  0.54949804  1
  Zn  Zn169  1  0.57128566  0.80334074  0.06369840  1
  Zn  Zn170  1  0.55990724  0.81503184  0.56381085  1
  O  O171  1  0.11687989  0.11608246  0.11608812  1
  O  O172  1  0.11461904  0.12202553  0.61359999  1
  O  O173  1  0.11622381  0.62749904  0.10966346  1
  O  O174  1  0.13590466  0.61436809  0.61901318  1
  O  O175  1  0.61773450  0.11428599  0.12243047  1
  O  O176  1  0.64375172  0.11844603  0.60165205  1
  O  O177  1  0.61203423  0.62015196  0.12826202  1
  O  O178  1  0.61679678  0.61605344  0.63402989  1
  O  O179  1  0.38162639  0.38499922  0.37158941  1
  O  O180  1  0.38861377  0.36998595  0.88659771  1
  O  O181  1  0.38161922  0.88144604  0.38566865  1
  O  O182  1  0.39098481  0.88421263  0.83542775  1
  O  O183  1  0.87525602  0.39590034  0.38282518  1
  O  O184  1  0.86412085  0.38394614  0.87920190  1
  O  O185  1  0.87046818  0.88754225  0.38367860  1
  O  O186  1  0.88195128  0.87996404  0.87511408  1
  O  O187  1  0.25566214  0.00831564  0.37227779  1
  O  O188  1  0.25970665  -0.00335705  0.86966311  1
  O  O189  1  0.25664276  0.50556220  0.36592811  1
  O  O190  1  0.25035405  0.51083852  0.87812088  1
  O  O191  1  0.75626247  0.00839979  0.36830642  1
  O  O192  1  0.75254085  0.00235887  0.87004672  1
  O  O193  1  0.75568263  0.51269462  0.37301581  1
  O  O194  1  0.75568603  0.50522935  0.86861780  1
  O  O195  1  0.25424261  0.49374778  0.13709798  1
  O  O196  1  0.24297564  0.48984131  0.62624364  1
  O  O197  1  0.25054734  0.99103096  0.13748519  1
  O  O198  1  0.22596167  1.01008342  0.62079353  1
  O  O199  1  0.73457538  0.50369666  0.12581519  1
  O  O200  1  0.74515963  0.49385778  0.62731656  1
  O  O201  1  0.74518431  0.99315244  0.13069593  1
  O  O202  1  0.75003577  0.99068739  0.63288588  1
  O  O203  1  0.00843446  0.38502502  0.22901952  1
  O  O204  1  -0.01325474  0.38212301  0.76100424  1
  O  O205  1  -0.00430676  0.87378771  0.25327727  1
  O  O206  1  0.00395240  0.86611151  0.75597075  1
  O  O207  1  0.49913478  0.36678805  0.25916614  1
  O  O208  1  0.50874511  0.38307740  0.75952346  1
  O  O209  1  0.50655860  0.88048695  0.26518046  1
  O  O210  1  0.51795764  0.87146345  0.73713788  1
  O  O211  1  0.50620254  0.13155692  0.24039434  1
  O  O212  1  0.54022574  0.12598536  0.73741223  1
  O  O213  1  0.49247598  0.62015498  0.23657617  1
  O  O214  1  0.49265830  0.62561600  0.74153275  1
  O  O215  1  0.99501869  0.12339381  0.23621947  1
  O  O216  1  0.97944203  0.12010839  0.74974705  1
  O  O217  1  0.98834210  0.61504421  0.22878887  1
  O  O218  1  0.98856313  0.63296539  0.75411925  1
  O  O219  1  0.37570364  0.25519477  0.01262537  1
  O  O220  1  0.36018695  0.25716513  0.49708469  1
  O  O221  1  0.36264072  0.74373392  0.00112643  1
  O  O222  1  0.37017122  0.75912822  0.50848743  1
  O  O223  1  0.86555535  0.26299198  -0.00476153  1
  O  O224  1  0.87060247  0.26054870  0.50235581  1
  O  O225  1  0.86438075  0.75042358  0.00334840  1
  O  O226  1  0.86709640  0.75601015  0.50739444  1
  O  O227  1  0.13179109  0.24671661  0.48962081  1
  O  O228  1  0.14050194  0.23398101  1.00230442  1
  O  O229  1  0.13596138  0.74387147  0.50790284  1
  O  O230  1  0.13054445  0.74011708  0.99289432  1
  O  O231  1  0.63072591  0.24235900  0.49456987  1
  O  O232  1  0.63022352  0.24578288  0.99596406  1
  O  O233  1  0.63345060  0.75856125  0.49148982  1
  O  O234  1  0.64079261  0.74873291  0.99133606  1
  O  O235  1  0.49404753  0.24211198  0.13518321  1
  O  O236  1  0.49105440  0.26216111  0.61155375  1
  O  O237  1  0.50051749  0.73325513  0.12050819  1
  O  O238  1  0.49441598  0.74228099  0.62763150  1
  O  O239  1  1.00817016  0.23813803  0.11748533  1
  O  O240  1  0.98302761  0.24902984  0.62369564  1
  O  O241  1  0.99090282  0.74071149  0.12321202  1
  O  O242  1  0.99182569  0.75665278  0.63550737  1
  O  O243  1  0.01320263  0.25454069  0.36780299  1
  O  O244  1  0.00561678  0.23923624  0.87824030  1
  O  O245  1  0.00240006  0.75519214  0.36958076  1
  O  O246  1  0.00350867  0.75195794  0.86568544  1
  O  O247  1  0.49289697  0.25601504  0.36218929  1
  O  O248  1  0.51219628  0.25896953  0.88601854  1
  O  O249  1  0.50703499  0.75962247  0.38380804  1
  O  O250  1  0.51707571  0.73846434  0.87773050  1
  O  O251  1  0.23935626  0.13482601  0.49003463  1
  O  O252  1  0.24499066  0.12971176  1.00959390  1
  O  O253  1  0.25115442  0.63385145  0.49527165  1
  O  O254  1  0.24379292  0.62752743  0.99707371  1
  O  O255  1  0.74738540  0.13258469  0.48450918  1
  O  O256  1  0.74376578  0.12960617  0.99597528  1
  O  O257  1  0.75042496  0.63844211  0.49396746  1
  O  O258  1  0.75416867  0.62989655  0.98687271  1
  O  O259  1  0.26225885  0.37014183  0.01393234  1
  O  O260  1  0.25056656  0.36912137  0.50736396  1
  O  O261  1  0.24491976  0.86186450  0.00807148  1
  O  O262  1  0.26572577  0.86973240  0.50127510  1
  O  O263  1  0.75956766  0.36762038  -0.00523248  1
  O  O264  1  0.76037540  0.37693189  0.50609580  1
  O  O265  1  0.75035223  0.86544436  0.00829276  1
  O  O266  1  0.75668792  0.86686668  0.50703190  1
  O  O267  1  0.13239238  0.50728412  0.24811885  1
  O  O268  1  0.13006940  0.49571587  0.74477328  1
  O  O269  1  0.13727195  1.00485605  0.25116060  1
  O  O270  1  0.12139291  0.99174894  0.73962381  1
  O  O271  1  0.62730380  0.49864170  0.23514107  1
  O  O272  1  0.63065434  0.49046175  0.74124112  1
  O  O273  1  0.63075858  0.98864081  0.24883796  1
  O  O274  1  0.63751009  0.98901319  0.75196511  1
  O  O275  1  0.36611985  -0.00398330  0.26685790  1
  O  O276  1  0.36392697  0.02441711  0.71091712  1
  O  O277  1  0.36913921  0.50799582  0.25817891  1
  O  O278  1  0.37113590  0.51109238  0.74315060  1
  O  O279  1  0.86857163  0.01189262  0.25618352  1
  O  O280  1  0.86372211  0.00351398  0.75357262  1
  O  O281  1  0.86457060  0.49915546  0.26360839  1
  O  O282  1  0.86995109  0.50886679  0.75279989  1
  O  O283  1  0.13050711  0.36297692  0.37637141  1
  O  O284  1  0.12758001  0.36206758  0.88782550  1
  O  O285  1  0.12517828  0.87151345  0.38822858  1
  O  O286  1  0.11861386  0.86741795  0.86598427  1
  O  O287  1  0.62285702  0.37536100  0.37478129  1
  O  O288  1  0.61883983  0.37061176  0.86853354  1
  O  O289  1  0.61832403  0.86782421  0.37153887  1
  O  O290  1  0.63381471  0.86030878  0.86470979  1
  O  O291  1  0.38343642  0.13163645  0.12477378  1
  O  O292  1  0.38132530  0.14897310  0.60669126  1
  O  O293  1  0.38455774  0.62660692  0.13457415  1
  O  O294  1  0.38157470  0.63231369  0.63109932  1
  O  O295  1  0.88619669  0.12066279  0.13158582  1
  O  O296  1  0.86955814  0.13425999  0.63008670  1
  O  O297  1  0.88306216  0.63187995  0.11137272  1
  O  O298  1  0.87035346  0.63729020  0.63124997  1
  O  O299  1  0.25725210  0.25509457  0.12288568  1
  O  O300  1  0.25117409  0.25805994  0.61283595  1
  O  O301  1  0.25128715  0.75329671  0.11774989  1
  O  O302  1  0.26056146  0.74423484  0.61501968  1
  O  O303  1  0.74525579  0.24532342  0.11088241  1
  O  O304  1  0.75926036  0.26625469  0.62334518  1
  O  O305  1  0.75437970  0.74929463  0.11730777  1
  O  O306  1  0.75580422  0.75515816  0.61926141  1
  O  O307  1  0.24274694  0.24573710  0.37737729  1
  O  O308  1  0.25927968  0.25678235  0.89594319  1
  O  O309  1  0.25175238  0.74258368  0.38861276  1
  O  O310  1  0.24449177  0.74001051  0.88422410  1
  O  O311  1  0.74602350  0.25059921  0.36366167  1
  O  O312  1  0.73734231  0.24463676  0.88350433  1
  O  O313  1  0.74417310  0.74594529  0.38248293  1
  O  O314  1  0.74734977  0.74095469  0.88036890  1
  O  O315  1  0.00575645  0.11389899  0.00554485  1
  O  O316  1  0.01027132  0.13382920  0.49525129  1
  O  O317  1  0.00566231  0.61366871  0.00355142  1
  O  O318  1  0.01480534  0.63032928  0.50057695  1
  O  O319  1  0.50695938  0.11965665  0.01587085  1
  O  O320  1  0.51315113  0.11889527  0.48680547  1
  O  O321  1  0.49347359  0.61188640  0.01478698  1
  O  O322  1  0.49598395  0.62280357  0.51484759  1
  O  O323  1  0.49802015  0.38114209  0.48089465  1
  O  O324  1  0.49537439  0.38160609  0.99706166  1
  O  O325  1  0.49156477  0.88372485  0.49344112  1
  O  O326  1  0.50464805  0.88102082  1.01360814  1
  O  O327  1  0.98849606  0.37915703  0.50357016  1
  O  O328  1  0.98354018  0.38410197  1.00102493  1
  O  O329  1  0.98285282  0.87246961  0.49912402  1
  O  O330  1  1.00065111  0.87941092  0.99300421  1
  O  O331  1  0.49395525  0.49534133  0.37086094  1
  O  O332  1  0.50930383  0.49168753  0.88796802  1
  O  O333  1  0.49159619  0.99404963  0.38171869  1
  O  O334  1  0.51242381  0.98895476  0.90004460  1
  O  O335  1  0.98795970  0.51837292  0.37158795  1
  O  O336  1  0.98930635  0.50782911  0.88302204  1
  O  O337  1  0.98606621  1.00489560  0.37260587  1
  O  O338  1  0.99503456  0.99478946  0.88405403  1
  O  O339  1  -0.00162423  0.00243502  0.11099776  1
  O  O340  1  0.01144209  0.00433407  0.62558111  1
  O  O341  1  0.00638751  0.50098431  0.11702286  1
  O  O342  1  0.01515192  0.50159227  0.62093804  1
  O  O343  1  0.50398455  0.00322634  0.12551263  1
  O  O344  1  0.50416552  0.00271064  0.60850140  1
  O  O345  1  0.51053783  0.50486555  0.12068587  1
  O  O346  1  0.50797732  0.50582023  0.62264186  1
  O  O347  1  0.25152988  0.38271284  0.23786284  1
  O  O348  1  0.25268686  0.37000791  0.73555609  1
  O  O349  1  0.24949129  0.88269871  0.24661970  1
  O  O350  1  0.23601094  0.86055389  0.74781145  1
  O  O351  1  0.74270714  0.36781470  0.25948018  1
  O  O352  1  0.74429284  0.38321464  0.74127923  1
  O  O353  1  0.74313335  0.87857256  0.24577888  1
  O  O354  1  0.74675542  0.87910967  0.74123861  1
  O  O355  1  0.24701123  0.11878084  0.26304360  1
  O  O356  1  0.24106452  0.16725523  0.76346752  1
  O  O357  1  0.25930810  0.61848458  0.25726937  1
  O  O358  1  0.25762092  0.62263676  0.76190191  1
  O  O359  1  0.75831860  0.12156863  0.25307392  1
  O  O360  1  0.74977505  0.11511904  0.75528665  1
  O  O361  1  0.74658758  0.62772196  0.26292407  1
  O  O362  1  0.76242024  0.62092039  0.75403531  1
  O  O363  1  0.36393163  0.11699059  0.38209451  1
  O  O364  1  0.39346079  0.10070135  0.86597115  1
  O  O365  1  0.36897248  0.62134998  0.37024038  1
  O  O366  1  0.36753298  0.62779010  0.86629547  1
  O  O367  1  0.86599874  0.12226091  0.36762780  1
  O  O368  1  0.86370071  0.11784621  0.86793939  1
  O  O369  1  0.86482129  0.61676691  0.38184031  1
  O  O370  1  0.86664999  0.61693299  0.86641291  1
  O  O371  1  0.13336034  0.37542797  0.11343472  1
  O  O372  1  0.13286843  0.38434004  0.62073856  1
  O  O373  1  0.13981061  0.87404879  0.12582995  1
  O  O374  1  0.12149717  0.88839958  0.63072118  1
  O  O375  1  0.62248671  0.38414573  0.12502556  1
  O  O376  1  0.63157810  0.38040852  0.63000292  1
  O  O377  1  0.63075130  0.87433128  0.13639896  1
  O  O378  1  0.63798272  0.87611527  0.62922487  1
  O  O379  1  0.12438462  0.24825997  0.26207182  1
  O  O380  1  0.10794570  0.26443857  0.74799335  1
  O  O381  1  0.11228102  0.70856495  0.26452341  1
  O  O382  1  0.11666534  0.75331965  0.75215063  1
  O  O383  1  0.61925601  0.25200430  0.25053110  1
  O  O384  1  0.63379533  0.26646617  0.76146635  1
  O  O385  1  0.62732702  0.76163117  0.26067690  1
  O  O386  1  0.62707182  0.75590026  0.75883346  1
  O  O387  1  0.38117322  0.25227041  0.23911430  1
  O  O388  1  0.38988373  0.25417093  0.72896290  1
  O  O389  1  0.37170660  0.73935322  0.25248362  1
  O  O390  1  0.37585608  0.73707879  0.74288570  1
  O  O391  1  0.88862609  0.23817474  0.25062342  1
  O  O392  1  0.86990067  0.24132913  0.74158251  1
  O  O393  1  0.87111995  0.74841898  0.23575089  1
  O  O394  1  0.88085766  0.74450571  0.74301974  1
  O  O395  1  0.37470542  0.50147869  0.48430734  1
  O  O396  1  0.38601906  0.48605431  1.00939324  1
  O  O397  1  0.37964601  0.99576718  0.49660094  1
  O  O398  1  0.39346762  0.99408788  1.00799220  1
  O  O399  1  0.88042024  0.49789348  0.49068078  1
  O  O400  1  0.87916545  0.48854042  0.99058069  1
  O  O401  1  0.86510173  0.99337485  0.49027443  1
  O  O402  1  0.88224071  0.99677899  0.99268355  1
  O  O403  1  0.11792777  0.00136282  0.00239119  1
  O  O404  1  0.12346207  0.01317032  0.50847095  1
  O  O405  1  0.11396510  0.50687906  -0.00643297  1
  O  O406  1  0.12423086  0.51009113  0.50796865  1
  O  O407  1  0.61896008  0.00056842  0.01238591  1
  O  O408  1  0.61678877  0.00610480  0.49538129  1
  O  O409  1  0.61686317  0.49635130  0.01302690  1
  O  O410  1  0.62410143  0.49862604  0.51414093  1
  O  O411  1  0.37096034  0.36720157  0.12158582  1
  O  O412  1  0.36753849  0.36793264  0.61797776  1
  O  O413  1  0.35936822  0.86897738  0.13222967  1
  O  O414  1  0.38261405  0.86040352  0.62264319  1
  O  O415  1  0.86549332  0.37737133  0.11008594  1
  O  O416  1  0.86796744  0.37339673  0.61577298  1
  O  O417  1  0.86635704  0.86501727  0.12144853  1
  O  O418  1  0.86593116  0.86702295  0.62114372  1
  O  O419  1  0.13075146  0.13358778  0.38094878  1
  O  O420  1  0.12396813  0.12074033  0.88894994  1
  O  O421  1  0.14288503  0.62094951  0.39333510  1
  O  O422  1  0.13274906  0.62938931  0.88264283  1
  O  O423  1  0.63914192  0.12113973  0.37788128  1
  O  O424  1  0.62733191  0.13286202  0.88547748  1
  O  O425  1  0.62851979  0.63732492  0.37212749  1
  O  O426  1  0.64051901  0.62955904  0.86310762  1
