# generated using pymatgen
data_V85Zn86O256
_symmetry_space_group_name_H-M   'P 1'
_cell_length_a   16.94814386
_cell_length_b   16.94223862
_cell_length_c   16.94437844
_cell_angle_alpha   90.02273451
_cell_angle_beta   90.09111109
_cell_angle_gamma   89.93153822
_symmetry_Int_Tables_number   1
_chemical_formula_structural   V85Zn86O256
_chemical_formula_sum   'V85 Zn86 O256'
_cell_volume   4865.39030569
_cell_formula_units_Z   1
loop_
 _symmetry_equiv_pos_site_id
 _symmetry_equiv_pos_as_xyz
  1  'x, y, z'
loop_
 _atom_site_type_symbol
 _atom_site_label
 _atom_site_symmetry_multiplicity
 _atom_site_fract_x
 _atom_site_fract_y
 _atom_site_fract_z
 _atom_site_occupancy
  V  V0  1  0.87292586  0.62550628  0.24728012  1
  V  V1  1  0.87676832  0.25105385  0.62067962  1
  V  V2  1  0.00220316  0.12676546  0.62436757  1
  V  V3  1  0.24920949  0.87503674  0.62509905  1
  V  V4  1  0.12416039  0.74057562  0.37733850  1
  V  V5  1  0.01179950  0.24803762  0.75680585  1
  V  V6  1  0.24605175  0.49734347  0.25442262  1
  V  V7  1  0.12998395  0.38901667  0.75579005  1
  V  V8  1  0.37935827  0.62288326  0.24700599  1
  V  V9  1  0.61808359  0.50993372  0.12752292  1
  V  V10  1  0.25428224  0.12831799  0.87417425  1
  V  V11  1  0.12442248  0.11770162  0.00270763  1
  V  V12  1  0.49727695  0.23846934  0.25004691  1
  V  V13  1  0.37563540  0.87559344  -0.01168487  1
  V  V14  1  0.12733726  0.12799368  0.49689676  1
  V  V15  1  0.37452899  0.23474392  0.13109917  1
  V  V16  1  0.37622157  0.00303068  0.36686437  1
  V  V17  1  0.87566239  0.74625538  0.62538892  1
  V  V18  1  0.12338546  0.49645541  0.13082796  1
  V  V19  1  0.25377857  0.12864625  0.36976592  1
  V  V20  1  0.74912593  0.00292103  0.24136812  1
  V  V21  1  0.24369076  0.61783096  0.86487501  1
  V  V22  1  0.24401008  0.87436256  0.12238222  1
  V  V23  1  -0.00569743  0.00061586  0.00800148  1
  V  V24  1  0.37900249  0.49747962  0.37680003  1
  V  V25  1  0.73900805  0.12858089  0.37939322  1
  V  V26  1  0.62620036  0.61899497  0.50305169  1
  V  V27  1  0.86852536  0.75286894  0.11655896  1
  V  V28  1  0.74684864  0.50014163  0.24800389  1
  V  V29  1  -0.00079264  0.75142077  0.24650380  1
  V  V30  1  0.37129260  0.49718879  0.86837275  1
  V  V31  1  0.23831147  0.25065602  -0.00192040  1
  V  V32  1  0.00066387  0.87511714  0.37338440  1
  V  V33  1  0.73547367  0.24844539  0.50002346  1
  V  V34  1  0.49106374  0.25012746  0.76350340  1
  V  V35  1  0.74951151  0.75161254  0.49772229  1
  V  V36  1  0.62224095  0.36933368  0.25072559  1
  V  V37  1  0.61710293  0.12186060  0.01655550  1
  V  V38  1  0.87965582  0.12891224  0.25254141  1
  V  V39  1  0.62568362  0.87918156  0.24517845  1
  V  V40  1  0.50096881  0.87603180  0.37492750  1
  V  V41  1  0.62508009  0.74989626  0.37415183  1
  V  V42  1  0.01408279  0.62928898  0.61704702  1
  V  V43  1  0.62270287  0.62973899  -0.00636913  1
  V  V44  1  -0.00570288  0.88494567  0.87158804  1
  V  V45  1  0.60522523  0.74734235  0.86681753  1
  V  V46  1  0.49974200  0.74695665  0.24843255  1
  V  V47  1  0.49903592  0.63547676  0.62794532  1
  V  V48  1  0.37780402  0.74588174  0.12291852  1
  V  V49  1  0.12031336  0.74957299  0.87220256  1
  V  V50  1  0.24951433  0.00374649  0.24395987  1
  V  V51  1  0.74434200  0.75296639  -0.01594105  1
  V  V52  1  0.50566344  0.49621591  0.50974323  1
  V  V53  1  0.37176472  0.37249959  0.00222949  1
  V  V54  1  0.12282964  0.62307367  0.00023572  1
  V  V55  1  0.62547435  0.01380470  0.62686577  1
  V  V56  1  0.25543048  0.00472598  0.75232134  1
  V  V57  1  0.37473028  0.87323028  0.49796879  1
  V  V58  1  0.60733751  0.87776142  0.75468630  1
  V  V59  1  0.00092555  0.00167612  0.49867799  1
  V  V60  1  0.87403053  0.87665633  0.49977610  1
  V  V61  1  0.50404111  0.36797542  0.37659867  1
  V  V62  1  0.12279677  0.26559671  0.37026488  1
  V  V63  1  0.38042733  0.36946734  0.51485797  1
  V  V64  1  0.25030766  0.62654028  0.38199213  1
  V  V65  1  0.87119611  0.12109944  0.75563161  1
  V  V66  1  0.87239422  0.24912524  0.12327948  1
  V  V67  1  0.24428119  0.74679804  0.00097536  1
  V  V68  1  -0.00411623  0.49744269  -0.00081405  1
  V  V69  1  0.12679291  0.00173083  0.62434272  1
  V  V70  1  0.50489943  0.01023217  0.50005711  1
  V  V71  1  0.01022451  0.49796613  0.49473923  1
  V  V72  1  0.87898442  0.49086919  0.37399932  1
  V  V73  1  0.87368361  0.00288288  0.37593198  1
  V  V74  1  0.74693582  0.38673909  0.62905736  1
  V  V75  1  0.24633631  0.37363654  0.13255284  1
  V  V76  1  0.51217748  0.37038991  0.88343459  1
  V  V77  1  0.49453244  0.50597581  0.00536507  1
  V  V78  1  0.74734392  0.87881792  0.62760641  1
  V  V79  1  0.12349951  0.88066947  0.24731576  1
  V  V80  1  -0.00113878  0.62686603  0.12613605  1
  V  V81  1  0.87059810  0.37209203  -0.00318686  1
  V  V82  1  0.48414367  0.13251263  0.63526838  1
  V  V83  1  0.75116577  0.62392254  0.37375856  1
  V  V84  1  0.25695954  0.24982724  0.50939482  1
  Zn  Zn85  1  0.74769215  0.87974689  0.11642491  1
  Zn  Zn86  1  0.12369082  0.87766631  0.75056844  1
  Zn  Zn87  1  0.88000068  0.37326112  0.49718156  1
  Zn  Zn88  1  0.24691395  0.74758710  0.50249456  1
  Zn  Zn89  1  0.50707519  0.00228630  0.00050695  1
  Zn  Zn90  1  0.00069493  0.26884403  0.25290571  1
  Zn  Zn91  1  0.00387838  0.36815669  0.87995427  1
  Zn  Zn92  1  0.38481625  0.00186943  0.86845078  1
  Zn  Zn93  1  -0.00232411  0.75151036  0.75103599  1
  Zn  Zn94  1  0.73886965  0.12258295  0.88151514  1
  Zn  Zn95  1  0.86368668  0.88621435  -0.01235063  1
  Zn  Zn96  1  0.72797692  0.25410406  -0.02453398  1
  Zn  Zn97  1  0.13351215  0.50523597  0.62677500  1
  Zn  Zn98  1  0.37780977  0.62923686  0.75390907  1
  Zn  Zn99  1  0.25920867  0.38063150  0.63846003  1
  Zn  Zn100  1  0.37955162  0.75651409  0.63504737  1
  Zn  Zn101  1  0.00583083  0.12534892  0.13102759  1
  Zn  Zn102  1  0.63735763  0.37026509  0.75857562  1
  Zn  Zn103  1  0.75324342  -0.00177576  0.75728326  1
  Zn  Zn104  1  0.85690601  0.61338982  0.74774105  1
  Zn  Zn105  1  0.74454611  0.37332822  0.12253383  1
  Zn  Zn106  1  0.85604701  0.50113533  0.86620939  1
  Zn  Zn107  1  0.18537528  0.18756550  0.18725958  1
  Zn  Zn108  1  0.19236973  0.18725955  0.68817581  1
  Zn  Zn109  1  0.18707324  0.68572758  0.19294013  1
  Zn  Zn110  1  0.18822767  0.69032836  0.68830062  1
  Zn  Zn111  1  0.68716362  0.18731794  0.18293038  1
  Zn  Zn112  1  0.68484560  0.19671263  0.69515774  1
  Zn  Zn113  1  0.68581086  0.68971150  0.18184497  1
  Zn  Zn114  1  0.68353803  0.69390451  0.68551556  1
  Zn  Zn115  1  0.31597419  0.31246586  0.31669535  1
  Zn  Zn116  1  0.31455911  0.30940704  0.81309905  1
  Zn  Zn117  1  0.31167880  0.81286242  0.31113354  1
  Zn  Zn118  1  0.30792214  0.80736199  0.80853732  1
  Zn  Zn119  1  0.80792928  0.31052743  0.31161083  1
  Zn  Zn120  1  0.81885814  0.30864980  0.81015050  1
  Zn  Zn121  1  0.81251603  0.81400104  0.30954507  1
  Zn  Zn122  1  0.81186284  0.81272112  0.80814319  1
  Zn  Zn123  1  0.19903253  0.44201425  0.45262132  1
  Zn  Zn124  1  0.18273645  0.43578003  0.93647616  1
  Zn  Zn125  1  0.18786436  0.93713256  0.43436554  1
  Zn  Zn126  1  0.18285990  0.93997851  0.93604854  1
  Zn  Zn127  1  0.69028814  0.43284066  0.43769569  1
  Zn  Zn128  1  0.68669123  0.43939035  0.94306220  1
  Zn  Zn129  1  0.68622403  0.94227519  0.43666844  1
  Zn  Zn130  1  0.68318181  0.94570602  0.93119370  1
  Zn  Zn131  1  0.31012694  0.05951629  0.05982999  1
  Zn  Zn132  1  0.31402963  0.05947877  0.55750215  1
  Zn  Zn133  1  0.30919142  0.56177962  0.06265141  1
  Zn  Zn134  1  0.31837203  0.55851717  0.56520071  1
  Zn  Zn135  1  0.80936956  0.06997304  0.05904100  1
  Zn  Zn136  1  0.81162766  0.06645821  0.56542841  1
  Zn  Zn137  1  0.80540843  0.56259691  0.05458471  1
  Zn  Zn138  1  0.81884354  0.56381591  0.55978296  1
  Zn  Zn139  1  0.43569742  0.43347018  0.18770670  1
  Zn  Zn140  1  0.50206354  0.48420981  0.73049563  1
  Zn  Zn141  1  0.43391699  0.93941899  0.18189658  1
  Zn  Zn142  1  0.43536241  0.94335066  0.68398273  1
  Zn  Zn143  1  0.93252262  0.43704439  0.18301095  1
  Zn  Zn144  1  0.94284940  0.43284000  0.68045655  1
  Zn  Zn145  1  0.93262922  0.93928561  0.18326251  1
  Zn  Zn146  1  0.93914211  0.93782470  0.68632774  1
  Zn  Zn147  1  0.06559368  0.06443192  0.31327052  1
  Zn  Zn148  1  0.06889110  0.06559831  0.81687071  1
  Zn  Zn149  1  0.06488762  0.44297796  0.31699776  1
  Zn  Zn150  1  0.00681225  0.55486070  0.80305548  1
  Zn  Zn151  1  0.56495953  0.06185848  0.30890433  1
  Zn  Zn152  1  0.56255317  0.06557184  0.82565565  1
  Zn  Zn153  1  0.56087741  0.56019669  0.31728720  1
  Zn  Zn154  1  0.68066820  0.55568249  0.80364234  1
  Zn  Zn155  1  0.43960748  0.18677843  0.43686250  1
  Zn  Zn156  1  0.43979340  0.18111677  0.94636384  1
  Zn  Zn157  1  0.43724730  0.68699765  0.43849842  1
  Zn  Zn158  1  0.43366482  0.68532571  0.93731528  1
  Zn  Zn159  1  0.93912384  0.18977896  0.43576094  1
  Zn  Zn160  1  0.93419566  0.18549885  0.93778698  1
  Zn  Zn161  1  0.93882505  0.68372311  0.43590878  1
  Zn  Zn162  1  0.93314589  0.68807212  0.93403960  1
  Zn  Zn163  1  0.05911558  0.31156078  0.07110760  1
  Zn  Zn164  1  0.06823479  0.31662361  0.56604739  1
  Zn  Zn165  1  0.05940506  0.81693724  0.05891964  1
  Zn  Zn166  1  0.06438334  0.81408091  0.55868092  1
  Zn  Zn167  1  0.55940424  0.31137762  0.06873855  1
  Zn  Zn168  1  0.56446186  0.31057468  0.57252074  1
  Zn  Zn169  1  0.54569576  0.84354210  0.07268750  1
  Zn  Zn170  1  0.56477819  0.81739356  0.56167777  1
  O  O171  1  0.12270304  0.13066319  0.11083965  1
  O  O172  1  0.12220258  0.12122455  0.61632499  1
  O  O173  1  0.11626667  0.62065311  0.12347913  1
  O  O174  1  0.11778712  0.63032857  0.61629989  1
  O  O175  1  0.62913432  0.11685924  0.11932654  1
  O  O176  1  0.61837777  0.11535167  0.63285178  1
  O  O177  1  0.62039273  0.61560983  0.12001369  1
  O  O178  1  0.61494993  0.63502421  0.60800509  1
  O  O179  1  0.38628375  0.38105712  0.38054465  1
  O  O180  1  0.37117668  0.38008596  0.89071335  1
  O  O181  1  0.37978414  0.88269918  0.37824916  1
  O  O182  1  0.35371861  0.87687389  0.88800888  1
  O  O183  1  0.87115930  0.38799262  0.37338601  1
  O  O184  1  0.88030904  0.37705294  0.88684990  1
  O  O185  1  0.88102108  0.88060882  0.37978947  1
  O  O186  1  0.88948476  0.86861903  0.87317765  1
  O  O187  1  0.25728051  0.00548269  0.36505090  1
  O  O188  1  0.24825946  0.00736389  0.86589245  1
  O  O189  1  0.25704382  0.50679182  0.37108934  1
  O  O190  1  0.25741321  0.50783430  0.88499865  1
  O  O191  1  0.75739223  0.00847350  0.37157615  1
  O  O192  1  0.75152852  0.00885910  0.86903902  1
  O  O193  1  0.75743121  0.50568165  0.36920009  1
  O  O194  1  0.74649352  0.51158303  0.88660617  1
  O  O195  1  0.24527508  0.49358966  0.13510107  1
  O  O196  1  0.24353900  0.49049103  0.60667704  1
  O  O197  1  0.25423326  0.99029589  0.13644118  1
  O  O198  1  0.24621100  0.99356586  0.62775577  1
  O  O199  1  0.73806793  0.49996657  0.13105529  1
  O  O200  1  0.75840147  0.48422957  0.61515339  1
  O  O201  1  0.76076650  0.99770146  0.13899936  1
  O  O202  1  0.74153878  0.99465300  0.62543269  1
  O  O203  1  0.00423651  0.38217307  0.24694984  1
  O  O204  1  0.01130800  0.35985150  0.74947224  1
  O  O205  1  0.00568490  0.87302896  0.25180278  1
  O  O206  1  0.00370742  0.87372924  0.75640087  1
  O  O207  1  0.50374553  0.36946342  0.25892005  1
  O  O208  1  0.49444419  0.36551093  0.77253753  1
  O  O209  1  0.50757582  0.86931507  0.25814597  1
  O  O210  1  0.50956280  0.87667133  0.74210088  1
  O  O211  1  0.50118516  0.13877335  0.25659768  1
  O  O212  1  0.50038088  0.13518588  0.74302174  1
  O  O213  1  0.48664141  0.62877481  0.25633992  1
  O  O214  1  0.50390085  0.61911193  0.72659263  1
  O  O215  1  0.98831363  0.12281277  0.25248380  1
  O  O216  1  0.99864244  0.13211147  0.74424945  1
  O  O217  1  0.99182075  0.63285848  0.23429608  1
  O  O218  1  1.00675853  0.63655953  0.72390981  1
  O  O219  1  0.36664369  0.25585487  0.01447311  1
  O  O220  1  0.36822439  0.25681712  0.49358154  1
  O  O221  1  0.36095419  0.75065736  0.00591957  1
  O  O222  1  0.37297596  0.76561035  0.49661896  1
  O  O223  1  0.87829633  0.25663027  0.00875848  1
  O  O224  1  0.87762624  0.25183171  0.51050082  1
  O  O225  1  0.86305753  0.75013662  0.00244036  1
  O  O226  1  0.86963022  0.75592048  0.50540645  1
  O  O227  1  0.13443879  0.24773233  0.49037169  1
  O  O228  1  0.13488306  0.24727030  1.00584885  1
  O  O229  1  0.12896375  0.75867997  0.48230555  1
  O  O230  1  0.12755710  0.74484567  0.99535698  1
  O  O231  1  0.63725677  0.24946249  0.50284363  1
  O  O232  1  0.62357247  0.23665841  1.01818846  1
  O  O233  1  0.63077040  0.74650670  0.49124443  1
  O  O234  1  0.62495613  0.74881418  0.98501760  1
  O  O235  1  0.48024110  0.25731375  0.13594865  1
  O  O236  1  0.49682232  0.23423492  0.62403944  1
  O  O237  1  0.48429959  0.75601118  0.13178548  1
  O  O238  1  0.49839508  0.73957942  0.61418009  1
  O  O239  1  0.98841337  0.24679648  0.13351163  1
  O  O240  1  0.99690048  0.24459258  0.62969753  1
  O  O241  1  0.99192021  0.74538053  0.12473460  1
  O  O242  1  0.99331488  0.74317443  0.61556034  1
  O  O243  1  0.01944171  0.24966686  0.37634770  1
  O  O244  1  -0.00372814  0.24836047  0.85959513  1
  O  O245  1  0.00569252  0.75365736  0.36726849  1
  O  O246  1  0.00936548  0.75982453  0.87707853  1
  O  O247  1  0.49533273  0.26046887  0.36739097  1
  O  O248  1  0.48939103  0.25486340  0.87151567  1
  O  O249  1  0.50469396  0.75581512  0.36955063  1
  O  O250  1  0.50712551  0.74422828  0.86916789  1
  O  O251  1  0.24751034  0.13096629  0.49196358  1
  O  O252  1  0.24249024  0.13120799  0.99865787  1
  O  O253  1  0.26078693  0.62841250  0.48503859  1
  O  O254  1  0.23990665  0.63028001  0.99720509  1
  O  O255  1  0.75529380  0.13907892  0.49417532  1
  O  O256  1  0.74011970  0.13530145  1.00306219  1
  O  O257  1  0.74372176  0.62988590  0.49484230  1
  O  O258  1  0.73033852  0.63748688  1.00735046  1
  O  O259  1  0.25273111  0.36764387  0.00786616  1
  O  O260  1  0.26597707  0.36323577  0.49675288  1
  O  O261  1  0.24761061  0.86666296  0.00742108  1
  O  O262  1  0.25846864  0.87857813  0.50578180  1
  O  O263  1  0.75602139  0.36770945  0.00353132  1
  O  O264  1  0.75508057  0.36174615  0.50460666  1
  O  O265  1  0.74755297  0.86816140  -0.00140041  1
  O  O266  1  0.75274511  0.87303457  0.50842742  1
  O  O267  1  0.13986905  0.50295157  0.24840919  1
  O  O268  1  0.11293739  0.48900496  0.75114199  1
  O  O269  1  0.13323524  0.98843581  0.25467102  1
  O  O270  1  0.13448723  1.00198234  0.74000900  1
  O  O271  1  0.62554586  0.49643311  0.24426034  1
  O  O272  1  0.60826876  0.47999891  0.76420430  1
  O  O273  1  0.63502456  0.98998544  0.25466847  1
  O  O274  1  0.62455529  0.98968818  0.74381782  1
  O  O275  1  0.36790290  -0.00739380  0.25883148  1
  O  O276  1  0.35996255  -0.00364124  0.75045671  1
  O  O277  1  0.36864914  0.50634782  0.25412504  1
  O  O278  1  0.38891303  0.50635330  0.76729078  1
  O  O279  1  0.86895572  0.00648788  0.25728625  1
  O  O280  1  0.87609981  0.01799213  0.73781059  1
  O  O281  1  0.86767861  0.50789934  0.25363458  1
  O  O282  1  0.90501934  0.50246713  0.75845040  1
  O  O283  1  0.13382061  0.36805569  0.37949207  1
  O  O284  1  0.12209593  0.37258654  0.86194787  1
  O  O285  1  0.11926069  0.86992842  0.36501261  1
  O  O286  1  0.11576355  0.86645124  0.87517645  1
  O  O287  1  0.61608464  0.38008025  0.36350214  1
  O  O288  1  0.61344559  0.36568331  0.89112444  1
  O  O289  1  0.62128197  0.86938640  0.36786420  1
  O  O290  1  0.62450284  0.86600436  0.86023874  1
  O  O291  1  0.36820671  0.13638723  0.12474420  1
  O  O292  1  0.38647762  0.11772463  0.62616259  1
  O  O293  1  0.36653882  0.63417977  0.13422848  1
  O  O294  1  0.38989880  0.62980594  0.61887625  1
  O  O295  1  0.87802241  0.13206581  0.13562464  1
  O  O296  1  0.88583491  0.13211188  0.62794351  1
  O  O297  1  0.87861157  0.63482834  0.12456009  1
  O  O298  1  0.88498865  0.63411240  0.62244192  1
  O  O299  1  0.25743856  0.25677552  0.12386867  1
  O  O300  1  0.24862250  0.25230832  0.61211893  1
  O  O301  1  0.25314764  0.75392761  0.12150293  1
  O  O302  1  0.24917862  0.76410532  0.62101490  1
  O  O303  1  0.76674686  0.25494514  0.13587200  1
  O  O304  1  0.75857819  0.25217055  0.61393722  1
  O  O305  1  0.75696501  0.75117520  0.11444538  1
  O  O306  1  0.75607989  0.75946705  0.61586097  1
  O  O307  1  0.24334403  0.24336248  0.37926873  1
  O  O308  1  0.25556269  0.24318109  0.88863920  1
  O  O309  1  0.24353930  0.74342908  0.37274479  1
  O  O310  1  0.23760305  0.74153688  0.88295441  1
  O  O311  1  0.75520954  0.24384673  0.39090055  1
  O  O312  1  0.75844467  0.23680295  0.86821056  1
  O  O313  1  0.74626641  0.74458554  0.37857018  1
  O  O314  1  0.74629811  0.75223547  0.88169736  1
  O  O315  1  0.00572522  0.11452213  -0.00159981  1
  O  O316  1  0.00739418  0.12023869  0.50320755  1
  O  O317  1  0.00301841  0.61976599  0.01083831  1
  O  O318  1  -0.00511352  0.61492537  0.50780140  1
  O  O319  1  0.50853908  0.12185278  0.01290182  1
  O  O320  1  0.49556300  0.11484877  0.50858139  1
  O  O321  1  0.50832300  0.61755487  -0.00319854  1
  O  O322  1  0.50784874  0.61615387  0.50000804  1
  O  O323  1  0.50084596  0.37761229  0.49635231  1
  O  O324  1  0.48812083  0.37711615  1.00084420  1
  O  O325  1  0.49365162  0.88560580  0.49468616  1
  O  O326  1  0.47289602  0.85183980  0.98339201  1
  O  O327  1  0.99935180  0.39283094  0.50694274  1
  O  O328  1  0.99225928  0.38120248  1.00457752  1
  O  O329  1  0.99430838  0.88237665  0.49284425  1
  O  O330  1  0.99650568  0.88831374  0.99361125  1
  O  O331  1  0.49711306  0.48939830  0.38465768  1
  O  O332  1  0.48660335  0.48494599  0.89543033  1
  O  O333  1  0.49418622  0.99859042  0.38011049  1
  O  O334  1  0.49535045  0.99804890  0.88504820  1
  O  O335  1  0.99350901  0.50504803  0.38529947  1
  O  O336  1  1.01395105  0.49202081  0.89737348  1
  O  O337  1  0.99458459  0.99556597  0.37968562  1
  O  O338  1  1.00775163  0.99131563  0.88398674  1
  O  O339  1  0.00002673  0.00161146  0.11250334  1
  O  O340  1  0.00786174  0.00577217  0.61771406  1
  O  O341  1  0.00286064  0.50930540  0.11858406  1
  O  O342  1  0.00731528  0.51318329  0.61209401  1
  O  O343  1  0.50707253  -0.04932170  0.10319015  1
  O  O344  1  0.50528899  0.01040458  0.61906863  1
  O  O345  1  0.50216552  0.49607834  0.11512521  1
  O  O346  1  0.50237981  0.51079964  0.61180385  1
  O  O347  1  0.25827895  0.38514486  0.24465105  1
  O  O348  1  0.23533900  0.37055601  0.75377454  1
  O  O349  1  0.24214395  0.88028676  0.24355278  1
  O  O350  1  0.24482941  0.88353395  0.73963085  1
  O  O351  1  0.73868795  0.38213562  0.25016087  1
  O  O352  1  0.75498771  0.37007183  0.73371359  1
  O  O353  1  0.74346489  0.88671561  0.25338615  1
  O  O354  1  0.74655396  0.87672418  0.73612888  1
  O  O355  1  0.24400290  0.11443271  0.25642041  1
  O  O356  1  0.24659302  0.11941568  0.76131375  1
  O  O357  1  0.26050519  0.61830755  0.25873640  1
  O  O358  1  0.24634050  0.62216134  0.76231958  1
  O  O359  1  0.75917463  0.12054568  0.25880353  1
  O  O360  1  0.76606342  0.12670109  0.73953393  1
  O  O361  1  0.75274333  0.62070561  0.25347749  1
  O  O362  1  0.74555268  0.61965718  0.73690119  1
  O  O363  1  0.36280455  0.11697154  0.37788022  1
  O  O364  1  0.35861743  0.11889640  0.88961349  1
  O  O365  1  0.37031929  0.61918915  0.36768255  1
  O  O366  1  0.36155699  0.61519186  0.87975657  1
  O  O367  1  0.86995130  0.12113199  0.36985404  1
  O  O368  1  0.88172041  0.12387931  0.85567307  1
  O  O369  1  0.86924808  0.61855276  0.36677698  1
  O  O370  1  0.90392480  0.61390191  0.85775786  1
  O  O371  1  0.13883987  0.37933594  0.12408044  1
  O  O372  1  0.12916290  0.37713007  0.64157682  1
  O  O373  1  0.13493496  0.86814542  0.13270311  1
  O  O374  1  0.13252377  0.88379932  0.62269195  1
  O  O375  1  0.62195245  0.38898640  0.13500759  1
  O  O376  1  0.64408371  0.37523767  0.62235794  1
  O  O377  1  0.63507246  0.85641965  0.14411142  1
  O  O378  1  0.63074641  0.88160177  0.63418788  1
  O  O379  1  0.12627312  0.24814015  0.26736071  1
  O  O380  1  0.11327824  0.24863789  0.74630921  1
  O  O381  1  0.11837215  0.76075203  0.25517509  1
  O  O382  1  0.12406836  0.75411671  0.76141531  1
  O  O383  1  0.61454089  0.26209747  0.24051384  1
  O  O384  1  0.60139164  0.25998574  0.73990771  1
  O  O385  1  0.61946226  0.75149105  0.25797765  1
  O  O386  1  0.62450025  0.76342700  0.75844482  1
  O  O387  1  0.37853140  0.25228085  0.23890590  1
  O  O388  1  0.39115489  0.25331759  0.74613913  1
  O  O389  1  0.37760484  0.74277794  0.24331817  1
  O  O390  1  0.37011378  0.74164413  0.74704717  1
  O  O391  1  0.87960665  0.24324168  0.24983355  1
  O  O392  1  0.88836710  0.24088954  0.73649445  1
  O  O393  1  0.87924237  0.74576632  0.24066435  1
  O  O394  1  0.87644681  0.75146659  0.73257766  1
  O  O395  1  0.38821048  0.49043943  0.49396116  1
  O  O396  1  0.37790133  0.49256208  1.00048822  1
  O  O397  1  0.38121895  0.99145550  0.48747233  1
  O  O398  1  0.37039641  0.98070953  1.00247561  1
  O  O399  1  0.88473198  0.49905300  0.48807590  1
  O  O400  1  0.88133510  0.49173741  1.00235688  1
  O  O401  1  0.87925407  0.99629128  0.49544439  1
  O  O402  1  0.88886591  1.00250400  1.00309860  1
  O  O403  1  0.11332891  0.00676715  0.00167155  1
  O  O404  1  0.12220442  0.00705742  0.50317524  1
  O  O405  1  0.11998875  0.50405676  0.01322722  1
  O  O406  1  0.11246584  0.50302419  0.49339655  1
  O  O407  1  0.62736958  0.01308650  0.00366858  1
  O  O408  1  0.61449202  -0.00613137  0.51157201  1
  O  O409  1  0.61386723  0.50953264  0.00824184  1
  O  O410  1  0.61982240  0.50933841  0.49112346  1
  O  O411  1  0.36222129  0.37359677  0.11730209  1
  O  O412  1  0.37868301  0.37567425  0.61350531  1
  O  O413  1  0.35835291  0.86244615  0.11690437  1
  O  O414  1  0.36774069  0.87738353  0.61458652  1
  O  O415  1  0.87063346  0.36909776  0.11328477  1
  O  O416  1  0.86915110  0.36584844  0.62103436  1
  O  O417  1  0.87251273  0.86220837  0.12054980  1
  O  O418  1  0.86828682  0.87100214  0.61769258  1
  O  O419  1  0.13714125  0.12917338  0.38082420  1
  O  O420  1  0.13775657  0.12430579  0.89088104  1
  O  O421  1  0.13669813  0.63884284  0.36499916  1
  O  O422  1  0.12780321  0.63235043  0.88382410  1
  O  O423  1  0.63984639  0.12084492  0.37398956  1
  O  O424  1  0.62214632  0.12929160  0.89685638  1
  O  O425  1  0.63042292  0.63094212  0.38248185  1
  O  O426  1  0.62412579  0.64165296  0.87935347  1
