# generated using pymatgen
data_V85Zn86O256
_symmetry_space_group_name_H-M   'P 1'
_cell_length_a   16.94512624
_cell_length_b   16.92803461
_cell_length_c   16.94363704
_cell_angle_alpha   89.98381971
_cell_angle_beta   90.01335449
_cell_angle_gamma   89.97279486
_symmetry_Int_Tables_number   1
_chemical_formula_structural   V85Zn86O256
_chemical_formula_sum   'V85 Zn86 O256'
_cell_volume   4860.24216263
_cell_formula_units_Z   1
loop_
 _symmetry_equiv_pos_site_id
 _symmetry_equiv_pos_as_xyz
  1  'x, y, z'
loop_
 _atom_site_type_symbol
 _atom_site_label
 _atom_site_symmetry_multiplicity
 _atom_site_fract_x
 _atom_site_fract_y
 _atom_site_fract_z
 _atom_site_occupancy
  V  V0  1  0.50220360  0.62094972  0.62469716  1
  V  V1  1  0.74482491  0.87517482  0.12148381  1
  V  V2  1  0.37865474  0.24848209  0.62849493  1
  V  V3  1  0.87827229  0.50089577  0.86606765  1
  V  V4  1  0.74696775  0.00432838  0.73587528  1
  V  V5  1  0.01523920  0.75053772  0.75125638  1
  V  V6  1  0.49620236  0.62422688  0.11986109  1
  V  V7  1  0.61814141  0.11835586  -0.00348146  1
  V  V8  1  0.24818190  0.87659080  0.62368015  1
  V  V9  1  0.37623312  0.75085698  0.62657145  1
  V  V10  1  0.37431506  0.12426925  0.25095487  1
  V  V11  1  0.51150461  0.00111182  0.50227237  1
  V  V12  1  0.87148418  0.74991607  0.63314061  1
  V  V13  1  0.87555628  0.87001104  -0.00408073  1
  V  V14  1  0.25083621  0.37574597  0.62706179  1
  V  V15  1  0.25123758  -0.00679374  0.24953121  1
  V  V16  1  0.00337946  0.87435335  0.37725337  1
  V  V17  1  0.75080347  0.74439219  -0.00544042  1
  V  V18  1  0.63237943  0.48539398  0.62747976  1
  V  V19  1  0.74788735  0.12481515  0.87101033  1
  V  V20  1  0.00799978  0.24786160  0.75425607  1
  V  V21  1  0.49640674  0.12016428  0.11893983  1
  V  V22  1  0.76801388  0.12323819  0.37089254  1
  V  V23  1  0.00155381  0.49992545  0.00156134  1
  V  V24  1  0.74450294  0.25038534  0.50324201  1
  V  V25  1  -0.00154508  0.49188541  0.49668856  1
  V  V26  1  0.13048003  0.37437745  0.75773242  1
  V  V27  1  0.25133172  0.50872299  0.75278110  1
  V  V28  1  0.00445403  0.36988088  0.87836661  1
  V  V29  1  0.87312505  0.62509512  0.25169183  1
  V  V30  1  0.62514386  0.61524339  -0.00345332  1
  V  V31  1  0.49910558  0.87986088  0.88811118  1
  V  V32  1  0.00402369  0.00114708  0.50000428  1
  V  V33  1  0.38302323  -0.00424441  0.37596825  1
  V  V34  1  0.87626369  0.12489017  0.74907188  1
  V  V35  1  0.38068820  0.00154185  0.88923487  1
  V  V36  1  0.62005563  0.49826622  0.12423637  1
  V  V37  1  0.11533187  0.37653942  0.25387951  1
  V  V38  1  0.12711178  0.74607546  0.37625380  1
  V  V39  1  0.37273029  0.38180911  0.49545104  1
  V  V40  1  0.74974064  0.63097464  0.37468593  1
  V  V41  1  0.01296555  0.87290850  0.87096932  1
  V  V42  1  0.87402827  -0.00357943  0.87122737  1
  V  V43  1  0.00107445  0.62321085  0.12436413  1
  V  V44  1  0.11793505  0.13219880  -0.00679944  1
  V  V45  1  0.61965875  0.23695724  0.37903967  1
  V  V46  1  0.38068872  0.87448534  0.49778086  1
  V  V47  1  0.37738971  0.12406477  0.74799058  1
  V  V48  1  0.12283021  0.62253935  0.50430027  1
  V  V49  1  0.62550993  0.87315097  0.25409140  1
  V  V50  1  0.51427386  0.12426437  0.62193901  1
  V  V51  1  0.12947255  0.49483766  0.12425209  1
  V  V52  1  0.12756958  0.00102403  0.62693426  1
  V  V53  1  0.49773665  0.38218598  0.37353460  1
  V  V54  1  0.25223192  0.87068786  0.10755833  1
  V  V55  1  0.38124092  0.49987116  0.88317608  1
  V  V56  1  0.11655602  0.25203806  0.37721349  1
  V  V57  1  0.50249739  0.37284419  0.86241451  1
  V  V58  1  0.62523498  0.74867982  0.87162235  1
  V  V59  1  0.87640071  0.87757639  0.50125211  1
  V  V60  1  0.49514426  0.75403529  0.25348118  1
  V  V61  1  0.50036841  0.75280782  0.75033701  1
  V  V62  1  0.62329574  0.88176494  0.74288321  1
  V  V63  1  0.24516590  0.24666112  0.50145817  1
  V  V64  1  0.62624257  0.62307352  0.49906579  1
  V  V65  1  0.49830686  0.24995874  0.24842720  1
  V  V66  1  0.74765097  0.24949724  0.00016348  1
  V  V67  1  0.37811800  0.62391385  0.75199581  1
  V  V68  1  0.87412470  0.49220586  0.37242230  1
  V  V69  1  0.24676040  0.12274776  0.38060315  1
  V  V70  1  0.74804472  0.37426263  0.12527911  1
  V  V71  1  0.37678579  0.37517453  0.00378178  1
  V  V72  1  0.11522398  0.00800333  0.12855250  1
  V  V73  1  0.36090199  0.25316390  0.12555401  1
  V  V74  1  -0.00591435  0.62369883  0.62803400  1
  V  V75  1  0.13045233  0.63842123  -0.00553233  1
  V  V76  1  0.62018233  0.25133308  0.86067913  1
  V  V77  1  0.87252023  0.25739820  0.62527100  1
  V  V78  1  0.87510722  0.74675962  0.12177104  1
  V  V79  1  0.75443107  0.62106106  0.86167193  1
  V  V80  1  0.00741707  0.12677080  0.62248929  1
  V  V81  1  0.00100213  0.74898446  0.25092686  1
  V  V82  1  0.25759961  0.49219892  0.24991774  1
  V  V83  1  0.25737423  0.61972820  0.37481376  1
  V  V84  1  0.25168623  -0.00871036  0.75387994  1
  Zn  Zn85  1  0.62301320  0.37614322  0.25215761  1
  Zn  Zn86  1  0.37501942  0.62396135  0.24930565  1
  Zn  Zn87  1  0.61997025  0.75374875  0.37854024  1
  Zn  Zn88  1  0.49700912  0.50074095  0.49561100  1
  Zn  Zn89  1  0.25050254  0.74709607  0.50312349  1
  Zn  Zn90  1  0.74739508  0.50005333  0.25007998  1
  Zn  Zn91  1  -0.00786935  0.00477754  0.00809250  1
  Zn  Zn92  1  -0.00680971  0.22245423  0.24720206  1
  Zn  Zn93  1  0.74509822  0.87880548  0.61910057  1
  Zn  Zn94  1  0.12594757  0.87138009  0.24620894  1
  Zn  Zn95  1  0.12373375  0.49971558  0.62713208  1
  Zn  Zn96  1  0.25394687  0.63455636  0.88409591  1
  Zn  Zn97  1  0.75037527  0.01278497  0.24644860  1
  Zn  Zn98  1  0.74936971  0.75263831  0.50130421  1
  Zn  Zn99  1  0.87625944  0.36994879  0.00146596  1
  Zn  Zn100  1  0.24775459  0.13028345  0.87371651  1
  Zn  Zn101  1  0.24308045  0.25692577  -0.01125331  1
  Zn  Zn102  1  0.87536744  0.21961863  0.13327606  1
  Zn  Zn103  1  0.61393077  -0.00758062  0.11824288  1
  Zn  Zn104  1  0.37145424  0.75163626  0.11151650  1
  Zn  Zn105  1  0.75236484  0.48492298  0.74554507  1
  Zn  Zn106  1  0.87169655  0.37435644  0.49949195  1
  Zn  Zn107  1  0.18212342  0.18526490  0.19334860  1
  Zn  Zn108  1  0.19076427  0.18530026  0.69217040  1
  Zn  Zn109  1  0.18827577  0.68421611  0.18641058  1
  Zn  Zn110  1  0.22900190  0.76216133  0.75290936  1
  Zn  Zn111  1  0.68315285  0.18756414  0.18664934  1
  Zn  Zn112  1  0.68968713  0.30747555  0.68600163  1
  Zn  Zn113  1  0.68582611  0.68955477  0.18672037  1
  Zn  Zn114  1  0.68666553  0.68653269  0.68474091  1
  Zn  Zn115  1  0.30986272  0.31365176  0.31412860  1
  Zn  Zn116  1  0.31463417  0.31186120  0.81460511  1
  Zn  Zn117  1  0.31361809  0.81080451  0.31311297  1
  Zn  Zn118  1  0.31176658  0.81084721  0.92783959  1
  Zn  Zn119  1  0.80468760  0.30959238  0.31295101  1
  Zn  Zn120  1  0.81842870  0.31164029  0.81716286  1
  Zn  Zn121  1  0.84749595  0.86116070  0.27970812  1
  Zn  Zn122  1  0.81176419  0.81311457  0.80669402  1
  Zn  Zn123  1  0.18701273  0.43702306  0.43583387  1
  Zn  Zn124  1  0.19305655  0.44074835  0.93802678  1
  Zn  Zn125  1  0.18839289  0.93670326  0.44189074  1
  Zn  Zn126  1  0.18512902  0.95194631  0.93917088  1
  Zn  Zn127  1  0.68580624  0.43454211  0.43702836  1
  Zn  Zn128  1  0.68714967  0.43512023  0.93282249  1
  Zn  Zn129  1  0.69260751  0.93883122  0.43302879  1
  Zn  Zn130  1  0.68621513  0.93700004  0.93145870  1
  Zn  Zn131  1  0.30328606  0.06844076  0.06456198  1
  Zn  Zn132  1  0.31609630  0.06197929  0.56139871  1
  Zn  Zn133  1  0.31190956  0.56162628  0.06360768  1
  Zn  Zn134  1  0.31050169  0.56246584  0.56470642  1
  Zn  Zn135  1  0.80452356  0.05686693  0.05526514  1
  Zn  Zn136  1  0.81645628  0.06901560  0.55738436  1
  Zn  Zn137  1  0.81294371  0.55704117  0.05983047  1
  Zn  Zn138  1  0.81243994  0.56182501  0.56112844  1
  Zn  Zn139  1  0.43794626  0.43734962  0.18484071  1
  Zn  Zn140  1  0.43774115  0.43809425  0.68629090  1
  Zn  Zn141  1  0.43518833  0.93465487  0.18482476  1
  Zn  Zn142  1  0.43830216  0.94103281  0.68776245  1
  Zn  Zn143  1  0.93122352  0.36507997  0.19292153  1
  Zn  Zn144  1  0.94089862  0.43619210  0.68900842  1
  Zn  Zn145  1  0.92605006  1.04319465  0.20173948  1
  Zn  Zn146  1  0.93864117  0.93371815  0.68703134  1
  Zn  Zn147  1  0.06879844  0.05978011  0.31944471  1
  Zn  Zn148  1  0.06300238  0.05682492  0.81200202  1
  Zn  Zn149  1  0.06191111  0.55863769  0.31283064  1
  Zn  Zn150  1  0.06387307  0.56537231  0.81231780  1
  Zn  Zn151  1  0.56358529  0.05724794  0.30693822  1
  Zn  Zn152  1  0.55987035  0.06521587  0.80715117  1
  Zn  Zn153  1  0.56149406  0.56444963  0.30841408  1
  Zn  Zn154  1  0.56345299  0.55620414  0.81022888  1
  Zn  Zn155  1  0.43502918  0.18764900  0.44104706  1
  Zn  Zn156  1  0.43367744  0.19253196  0.93625471  1
  Zn  Zn157  1  0.43805517  0.68816792  0.43854643  1
  Zn  Zn158  1  0.44106960  0.68688393  0.93836327  1
  Zn  Zn159  1  0.93639547  0.18587821  0.44162848  1
  Zn  Zn160  1  0.93597243  0.18601676  0.94138081  1
  Zn  Zn161  1  0.93536007  0.68772688  0.44122713  1
  Zn  Zn162  1  0.94163724  0.68436682  0.93064289  1
  Zn  Zn163  1  0.06313405  0.31174409  0.06789174  1
  Zn  Zn164  1  0.06546827  0.31396046  0.56592790  1
  Zn  Zn165  1  0.06144218  0.81872272  0.06443215  1
  Zn  Zn166  1  0.06558954  0.81020137  0.56649084  1
  Zn  Zn167  1  0.55817380  0.30989881  0.05646059  1
  Zn  Zn168  1  0.55763490  0.30758585  0.55631337  1
  Zn  Zn169  1  0.56191101  0.80283785  0.06230746  1
  Zn  Zn170  1  0.56244115  0.81209126  0.56138001  1
  O  O171  1  0.12842842  0.11249768  0.12043670  1
  O  O172  1  0.11460634  0.11992148  0.62914890  1
  O  O173  1  0.12036224  0.61624520  0.11747340  1
  O  O174  1  0.11205073  0.62205586  0.61015693  1
  O  O175  1  0.61431145  0.12355231  0.11475389  1
  O  O176  1  0.60876109  0.13014204  0.62876584  1
  O  O177  1  0.62021998  0.61823535  0.11634574  1
  O  O178  1  0.61945965  0.61793295  0.61531933  1
  O  O179  1  0.38261133  0.36809053  0.38481008  1
  O  O180  1  0.38587146  0.38119055  0.87794788  1
  O  O181  1  0.37022149  0.88358470  0.38468251  1
  O  O182  1  0.38446630  0.89281955  0.87827599  1
  O  O183  1  0.86897131  0.38956098  0.37471196  1
  O  O184  1  0.88729290  0.38223372  0.88151522  1
  O  O185  1  0.89588885  0.86487930  0.38709721  1
  O  O186  1  0.87675263  0.87794392  0.88043246  1
  O  O187  1  0.25560416  0.00524841  0.37122348  1
  O  O188  1  0.26157101  0.00426646  0.86831079  1
  O  O189  1  0.24393119  0.50729431  0.36165306  1
  O  O190  1  0.26225941  0.50607972  0.86849197  1
  O  O191  1  0.74640345  0.02132667  0.37559963  1
  O  O192  1  0.76007176  0.00336129  0.86664501  1
  O  O193  1  0.75617065  0.50985134  0.37625594  1
  O  O194  1  0.75979400  0.50466905  0.87426697  1
  O  O195  1  0.24259300  0.50545816  0.13943265  1
  O  O196  1  0.24893356  0.49273566  0.63410779  1
  O  O197  1  0.24372291  0.99101564  0.13224571  1
  O  O198  1  0.24576137  0.99628260  0.62892466  1
  O  O199  1  0.73502850  0.49568337  0.12239509  1
  O  O200  1  0.73604887  0.50013112  0.62354409  1
  O  O201  1  0.73903069  0.98134977  0.11579202  1
  O  O202  1  0.75523516  1.00329877  0.63314377  1
  O  O203  1  0.01703665  0.39651302  0.25948977  1
  O  O204  1  0.00999290  0.36842582  0.75764406  1
  O  O205  1  0.00721921  0.86319082  0.26552088  1
  O  O206  1  -0.00219541  0.86214089  0.75682159  1
  O  O207  1  0.49796673  0.36647189  0.25634953  1
  O  O208  1  0.49525954  0.37350933  0.76276574  1
  O  O209  1  0.50703024  0.86165174  0.24176293  1
  O  O210  1  0.50591666  0.87196618  0.75489927  1
  O  O211  1  0.49222801  0.13136172  0.24405829  1
  O  O212  1  0.48662594  0.11872829  0.73514249  1
  O  O213  1  0.49746184  0.63395178  0.24018268  1
  O  O214  1  0.49971288  0.62912232  0.74193055  1
  O  O215  1  1.00165854  0.11146284  0.25024110  1
  O  O216  1  0.99836301  0.13158173  0.74624588  1
  O  O217  1  0.99393843  0.62971499  0.24500834  1
  O  O218  1  1.00438939  0.63640497  0.74136901  1
  O  O219  1  0.37000390  0.25545660  0.01077377  1
  O  O220  1  0.36371511  0.25777268  0.50834781  1
  O  O221  1  0.37966822  0.75596226  -0.00130890  1
  O  O222  1  0.37325037  0.75667178  0.50751442  1
  O  O223  1  0.85881607  0.24823002  0.00169592  1
  O  O224  1  0.87064104  0.25263993  0.50924546  1
  O  O225  1  0.87127509  0.75165371  -0.00135010  1
  O  O226  1  0.87815713  0.76105532  0.51212043  1
  O  O227  1  0.13775348  0.25664735  0.49478170  1
  O  O228  1  0.12503275  0.23613584  1.00895801  1
  O  O229  1  0.12824109  0.74068975  0.49514444  1
  O  O230  1  0.11860766  0.73643015  1.00504583  1
  O  O231  1  0.63152650  0.24853159  0.49160017  1
  O  O232  1  0.63282974  0.24027560  0.99311418  1
  O  O233  1  0.62512958  0.73996298  0.49752453  1
  O  O234  1  0.63120350  0.73712178  0.99071495  1
  O  O235  1  0.49217040  0.24121377  0.13304164  1
  O  O236  1  0.48873982  0.23685421  0.61652078  1
  O  O237  1  0.49743445  0.74044888  0.13426676  1
  O  O238  1  0.49758747  0.73871475  0.62909084  1
  O  O239  1  0.98411406  0.27283926  0.13601331  1
  O  O240  1  0.99832102  0.24273327  0.63185890  1
  O  O241  1  0.99499451  0.74480051  0.12960848  1
  O  O242  1  0.99521483  0.74454356  0.63379266  1
  O  O243  1  0.01470414  0.24188341  0.37853873  1
  O  O244  1  -0.00418327  0.26134094  0.86953604  1
  O  O245  1  0.01201219  0.75046910  0.37470677  1
  O  O246  1  -0.00231835  0.75562213  0.85920115  1
  O  O247  1  0.50143818  0.25437587  0.36870618  1
  O  O248  1  0.50621124  0.26114112  0.87511061  1
  O  O249  1  0.50051165  0.74373188  0.35825148  1
  O  O250  1  0.50704746  0.75808068  0.86733445  1
  O  O251  1  0.25635358  0.13408136  0.49268689  1
  O  O252  1  0.23357275  0.12776972  0.99741646  1
  O  O253  1  0.24122495  0.62391768  0.49483371  1
  O  O254  1  0.23501441  0.62273177  1.00245294  1
  O  O255  1  0.75824450  0.13787973  0.48566967  1
  O  O256  1  0.73899637  0.12961222  0.99052906  1
  O  O257  1  0.74148556  0.62625628  0.49482465  1
  O  O258  1  0.74394708  0.62747952  0.99048798  1
  O  O259  1  0.26754778  0.37419035  -0.00684004  1
  O  O260  1  0.25523500  0.36978722  0.50570215  1
  O  O261  1  0.24650218  0.87774833  0.00458302  1
  O  O262  1  0.26152331  0.87180059  0.50734478  1
  O  O263  1  0.74707254  0.36437600  0.00337940  1
  O  O264  1  0.75221652  0.35696910  0.49307759  1
  O  O265  1  0.75283944  0.86392238  -0.00225582  1
  O  O266  1  0.76099907  0.87434837  0.49931823  1
  O  O267  1  0.13466332  0.49847466  0.24348179  1
  O  O268  1  0.13430720  0.49430889  0.75041064  1
  O  O269  1  0.13487651  0.99695932  0.24131507  1
  O  O270  1  0.13557948  1.00436019  0.73810254  1
  O  O271  1  0.62653689  0.49828569  0.23879593  1
  O  O272  1  0.62667359  0.50114759  0.73034412  1
  O  O273  1  0.62951128  0.98865872  0.24190309  1
  O  O274  1  0.63518381  0.99376659  0.75549730  1
  O  O275  1  0.36973512  0.00152718  0.25839581  1
  O  O276  1  0.36845928  0.00618588  0.75586305  1
  O  O277  1  0.36124139  0.50059560  0.24629228  1
  O  O278  1  0.37069486  0.50381144  0.75765251  1
  O  O279  1  0.85489545  -0.03129719  0.24515595  1
  O  O280  1  0.86908961  0.00249787  0.75342880  1
  O  O281  1  0.86998241  0.51366583  0.26003323  1
  O  O282  1  0.87617275  0.49680428  0.76186981  1
  O  O283  1  0.13259885  0.36280157  0.36741609  1
  O  O284  1  0.12008554  0.38118578  0.86526784  1
  O  O285  1  0.12032472  0.86296363  0.38018791  1
  O  O286  1  0.11132230  0.88650299  0.87934024  1
  O  O287  1  0.61355378  0.36387381  0.37411178  1
  O  O288  1  0.61009602  0.36785501  0.87981663  1
  O  O289  1  0.63289827  0.87191973  0.35821790  1
  O  O290  1  0.61960133  0.87002934  0.86296171  1
  O  O291  1  0.37778469  0.13191355  0.13120977  1
  O  O292  1  0.37485869  0.13269597  0.63091218  1
  O  O293  1  0.38380045  0.62713264  0.12546252  1
  O  O294  1  0.38507242  0.62675351  0.62912999  1
  O  O295  1  0.87218145  0.10895528  0.12393749  1
  O  O296  1  0.88824748  0.13325497  0.63069660  1
  O  O297  1  0.87943139  0.62756002  0.12994602  1
  O  O298  1  0.88623670  0.63298395  0.61835008  1
  O  O299  1  0.25961542  0.24662780  0.12978350  1
  O  O300  1  0.25413617  0.25505489  0.61922140  1
  O  O301  1  0.24731331  0.76836893  0.12988607  1
  O  O302  1  0.25914768  0.76223610  0.63585524  1
  O  O303  1  0.74792879  0.25746572  0.11784051  1
  O  O304  1  0.75994163  0.24505141  0.61642684  1
  O  O305  1  0.75399787  0.75188934  0.11248538  1
  O  O306  1  0.75832698  0.75168418  0.62293438  1
  O  O307  1  0.24575614  0.24187784  0.38272998  1
  O  O308  1  0.25294090  0.24358012  0.87452237  1
  O  O309  1  0.23992646  0.74153061  0.37552037  1
  O  O310  1  0.25572748  0.74478486  0.85803327  1
  O  O311  1  0.73876119  0.24043075  0.37936961  1
  O  O312  1  0.74314352  0.24306864  0.88146520  1
  O  O313  1  0.74444021  0.73397357  0.37937647  1
  O  O314  1  0.74564900  0.74058452  0.87447564  1
  O  O315  1  0.01112833  0.12184840  -0.00085091  1
  O  O316  1  -0.00376647  0.11252020  0.50988040  1
  O  O317  1  0.00927334  0.61817105  0.00256757  1
  O  O318  1  0.00463981  0.61728825  0.50639371  1
  O  O319  1  0.50545534  0.13421515  0.00808915  1
  O  O320  1  0.49348192  0.11575095  0.51155164  1
  O  O321  1  0.51146337  0.62807944  0.01104903  1
  O  O322  1  0.50579562  0.62168090  0.50651150  1
  O  O323  1  0.48952813  0.37469598  0.49093395  1
  O  O324  1  0.48466625  0.36908636  0.98859418  1
  O  O325  1  0.48754736  0.88207237  0.50716838  1
  O  O326  1  0.51378871  0.87489329  0.98669471  1
  O  O327  1  0.99970693  0.38850071  0.50551097  1
  O  O328  1  1.00270602  0.38202579  0.99225776  1
  O  O329  1  0.99827181  0.88072209  0.49979315  1
  O  O330  1  0.98999318  0.87566205  0.99085994  1
  O  O331  1  0.50289601  0.48647602  0.37344245  1
  O  O332  1  0.49447929  0.48697206  0.87193548  1
  O  O333  1  0.48770936  1.00618670  0.38077721  1
  O  O334  1  0.48866488  0.99500868  0.87141773  1
  O  O335  1  0.98731594  0.51071323  0.38657944  1
  O  O336  1  0.99684659  0.49247687  0.87891735  1
  O  O337  1  1.01390877  0.98777458  0.39144520  1
  O  O338  1  0.98627386  0.99034962  0.87049916  1
  O  O339  1  0.01515514  -0.01034857  0.12683261  1
  O  O340  1  0.00901623  0.00508672  0.62327149  1
  O  O341  1  0.00951122  0.50750833  0.11358794  1
  O  O342  1  -0.00034299  0.50850327  0.61950672  1
  O  O343  1  0.49608117  0.01482874  0.12891870  1
  O  O344  1  0.49568334  0.01284013  0.61563534  1
  O  O345  1  0.51082233  0.50815877  0.12811654  1
  O  O346  1  0.50864076  0.50818933  0.62333993  1
  O  O347  1  0.24232221  0.38821346  0.25463176  1
  O  O348  1  0.24608925  0.38489615  0.74851442  1
  O  O349  1  0.24697546  0.88551505  0.25250978  1
  O  O350  1  0.25366164  0.88677931  0.74001236  1
  O  O351  1  0.74155427  0.37741815  0.23944297  1
  O  O352  1  0.75110315  0.37189301  0.75331222  1
  O  O353  1  0.73855180  0.85818323  0.23158086  1
  O  O354  1  0.74178621  0.88615193  0.74724659  1
  O  O355  1  0.25516968  0.11282507  0.25659460  1
  O  O356  1  0.26108286  0.11260757  0.74930132  1
  O  O357  1  0.25154800  0.61583585  0.25804711  1
  O  O358  1  0.25876099  0.61350364  0.74787748  1
  O  O359  1  0.74389980  0.12976771  0.26504842  1
  O  O360  1  0.76059142  0.11655520  0.75726241  1
  O  O361  1  0.75476898  0.62587999  0.25654252  1
  O  O362  1  0.74490012  0.61828581  0.75983146  1
  O  O363  1  0.36591349  0.11881165  0.37023948  1
  O  O364  1  0.37982589  0.11642651  0.86488664  1
  O  O365  1  0.36059367  0.62833654  0.37625279  1
  O  O366  1  0.38163226  0.61447757  0.86883804  1
  O  O367  1  0.86711178  0.12834962  0.36954892  1
  O  O368  1  0.87191816  0.11508451  0.87001343  1
  O  O369  1  0.86661883  0.62276423  0.37142477  1
  O  O370  1  0.86597019  0.61471954  0.87774326  1
  O  O371  1  0.12468577  0.38852338  0.13361169  1
  O  O372  1  0.13176988  0.37745684  0.63939761  1
  O  O373  1  0.13635902  0.88580996  0.12472575  1
  O  O374  1  0.14032174  0.88198694  0.62063023  1
  O  O375  1  0.62848037  0.38182075  0.12084704  1
  O  O376  1  0.62058281  0.38149150  0.62157077  1
  O  O377  1  0.62914083  0.87084893  0.12850316  1
  O  O378  1  0.62565816  0.87103160  0.63829724  1
  O  O379  1  0.12041813  0.25904215  0.25775264  1
  O  O380  1  0.11561962  0.25695581  0.74768347  1
  O  O381  1  0.11942385  0.74684998  0.25903007  1
  O  O382  1  0.11278757  0.75233309  0.74133557  1
  O  O383  1  0.60931549  0.25109964  0.25468527  1
  O  O384  1  0.62593717  0.24605234  0.76172989  1
  O  O385  1  0.61164643  0.75332200  0.25036287  1
  O  O386  1  0.61984701  0.75586539  0.75397801  1
  O  O387  1  0.38121273  0.24663780  0.24590811  1
  O  O388  1  0.36989604  0.24206803  0.73568574  1
  O  O389  1  0.38541873  0.74944067  0.24543967  1
  O  O390  1  0.38741316  0.74024429  0.74170303  1
  O  O391  1  0.88289164  0.26894663  0.24449850  1
  O  O392  1  0.88890200  0.24479084  0.74550004  1
  O  O393  1  0.88286503  0.74872584  0.24188964  1
  O  O394  1  0.88241034  0.75307017  0.73681940  1
  O  O395  1  0.37556254  0.48597663  0.50570526  1
  O  O396  1  0.37346590  0.49506377  0.98977323  1
  O  O397  1  0.38060866  0.99252840  0.49289723  1
  O  O398  1  0.37147004  1.01179684  0.98707379  1
  O  O399  1  0.88100880  0.49712074  0.49360860  1
  O  O400  1  0.89033982  0.50113281  0.99047100  1
  O  O401  1  0.88816340  0.98670899  0.50856532  1
  O  O402  1  0.87386555  0.98770067  0.98789747  1
  O  O403  1  0.12033951  0.01127012  0.01356433  1
  O  O404  1  0.11956099  -0.00238103  0.51548580  1
  O  O405  1  0.11885519  0.50243532  0.00674571  1
  O  O406  1  0.11695248  0.50514008  0.50017290  1
  O  O407  1  0.62654539  0.01403995  -0.00474514  1
  O  O408  1  0.60996147  -0.01003150  0.49440335  1
  O  O409  1  0.62813609  0.51000498  0.00313321  1
  O  O410  1  0.62160266  0.50385518  0.51073445  1
  O  O411  1  0.38045898  0.36558636  0.11675321  1
  O  O412  1  0.37121950  0.36684399  0.61981600  1
  O  O413  1  0.35504214  0.87739869  0.12628283  1
  O  O414  1  0.36753805  0.87389732  0.61881180  1
  O  O415  1  0.85237378  0.39271585  0.11561575  1
  O  O416  1  0.88268135  0.36053102  0.62527746  1
  O  O417  1  0.86347083  0.86348998  0.10488537  1
  O  O418  1  0.87238454  0.86752212  0.61856729  1
  O  O419  1  0.14112088  0.13291199  0.37368126  1
  O  O420  1  0.12390159  0.11667801  0.89016333  1
  O  O421  1  0.13051534  0.62908784  0.38482187  1
  O  O422  1  0.12617264  0.62137352  0.89160408  1
  O  O423  1  0.61822186  0.13566867  0.37195893  1
  O  O424  1  0.62500448  0.13231656  0.87822077  1
  O  O425  1  0.62894407  0.62011806  0.38663976  1
  O  O426  1  0.63070347  0.62516932  0.87959522  1
