# generated using pymatgen
data_V85Zn86O256
_symmetry_space_group_name_H-M   'P 1'
_cell_length_a   16.92739493
_cell_length_b   16.93192654
_cell_length_c   16.93322142
_cell_angle_alpha   90.01920955
_cell_angle_beta   89.99579027
_cell_angle_gamma   89.90419648
_symmetry_Int_Tables_number   1
_chemical_formula_structural   V85Zn86O256
_chemical_formula_sum   'V85 Zn86 O256'
_cell_volume   4853.28121922
_cell_formula_units_Z   1
loop_
 _symmetry_equiv_pos_site_id
 _symmetry_equiv_pos_as_xyz
  1  'x, y, z'
loop_
 _atom_site_type_symbol
 _atom_site_label
 _atom_site_symmetry_multiplicity
 _atom_site_fract_x
 _atom_site_fract_y
 _atom_site_fract_z
 _atom_site_occupancy
  V  V0  1  0.63971138  0.62355689  -0.00322998  1
  V  V1  1  0.49699022  0.50252305  -0.01234543  1
  V  V2  1  0.12821464  0.87277133  0.25034407  1
  V  V3  1  0.49325185  0.14591467  0.12706873  1
  V  V4  1  0.49916978  0.00007328  0.49814164  1
  V  V5  1  0.61977186  0.35115130  0.24219881  1
  V  V6  1  0.68522503  0.18492244  0.44541264  1
  V  V7  1  0.87388364  0.37630139  0.00310436  1
  V  V8  1  0.87665831  0.48502150  0.37762321  1
  V  V9  1  0.00053293  0.88164381  0.38091386  1
  V  V10  1  0.00676480  0.49617489  0.01871248  1
  V  V11  1  0.87412905  0.24737374  0.60991962  1
  V  V12  1  0.37733596  0.62175193  0.24865478  1
  V  V13  1  0.87325892  0.74678274  0.62298864  1
  V  V14  1  0.25072943  0.74804904  -0.00116048  1
  V  V15  1  -0.00931118  0.87333000  0.88130238  1
  V  V16  1  -0.00325931  0.48738725  0.49732193  1
  V  V17  1  0.24800219  -0.00062573  0.74951440  1
  V  V18  1  0.50306216  0.00086479  0.01021447  1
  V  V19  1  0.12249748  0.61998200  0.01256558  1
  V  V20  1  0.24983981  0.12523834  0.38296779  1
  V  V21  1  0.50384367  0.74846827  0.24872504  1
  V  V22  1  0.37690879  0.74987068  0.12408902  1
  V  V23  1  0.25414528  0.37496683  0.12528514  1
  V  V24  1  0.74784633  0.25566145  0.00729675  1
  V  V25  1  0.37586611  0.37703151  -0.00725488  1
  V  V26  1  -0.00174063  0.74632199  0.75060438  1
  V  V27  1  0.75456072  0.62381828  0.36949042  1
  V  V28  1  0.11711631  0.37333329  0.75659510  1
  V  V29  1  0.88753732  0.62182751  0.24068149  1
  V  V30  1  0.25049928  0.36129429  0.62423353  1
  V  V31  1  -0.01358888  0.24712160  0.75853207  1
  V  V32  1  0.50302338  0.87539318  0.37323929  1
  V  V33  1  0.12657665  0.25952012  0.38783520  1
  V  V34  1  0.24677989  0.12592939  0.87553902  1
  V  V35  1  0.11731461  0.74854019  0.37414854  1
  V  V36  1  0.25252651  0.62138300  0.87540212  1
  V  V37  1  0.25193156  0.62397810  0.37430665  1
  V  V38  1  0.25429224  0.49546640  0.75204558  1
  V  V39  1  0.50295804  0.87727185  0.87533000  1
  V  V40  1  0.00344044  0.13472371  0.12942588  1
  V  V41  1  0.00342334  0.25663759  0.25910977  1
  V  V42  1  0.11468190  0.12401178  0.50418077  1
  V  V43  1  0.74843086  0.50254491  0.76019791  1
  V  V44  1  0.49382743  0.12425999  0.62281666  1
  V  V45  1  0.12640958  0.00276729  0.12628398  1
  V  V46  1  0.62615078  0.87501630  0.74988300  1
  V  V47  1  0.76081859  0.37875560  0.61093207  1
  V  V48  1  0.50479626  0.61944778  0.12261385  1
  V  V49  1  0.74758051  0.49037689  0.24008769  1
  V  V50  1  -0.05180077  0.79327829  0.19404452  1
  V  V51  1  0.24921521  0.74913129  0.50044491  1
  V  V52  1  0.37565248  0.87577470  -0.00100728  1
  V  V53  1  0.63756622  0.74795120  0.87466899  1
  V  V54  1  0.86623532  0.00497725  0.37847311  1
  V  V55  1  0.49559176  0.25264353  0.74091076  1
  V  V56  1  0.62757170  0.62314481  0.49553391  1
  V  V57  1  0.37067086  0.12997259  0.74572994  1
  V  V58  1  0.86790671  0.13193716  0.25702123  1
  V  V59  1  0.25163910  0.87660525  0.12446452  1
  V  V60  1  0.37130277  0.35651597  0.50512165  1
  V  V61  1  0.62463844  0.12313416  -0.00191671  1
  V  V62  1  0.87718899  0.87859941  0.50001227  1
  V  V63  1  0.62239736  0.00251608  0.62282146  1
  V  V64  1  0.12429136  0.87398276  0.75196466  1
  V  V65  1  0.50116142  0.62456992  0.62386257  1
  V  V66  1  0.62341976  0.25304769  0.86755465  1
  V  V67  1  0.49353656  0.49675223  0.49635074  1
  V  V68  1  0.76227979  0.76703678  0.01211114  1
  V  V69  1  -0.00934982  0.00080879  0.00077767  1
  V  V70  1  0.12396694  0.74706940  0.87617611  1
  V  V71  1  0.12432087  0.37884264  0.24898625  1
  V  V72  1  0.37762588  0.62043938  0.75606410  1
  V  V73  1  0.12371388  0.12880133  0.00217086  1
  V  V74  1  0.12342421  0.50000460  0.62394387  1
  V  V75  1  0.89237329  0.50003440  0.87329405  1
  V  V76  1  0.62837138  0.88233022  0.23414278  1
  V  V77  1  0.24900553  0.50033372  0.24319333  1
  V  V78  1  0.25420171  0.24996716  0.00224354  1
  V  V79  1  0.74824175  0.87561685  0.62327979  1
  V  V80  1  0.75517418  0.01015350  0.74737875  1
  V  V81  1  0.62791826  0.49373964  0.62129663  1
  V  V82  1  0.37552932  0.74969351  0.62613144  1
  V  V83  1  0.75753594  0.13212737  0.86613063  1
  V  V84  1  0.11426598  -0.00214141  0.62270117  1
  Zn  Zn85  1  0.87213718  0.25960072  0.13209106  1
  Zn  Zn86  1  0.62511804  0.37344633  0.74479385  1
  Zn  Zn87  1  -0.00297170  0.62199313  0.62218826  1
  Zn  Zn88  1  0.74929327  0.75029896  0.49702278  1
  Zn  Zn89  1  0.38475295  0.13345508  0.25098790  1
  Zn  Zn90  1  0.62741904  0.75023064  0.37150473  1
  Zn  Zn91  1  0.87240132  0.00248680  0.87458792  1
  Zn  Zn92  1  0.37496583  0.49125250  0.37413555  1
  Zn  Zn93  1  0.37636568  0.00091145  0.87396467  1
  Zn  Zn94  1  0.86812591  0.62870081  0.75749103  1
  Zn  Zn95  1  0.37489490  0.87385903  0.49802385  1
  Zn  Zn96  1  0.11724652  0.25486269  0.87813700  1
  Zn  Zn97  1  0.25570446  0.00106171  0.25372903  1
  Zn  Zn98  1  0.63112788  0.49314481  0.11947376  1
  Zn  Zn99  1  -0.01153087  0.11875558  0.63058278  1
  Zn  Zn100  1  0.24921568  0.87447242  0.62478427  1
  Zn  Zn101  1  0.49361228  0.37955047  0.86598528  1
  Zn  Zn102  1  0.50259679  0.74915000  0.75170011  1
  Zn  Zn103  1  0.12042561  0.62308584  0.49972382  1
  Zn  Zn104  1  0.50193969  0.35935717  0.36366477  1
  Zn  Zn105  1  0.74926502  -0.00635713  0.23860093  1
  Zn  Zn106  1  0.37517268  0.00118953  0.37364109  1
  Zn  Zn107  1  0.22162182  0.20682558  0.20944442  1
  Zn  Zn108  1  0.17893847  0.18658879  0.68925560  1
  Zn  Zn109  1  0.18642612  0.69019844  0.18890148  1
  Zn  Zn110  1  0.18803862  0.68415795  0.68776042  1
  Zn  Zn111  1  0.69360282  0.15898243  0.17803059  1
  Zn  Zn112  1  0.67673204  0.19914012  0.65836006  1
  Zn  Zn113  1  0.69089827  0.68731812  0.18619950  1
  Zn  Zn114  1  0.68846106  0.68464595  0.68562426  1
  Zn  Zn115  1  0.31482345  0.30759106  0.31986524  1
  Zn  Zn116  1  0.31039467  0.31103397  0.81459406  1
  Zn  Zn117  1  0.31474981  0.81205581  0.31297518  1
  Zn  Zn118  1  0.31409405  0.81120765  0.81242379  1
  Zn  Zn119  1  0.80085004  0.30375950  0.31709146  1
  Zn  Zn120  1  0.81092136  0.32219136  0.81262628  1
  Zn  Zn121  1  0.80631196  0.81368940  0.31330838  1
  Zn  Zn122  1  0.81172076  0.81553417  0.81213829  1
  Zn  Zn123  1  0.19061671  0.43878059  0.43883478  1
  Zn  Zn124  1  0.18720586  0.43855848  0.93606458  1
  Zn  Zn125  1  0.18797453  0.93865693  0.44163778  1
  Zn  Zn126  1  0.18237077  0.93908161  0.93715602  1
  Zn  Zn127  1  0.68583543  0.43097106  0.42583224  1
  Zn  Zn128  1  0.68543257  0.43407612  0.93689381  1
  Zn  Zn129  1  0.68512637  0.94129526  0.43621294  1
  Zn  Zn130  1  0.69053499  0.94034463  0.93770858  1
  Zn  Zn131  1  0.31546076  0.06157933  0.06276564  1
  Zn  Zn132  1  0.30871064  0.06186643  0.56128822  1
  Zn  Zn133  1  0.31475436  0.56010854  0.06199664  1
  Zn  Zn134  1  0.31026079  0.56141503  0.56582145  1
  Zn  Zn135  1  0.81203374  0.06976573  0.06530735  1
  Zn  Zn136  1  0.81102254  0.06403638  0.55966819  1
  Zn  Zn137  1  0.81956675  0.56576941  0.06130926  1
  Zn  Zn138  1  0.81390322  0.56143869  0.55949015  1
  Zn  Zn139  1  0.43979449  0.43149754  0.18370850  1
  Zn  Zn140  1  0.43698185  0.43635543  0.68051533  1
  Zn  Zn141  1  0.43741881  0.94380078  0.19165961  1
  Zn  Zn142  1  0.43486745  0.93594161  0.68946721  1
  Zn  Zn143  1  0.93574591  0.43539795  0.19010561  1
  Zn  Zn144  1  0.93737349  0.43527998  0.68821281  1
  Zn  Zn145  1  0.93927084  0.95642825  0.19167239  1
  Zn  Zn146  1  0.93474815  0.93270889  0.69158872  1
  Zn  Zn147  1  0.06474548  0.06487218  0.31476063  1
  Zn  Zn148  1  0.05958332  0.06561749  0.81306201  1
  Zn  Zn149  1  0.06240385  0.55728384  0.31659942  1
  Zn  Zn150  1  0.06602273  0.56466070  0.81197074  1
  Zn  Zn151  1  0.56588440  0.06875477  0.31159748  1
  Zn  Zn152  1  0.56430384  0.06372971  0.81107357  1
  Zn  Zn153  1  0.56458872  0.55510470  0.31348257  1
  Zn  Zn154  1  0.56735879  0.56512239  0.81102876  1
  Zn  Zn155  1  0.44057335  0.18723619  0.43558264  1
  Zn  Zn156  1  0.43591854  0.18947975  0.93269187  1
  Zn  Zn157  1  0.43845546  0.68781334  0.43619261  1
  Zn  Zn158  1  0.44341218  0.68948288  0.93595036  1
  Zn  Zn159  1  0.94155961  0.18788181  0.43918900  1
  Zn  Zn160  1  0.93489420  0.19004365  0.93842608  1
  Zn  Zn161  1  0.93722571  0.68210862  0.43816146  1
  Zn  Zn162  1  0.93526709  0.68019862  0.94218917  1
  Zn  Zn163  1  0.06577551  0.31741300  0.06648821  1
  Zn  Zn164  1  0.05969664  0.31147302  0.56980532  1
  Zn  Zn165  1  0.06489811  0.81347907  0.05866438  1
  Zn  Zn166  1  0.06178364  0.81208499  0.56293022  1
  Zn  Zn167  1  0.56475319  0.31599852  0.06052587  1
  Zn  Zn168  1  0.55287317  0.29153206  0.52877633  1
  Zn  Zn169  1  0.56676242  0.80818553  0.05920252  1
  Zn  Zn170  1  0.56210005  0.81176847  0.56007339  1
  O  O171  1  0.11556295  0.12279628  0.12066827  1
  O  O172  1  0.12233462  0.11500155  0.62033922  1
  O  O173  1  0.13401856  0.62604897  0.11154299  1
  O  O174  1  0.12390189  0.61073243  0.62596526  1
  O  O175  1  0.60633843  0.13660604  0.10292042  1
  O  O176  1  0.60966901  0.10721507  0.63604185  1
  O  O177  1  0.61904845  0.62367222  0.11451992  1
  O  O178  1  0.62382234  0.61388724  0.61554810  1
  O  O179  1  0.37766710  0.37195764  0.39040485  1
  O  O180  1  0.37431837  0.37535080  0.88660598  1
  O  O181  1  0.38940660  0.87523847  0.37409225  1
  O  O182  1  0.38514270  0.87397475  0.88080389  1
  O  O183  1  0.86939253  0.38749110  0.36838303  1
  O  O184  1  0.86979883  0.39221018  0.88684589  1
  O  O185  1  0.88175675  0.87720833  0.38149328  1
  O  O186  1  0.88751578  0.87997311  0.87140123  1
  O  O187  1  0.25335558  0.00809957  0.37916494  1
  O  O188  1  0.24768265  0.00601442  0.86509993  1
  O  O189  1  0.25334382  0.50934896  0.36668051  1
  O  O190  1  0.24644512  0.50494075  0.86001188  1
  O  O191  1  0.76437503  -0.00915267  0.36828308  1
  O  O192  1  0.74921488  0.01162428  0.86507690  1
  O  O193  1  0.75942172  0.50459343  0.36467527  1
  O  O194  1  0.75024581  0.49706494  0.86195398  1
  O  O195  1  0.25198224  0.49620308  0.13698805  1
  O  O196  1  0.24219418  0.49513237  0.63520253  1
  O  O197  1  0.24346702  0.99453898  0.12600155  1
  O  O198  1  0.24099305  0.99708747  0.63691474  1
  O  O199  1  0.75507184  0.50331815  0.13758904  1
  O  O200  1  0.74884757  0.49362954  0.63019856  1
  O  O201  1  0.73719146  1.05311634  0.14381929  1
  O  O202  1  0.74071987  0.99792284  0.62851964  1
  O  O203  1  0.01132924  0.36906727  0.24621999  1
  O  O204  1  0.00730593  0.36337007  0.74530936  1
  O  O205  1  0.00471150  0.86529383  0.25490981  1
  O  O206  1  0.00387884  0.86345768  0.75844949  1
  O  O207  1  0.51101433  0.36697393  0.24602643  1
  O  O208  1  0.50071786  0.36701481  0.74615230  1
  O  O209  1  0.50769811  0.87005167  0.25422890  1
  O  O210  1  0.50620950  0.87293639  0.75833810  1
  O  O211  1  0.50417055  0.12869120  0.23168502  1
  O  O212  1  0.48928052  0.12780809  0.74313565  1
  O  O213  1  0.49885162  0.62645787  0.24237033  1
  O  O214  1  0.49396367  0.62578344  0.74273628  1
  O  O215  1  0.99995450  0.13572412  0.24519083  1
  O  O216  1  1.00138746  0.14188659  0.74786561  1
  O  O217  1  0.98655594  0.61949320  0.25654724  1
  O  O218  1  0.99728362  0.63698040  0.74926750  1
  O  O219  1  0.36458349  0.25923841  -0.00633351  1
  O  O220  1  0.37112061  0.25877070  0.50737593  1
  O  O221  1  0.37135425  0.75491252  0.00446807  1
  O  O222  1  0.36794995  0.74794210  0.50840950  1
  O  O223  1  0.86690331  0.26070740  -0.00127682  1
  O  O224  1  0.88069640  0.25453932  0.51125982  1
  O  O225  1  0.86039142  0.74669585  -0.00513985  1
  O  O226  1  0.87451368  0.75861933  0.50663352  1
  O  O227  1  0.11747333  0.24284513  0.49631854  1
  O  O228  1  0.12842564  0.24381813  0.99805653  1
  O  O229  1  0.13267891  0.74673862  0.49441847  1
  O  O230  1  0.13098850  0.74104620  0.99434056  1
  O  O231  1  0.64572968  0.22624368  0.53609413  1
  O  O232  1  0.63055025  0.24835788  0.98765212  1
  O  O233  1  0.62482456  0.73379680  0.49914582  1
  O  O234  1  0.63576195  0.74321056  0.99261030  1
  O  O235  1  0.49212190  0.24398490  0.11500739  1
  O  O236  1  0.50251579  0.23816342  0.63288699  1
  O  O237  1  0.49726079  0.73783182  0.12663933  1
  O  O238  1  0.49280557  0.74292044  0.62587678  1
  O  O239  1  1.00192256  0.24755295  0.13692594  1
  O  O240  1  0.98449195  0.25000691  0.63452563  1
  O  O241  1  1.01017467  0.74426594  0.13295631  1
  O  O242  1  0.99197497  0.74941782  0.63380742  1
  O  O243  1  0.01138613  0.24809415  0.36624837  1
  O  O244  1  -0.00204105  0.25004985  0.86321848  1
  O  O245  1  0.01317721  0.75581718  0.38100638  1
  O  O246  1  0.00207283  0.75467842  0.87182934  1
  O  O247  1  0.51864263  0.26285951  0.42057252  1
  O  O248  1  0.50605518  0.25041843  0.85927831  1
  O  O249  1  0.50277409  0.75561761  0.36659872  1
  O  O250  1  0.51222869  0.76298456  0.87632077  1
  O  O251  1  0.23610288  0.11918810  0.49122557  1
  O  O252  1  0.24543775  0.13167442  0.99732055  1
  O  O253  1  0.24840066  0.63287736  0.49218976  1
  O  O254  1  0.24675063  0.62649698  0.99294143  1
  O  O255  1  0.75521424  0.11990227  0.48062649  1
  O  O256  1  0.74044540  0.13420741  0.98529305  1
  O  O257  1  0.74306717  0.62303891  0.49011204  1
  O  O258  1  0.74164764  0.62610737  1.00127128  1
  O  O259  1  0.25412444  0.37170424  0.00451059  1
  O  O260  1  0.26354752  0.38135173  0.50914899  1
  O  O261  1  0.25388186  0.86991224  0.00316788  1
  O  O262  1  0.25248222  0.86085734  0.50162064  1
  O  O263  1  0.75734678  0.36721716  -0.00327696  1
  O  O264  1  0.74798520  0.38681207  0.51283445  1
  O  O265  1  0.75076537  0.86748129  0.00095804  1
  O  O266  1  0.75606610  0.87318357  0.50583977  1
  O  O267  1  0.13415273  0.48804181  0.25936886  1
  O  O268  1  0.12970304  0.49303988  0.74325625  1
  O  O269  1  0.12012126  0.98558461  0.24502093  1
  O  O270  1  0.13026558  0.99524752  0.74702678  1
  O  O271  1  0.64245290  0.50653984  0.24297952  1
  O  O272  1  0.63406462  0.49967604  0.74095387  1
  O  O273  1  0.62368316  0.98467878  0.25482081  1
  O  O274  1  0.63156925  0.99233742  0.74435453  1
  O  O275  1  0.37316060  0.01319302  0.25427254  1
  O  O276  1  0.36365566  0.00456837  0.75254873  1
  O  O277  1  0.36895694  0.50406221  0.25196626  1
  O  O278  1  0.36728295  0.50862737  0.74263844  1
  O  O279  1  0.86954021  0.01294415  0.25811439  1
  O  O280  1  0.85949329  -0.00144008  0.74865272  1
  O  O281  1  0.86835768  0.50564595  0.25672863  1
  O  O282  1  0.86887726  0.49918223  0.76087483  1
  O  O283  1  0.13438223  0.36522115  0.37076729  1
  O  O284  1  0.12973205  0.37415610  0.86005616  1
  O  O285  1  0.11897196  0.87058646  0.37053260  1
  O  O286  1  0.11512293  0.86750514  0.87057583  1
  O  O287  1  0.62200029  0.38180197  0.34671928  1
  O  O288  1  0.62039593  0.36327905  0.86948517  1
  O  O289  1  0.61392080  0.87176522  0.37151314  1
  O  O290  1  0.62100142  0.86982693  0.86975593  1
  O  O291  1  0.39182544  0.12310140  0.11946561  1
  O  O292  1  0.37730940  0.11805144  0.63802916  1
  O  O293  1  0.38294677  0.63002953  0.12924720  1
  O  O294  1  0.37814770  0.63306148  0.63364961  1
  O  O295  1  0.89075277  0.13307845  0.13702377  1
  O  O296  1  0.87033572  0.14204982  0.62182283  1
  O  O297  1  0.87842434  0.62326211  0.14128847  1
  O  O298  1  0.87446140  0.63757209  0.62563014  1
  O  O299  1  0.24296409  0.26008480  0.10852280  1
  O  O300  1  0.24235368  0.26239857  0.63047026  1
  O  O301  1  0.25625709  0.75657246  0.11852178  1
  O  O302  1  0.25610696  0.74777117  0.61763306  1
  O  O303  1  0.75298419  0.24102232  0.10872869  1
  O  O304  1  0.76611674  0.26826377  0.63302532  1
  O  O305  1  0.74901730  0.74990379  0.11050742  1
  O  O306  1  0.75701863  0.75614358  0.62281938  1
  O  O307  1  0.23723849  0.23643913  0.38169129  1
  O  O308  1  0.24385681  0.24380719  0.88457284  1
  O  O309  1  0.24336667  0.74483623  0.38159655  1
  O  O310  1  0.24532696  0.74368500  0.88059390  1
  O  O311  1  0.73310811  0.25954582  0.39431575  1
  O  O312  1  0.74219825  0.24779412  0.87472354  1
  O  O313  1  0.74724909  0.73868477  0.37709986  1
  O  O314  1  0.74102252  0.75578055  0.88097037  1
  O  O315  1  0.00393273  0.12335829  0.00762283  1
  O  O316  1  0.01007600  0.12337094  0.50873952  1
  O  O317  1  0.00993105  0.60844083  -0.00459192  1
  O  O318  1  0.00231220  0.61248588  0.50219811  1
  O  O319  1  0.50330344  0.11863385  -0.00113622  1
  O  O320  1  0.48930265  0.11410883  0.51621536  1
  O  O321  1  0.50733936  0.61995411  0.00524063  1
  O  O322  1  0.50654058  0.61670538  0.50286741  1
  O  O323  1  0.48238528  0.38566651  0.51615493  1
  O  O324  1  0.49240890  0.38464571  0.99721612  1
  O  O325  1  0.49819938  0.87954852  0.49113794  1
  O  O326  1  0.49859285  0.88114372  0.99399861  1
  O  O327  1  1.00486922  0.38774726  0.50391838  1
  O  O328  1  0.99680637  0.38884627  1.00226364  1
  O  O329  1  0.99168814  0.87182963  0.49185390  1
  O  O330  1  1.00757494  0.88719843  0.99217287  1
  O  O331  1  0.49727723  0.49286752  0.38462507  1
  O  O332  1  0.50504940  0.49992642  0.88365262  1
  O  O333  1  0.49958317  0.99487151  0.38301278  1
  O  O334  1  0.50089076  0.98878615  0.87904075  1
  O  O335  1  0.98517188  0.49954758  0.38070882  1
  O  O336  1  0.99310795  0.49669683  0.87233456  1
  O  O337  1  0.99240340  0.98493522  0.36713143  1
  O  O338  1  0.99770894  0.99399940  0.88277076  1
  O  O339  1  0.00706732  0.01108050  0.11855018  1
  O  O340  1  0.00971023  0.00030429  0.63743728  1
  O  O341  1  0.00167217  0.50019620  0.11685657  1
  O  O342  1  0.00589683  0.50063173  0.62006734  1
  O  O343  1  0.49944698  0.00298620  0.11149983  1
  O  O344  1  0.50363988  0.00144454  0.62123405  1
  O  O345  1  0.50116744  0.51059311  0.11696904  1
  O  O346  1  0.50985109  0.50643285  0.61822575  1
  O  O347  1  0.24800222  0.38311410  0.24405150  1
  O  O348  1  0.24532666  0.38033699  0.74375357  1
  O  O349  1  0.24408715  0.87833826  0.24573281  1
  O  O350  1  0.24323843  0.88211210  0.75147842  1
  O  O351  1  0.74421804  0.38647047  0.24875320  1
  O  O352  1  0.74757002  0.38944425  0.73900593  1
  O  O353  1  0.73426777  0.87438288  0.24776632  1
  O  O354  1  0.74440519  0.88335755  0.74237195  1
  O  O355  1  0.22674700  0.11364617  0.27721392  1
  O  O356  1  0.25238136  0.11969704  0.75363001  1
  O  O357  1  0.25416637  0.61928467  0.25495565  1
  O  O358  1  0.25790528  0.61710012  0.75468912  1
  O  O359  1  0.76945401  0.14808666  0.26782172  1
  O  O360  1  0.73689497  0.11951598  0.75447204  1
  O  O361  1  0.75956193  0.61771320  0.25465462  1
  O  O362  1  0.75185185  0.60775991  0.74342870  1
  O  O363  1  0.36074495  0.12733355  0.37931370  1
  O  O364  1  0.36616641  0.12264304  0.86339867  1
  O  O365  1  0.36403440  0.62751010  0.36746597  1
  O  O366  1  0.37349212  0.63149435  0.86228324  1
  O  O367  1  0.89144598  0.11312167  0.36895874  1
  O  O368  1  0.86062172  0.12578259  0.87490988  1
  O  O369  1  0.86634476  0.61839697  0.36762488  1
  O  O370  1  0.87563991  0.60570090  0.87467952  1
  O  O371  1  0.13997787  0.37523138  0.13604178  1
  O  O372  1  0.13129662  0.38433142  0.63295117  1
  O  O373  1  0.13144119  0.87852596  0.13262647  1
  O  O374  1  0.12605337  0.88010585  0.63299225  1
  O  O375  1  0.62414554  0.37807765  0.13637191  1
  O  O376  1  0.63474736  0.38806416  0.62176028  1
  O  O377  1  0.61823569  0.87648369  0.13560194  1
  O  O378  1  0.62745081  0.88183088  0.62973025  1
  O  O379  1  0.12390469  0.26272066  0.26059035  1
  O  O380  1  0.11193434  0.25823746  0.75082366  1
  O  O381  1  0.13185642  0.76233693  0.26026573  1
  O  O382  1  0.11785414  0.75253473  0.75475121  1
  O  O383  1  0.63584347  0.25426292  0.23774050  1
  O  O384  1  0.61614096  0.25111575  0.75027274  1
  O  O385  1  0.61892442  0.75835917  0.24862791  1
  O  O386  1  0.62644871  0.75479685  0.75652848  1
  O  O387  1  0.33259978  0.23323200  0.24058292  1
  O  O388  1  0.38095955  0.24125772  0.75251936  1
  O  O389  1  0.38251754  0.74342396  0.24257645  1
  O  O390  1  0.37669389  0.74134821  0.74223857  1
  O  O391  1  0.88660498  0.25208331  0.25374989  1
  O  O392  1  0.88472837  0.25946544  0.74696386  1
  O  O393  1  0.87916387  0.73915767  0.25379512  1
  O  O394  1  0.88024985  0.74951260  0.74332312  1
  O  O395  1  0.38448718  0.50401954  0.49861549  1
  O  O396  1  0.38581439  0.49401031  1.00027024  1
  O  O397  1  0.38557230  0.99382755  0.50178410  1
  O  O398  1  0.38304128  0.99230009  0.99454749  1
  O  O399  1  0.87955657  0.50121675  0.48519293  1
  O  O400  1  0.88842733  0.49822156  0.99317839  1
  O  O401  1  0.87353072  0.98692789  0.49520060  1
  O  O402  1  0.88678097  1.00855589  1.00136415  1
  O  O403  1  0.11635858  0.00987448  0.00598369  1
  O  O404  1  0.12587595  0.00469154  0.51372838  1
  O  O405  1  0.11391263  0.50380252  -0.00272755  1
  O  O406  1  0.11988859  0.50080515  0.50733279  1
  O  O407  1  0.61628760  0.01263294  -0.01052865  1
  O  O408  1  0.61116858  -0.00648819  0.51015085  1
  O  O409  1  0.61931673  0.50701127  0.00019530  1
  O  O410  1  0.61815740  0.50614483  0.50161563  1
  O  O411  1  0.36169984  0.38075362  0.11286551  1
  O  O412  1  0.36285020  0.37841902  0.61495011  1
  O  O413  1  0.37162694  0.87088453  0.11959845  1
  O  O414  1  0.37234271  0.86011279  0.62638886  1
  O  O415  1  0.87740566  0.37634558  0.11027625  1
  O  O416  1  0.86633890  0.37165181  0.62243658  1
  O  O417  1  0.89799872  0.86031930  0.13998913  1
  O  O418  1  0.87086214  0.86628568  0.61853772  1
  O  O419  1  0.12509504  0.13129361  0.38892793  1
  O  O420  1  0.13006562  0.12671085  0.88447046  1
  O  O421  1  0.13567189  0.63249420  0.37321508  1
  O  O422  1  0.13257025  0.63028250  0.88115716  1
  O  O423  1  0.62128068  0.12898020  0.38846375  1
  O  O424  1  0.62741551  0.13751201  0.87899214  1
  O  O425  1  0.63557920  0.62241663  0.37960741  1
  O  O426  1  0.62026603  0.63692293  0.88402950  1
