# generated using pymatgen
data_V85Zn86O256
_symmetry_space_group_name_H-M   'P 1'
_cell_length_a   16.92619964
_cell_length_b   16.93499551
_cell_length_c   16.92787186
_cell_angle_alpha   90.06524021
_cell_angle_beta   89.94569483
_cell_angle_gamma   89.94923926
_symmetry_Int_Tables_number   1
_chemical_formula_structural   V85Zn86O256
_chemical_formula_sum   'V85 Zn86 O256'
_cell_volume   4852.28453944
_cell_formula_units_Z   1
loop_
 _symmetry_equiv_pos_site_id
 _symmetry_equiv_pos_as_xyz
  1  'x, y, z'
loop_
 _atom_site_type_symbol
 _atom_site_label
 _atom_site_symmetry_multiplicity
 _atom_site_fract_x
 _atom_site_fract_y
 _atom_site_fract_z
 _atom_site_occupancy
  V  V0  1  0.00338714  0.87905495  0.87005226  1
  V  V1  1  0.13047031  0.87683396  0.74401176  1
  V  V2  1  0.12059271  0.12820440  0.49878966  1
  V  V3  1  0.63275086  0.62685501  -0.00669988  1
  V  V4  1  0.50369499  0.25057007  0.26320243  1
  V  V5  1  0.74977561  0.36779725  0.12704188  1
  V  V6  1  0.49683891  0.37668429  0.87506820  1
  V  V7  1  0.62838617  0.87403965  0.75374420  1
  V  V8  1  0.50126035  0.12925196  0.62757691  1
  V  V9  1  0.11948079  0.74882032  0.36893035  1
  V  V10  1  0.86936112  0.00515245  0.87980755  1
  V  V11  1  0.13047507  0.12277855  -0.00307250  1
  V  V12  1  -0.00257273  0.87463968  0.36786248  1
  V  V13  1  0.12515182  0.87025436  0.24219691  1
  V  V14  1  0.00155074  0.37360862  0.37161057  1
  V  V15  1  0.86800558  0.12465589  0.24401183  1
  V  V16  1  0.74640875  0.75147669  0.49766135  1
  V  V17  1  -0.00241113  0.13309876  0.12475880  1
  V  V18  1  0.30723230  0.92418570  0.56781782  1
  V  V19  1  0.87296781  0.37738536  0.49331242  1
  V  V20  1  0.24534752  0.50454865  0.75665652  1
  V  V21  1  0.12104990  0.37427800  0.74741957  1
  V  V22  1  0.75892569  0.49640084  0.25411103  1
  V  V23  1  0.11774269  0.00102757  0.62337773  1
  V  V24  1  0.61841689  0.75154024  0.36793503  1
  V  V25  1  0.25479679  0.12175773  0.37295020  1
  V  V26  1  0.38301034  0.11972093  0.24708645  1
  V  V27  1  0.36481804  0.75747566  0.12175514  1
  V  V28  1  0.38469157  0.49725481  0.37535266  1
  V  V29  1  0.75012925  0.87868636  0.62394016  1
  V  V30  1  0.37489326  0.25192304  0.62751000  1
  V  V31  1  0.87718662  0.24396886  0.62180293  1
  V  V32  1  0.12368138  0.50166640  0.62224442  1
  V  V33  1  -0.00177012  0.49907740  0.00594897  1
  V  V34  1  0.62383556  0.87886451  0.24807099  1
  V  V35  1  0.37115573  0.74868661  0.62044182  1
  V  V36  1  0.50457080  0.63758856  0.12855040  1
  V  V37  1  0.24958263  0.75169316  0.50141181  1
  V  V38  1  0.62567761  0.49904870  0.12790114  1
  V  V39  1  -0.00516196  0.00527223  0.49802743  1
  V  V40  1  0.62813451  0.00667315  0.11821142  1
  V  V41  1  0.00098891  0.00019467  0.00050725  1
  V  V42  1  0.12857269  0.49338649  0.12621354  1
  V  V43  1  0.62398160  0.49901626  0.62740286  1
  V  V44  1  0.38099038  0.63083312  0.25094616  1
  V  V45  1  0.25683519  -0.00528472  0.24958821  1
  V  V46  1  0.37710036  0.25430055  0.13035946  1
  V  V47  1  0.87741127  0.12369117  0.74836106  1
  V  V48  1  0.87535582  0.63689885  0.24848948  1
  V  V49  1  0.49886100  0.62361880  0.62420265  1
  V  V50  1  0.74543494  0.11551444  0.37141705  1
  V  V51  1  0.12288972  0.62690420  0.49906926  1
  V  V52  1  -0.00391094  0.74667953  0.74483360  1
  V  V53  1  0.62331533  0.36956140  0.75288977  1
  V  V54  1  0.74434638  0.24862385  0.49153060  1
  V  V55  1  0.37988615  0.37376165  0.49696629  1
  V  V56  1  0.50006517  0.75122579  0.75429326  1
  V  V57  1  0.50022183  0.50000485  0.00324458  1
  V  V58  1  0.25961549  0.00471640  0.76193896  1
  V  V59  1  0.25081189  0.62413843  0.37374376  1
  V  V60  1  0.25352276  0.49159718  0.24746736  1
  V  V61  1  0.44403085  0.19715679  0.79644492  1
  V  V62  1  0.61982586  0.12581826  0.49385538  1
  V  V63  1  -0.00139556  0.63567848  0.13175816  1
  V  V64  1  0.75402485  0.62182088  0.37457762  1
  V  V65  1  0.12690559  0.24794475  0.87504582  1
  V  V66  1  -0.00492982  0.37340549  0.87510257  1
  V  V67  1  0.75008570  0.37375580  0.62614467  1
  V  V68  1  0.87178736  0.74435466  0.62607502  1
  V  V69  1  0.74952839  0.00645520  0.75330495  1
  V  V70  1  0.74869593  0.23678328  0.00172943  1
  V  V71  1  0.62165223  0.37286438  0.26468060  1
  V  V72  1  0.48851872  0.88139609  0.37670843  1
  V  V73  1  0.87146172  0.36851088  0.00358750  1
  V  V74  1  0.75695813  0.86763956  0.12959606  1
  V  V75  1  0.13092390  -0.00103971  0.12453979  1
  V  V76  1  0.87842197  0.86203738  0.00138686  1
  V  V77  1  0.87229145  0.51230463  0.87388473  1
  V  V78  1  0.49690357  0.00909380  0.00211022  1
  V  V79  1  0.36606904  0.37836203  0.00797261  1
  V  V80  1  -0.00223586  0.24636845  0.74675152  1
  V  V81  1  0.63108955  0.24258683  0.88032517  1
  V  V82  1  0.75427490  0.51111874  0.75423325  1
  V  V83  1  -0.00476803  0.50242238  0.49303899  1
  V  V84  1  0.36820394  0.62698478  0.75862785  1
  Zn  Zn85  1  0.50303971  0.49496204  0.49832197  1
  Zn  Zn86  1  -0.00130815  0.25083820  0.24750100  1
  Zn  Zn87  1  0.24784582  0.25297717  0.49789122  1
  Zn  Zn88  1  0.87048067  -0.00274314  0.36863375  1
  Zn  Zn89  1  -0.00636547  0.62435262  0.62393739  1
  Zn  Zn90  1  0.24828189  0.37318263  0.62325927  1
  Zn  Zn91  1  0.50056596  0.88194494  0.87960647  1
  Zn  Zn92  1  0.76520017  0.73984472  -0.00540696  1
  Zn  Zn93  1  0.36633328  0.50586379  0.88275438  1
  Zn  Zn94  1  0.62366456  0.62341989  0.49813975  1
  Zn  Zn95  1  0.37100481  0.88370262  -0.01367622  1
  Zn  Zn96  1  0.87313907  0.87743864  0.49533377  1
  Zn  Zn97  1  0.12498516  0.24742721  0.36826190  1
  Zn  Zn98  1  0.13185789  0.74138439  0.86952392  1
  Zn  Zn99  1  0.24832354  0.25300262  0.01119333  1
  Zn  Zn100  1  0.13507023  0.62413690  -0.00766857  1
  Zn  Zn101  1  0.62160266  0.00256403  0.62501054  1
  Zn  Zn102  1  0.63681339  0.74497069  0.87223977  1
  Zn  Zn103  1  0.13262950  0.36863281  0.24747018  1
  Zn  Zn104  1  0.25094113  0.74728161  -0.01802710  1
  Zn  Zn105  1  0.48951120  -0.00243918  0.50138422  1
  Zn  Zn106  1  0.26951438  0.12743286  0.87522739  1
  Zn  Zn107  1  0.19063431  0.18830348  0.18828351  1
  Zn  Zn108  1  0.18796861  0.18420761  0.68644413  1
  Zn  Zn109  1  0.18768008  0.67984363  0.18497303  1
  Zn  Zn110  1  0.18665678  0.69027480  0.68762590  1
  Zn  Zn111  1  0.68476416  0.18858093  0.18970948  1
  Zn  Zn112  1  0.68775587  0.18821225  0.68683763  1
  Zn  Zn113  1  0.69119022  0.69121278  0.18538887  1
  Zn  Zn114  1  0.68693986  0.68756675  0.68658938  1
  Zn  Zn115  1  0.31542666  0.30923031  0.31695607  1
  Zn  Zn116  1  0.30457486  0.32302166  0.81780772  1
  Zn  Zn117  1  0.30988738  0.81026105  0.30940887  1
  Zn  Zn118  1  0.31228578  0.81742357  0.81622966  1
  Zn  Zn119  1  0.81504833  0.30574784  0.31136626  1
  Zn  Zn120  1  0.80977101  0.31550109  0.81403562  1
  Zn  Zn121  1  0.80960396  0.81282521  0.31169331  1
  Zn  Zn122  1  0.81383256  0.81093354  0.81644675  1
  Zn  Zn123  1  0.19093872  0.43598318  0.43567599  1
  Zn  Zn124  1  0.18336452  0.43804735  0.93803394  1
  Zn  Zn125  1  0.18027936  0.94272234  0.42852493  1
  Zn  Zn126  1  0.19425400  0.92913362  0.93698472  1
  Zn  Zn127  1  0.68815967  0.43958266  0.43918107  1
  Zn  Zn128  1  0.68833489  0.43722963  0.93842340  1
  Zn  Zn129  1  0.67978015  0.93949705  0.43865849  1
  Zn  Zn130  1  0.69015601  0.93233428  0.94077268  1
  Zn  Zn131  1  0.31426288  0.06605814  0.06666714  1
  Zn  Zn132  1  0.30687801  0.08547123  0.57108601  1
  Zn  Zn133  1  0.31188870  0.56941807  0.06422796  1
  Zn  Zn134  1  0.31055882  0.56167335  0.56311188  1
  Zn  Zn135  1  0.81068567  0.05451093  0.06817055  1
  Zn  Zn136  1  0.81103105  0.06313155  0.56074095  1
  Zn  Zn137  1  0.81544721  0.55806676  0.06707418  1
  Zn  Zn138  1  0.80976537  0.56212500  0.56165119  1
  Zn  Zn139  1  0.44132640  0.43730689  0.18973458  1
  Zn  Zn140  1  0.43522222  0.43665413  0.69075365  1
  Zn  Zn141  1  0.44614244  0.93506214  0.18792972  1
  Zn  Zn142  1  0.44273695  0.94194915  0.69590234  1
  Zn  Zn143  1  0.93392087  0.43763438  0.18723683  1
  Zn  Zn144  1  0.93491625  0.43707008  0.68463670  1
  Zn  Zn145  1  0.93832936  0.94216133  0.18712207  1
  Zn  Zn146  1  0.93587872  0.93637917  0.68366791  1
  Zn  Zn147  1  0.06166402  0.06232917  0.31043318  1
  Zn  Zn148  1  0.06228703  0.06254599  0.81002630  1
  Zn  Zn149  1  0.06222171  0.55939416  0.30971737  1
  Zn  Zn150  1  0.05549497  0.56155591  0.81016584  1
  Zn  Zn151  1  0.56197264  0.05785779  0.31052028  1
  Zn  Zn152  1  0.56943091  0.05854418  0.81982801  1
  Zn  Zn153  1  0.56646072  0.56322207  0.31065670  1
  Zn  Zn154  1  0.55935430  0.55929387  0.81221287  1
  Zn  Zn155  1  0.43473066  0.18590761  0.43643579  1
  Zn  Zn156  1  0.44735486  0.18793619  0.96317545  1
  Zn  Zn157  1  0.43916165  0.68827829  0.43901503  1
  Zn  Zn158  1  0.44143318  0.68912517  0.94005145  1
  Zn  Zn159  1  0.93394109  0.18710674  0.43130969  1
  Zn  Zn160  1  0.93608135  0.18598778  0.93795233  1
  Zn  Zn161  1  0.93402081  0.68978532  0.43558955  1
  Zn  Zn162  1  0.96875786  0.67987213  0.92925529  1
  Zn  Zn163  1  0.06379494  0.31299403  0.06257016  1
  Zn  Zn164  1  0.05856932  0.31287386  0.56071927  1
  Zn  Zn165  1  0.06910902  0.81154903  0.05795617  1
  Zn  Zn166  1  0.06121674  0.81783572  0.55883278  1
  Zn  Zn167  1  0.56065598  0.30992519  0.06800393  1
  Zn  Zn168  1  0.55978185  0.30929318  0.56249474  1
  Zn  Zn169  1  0.56145760  0.81671994  0.06018072  1
  Zn  Zn170  1  0.56164717  0.81384598  0.56142979  1
  O  O171  1  0.12032837  0.12017840  0.11363281  1
  O  O172  1  0.13082759  0.11094278  0.61425652  1
  O  O173  1  0.11103076  0.61196263  0.12867266  1
  O  O174  1  0.12016661  0.61846259  0.61697291  1
  O  O175  1  0.63637397  0.10476915  0.12972651  1
  O  O176  1  0.61689855  0.12680812  0.61911512  1
  O  O177  1  0.62024775  0.61966605  0.12169494  1
  O  O178  1  0.61692182  0.61589452  0.62549332  1
  O  O179  1  0.37260340  0.38530804  0.38386744  1
  O  O180  1  0.38218515  0.37943538  0.88387123  1
  O  O181  1  0.39072134  0.86413457  0.37191340  1
  O  O182  1  0.38791675  0.87513722  0.86989858  1
  O  O183  1  0.87919594  0.36958785  0.38759263  1
  O  O184  1  0.87955963  0.37902646  0.88309701  1
  O  O185  1  0.88256019  0.87621126  0.37355285  1
  O  O186  1  0.88215230  0.88812341  0.88161222  1
  O  O187  1  0.24649023  0.01098080  0.36400325  1
  O  O188  1  0.24838930  0.00654955  0.86532037  1
  O  O189  1  0.26005003  0.50743169  0.36987592  1
  O  O190  1  0.24587479  0.49868217  0.86134772  1
  O  O191  1  0.74982284  0.01177221  0.37942323  1
  O  O192  1  0.75775046  -0.00517548  0.86642495  1
  O  O193  1  0.74494008  0.51034765  0.36796209  1
  O  O194  1  0.75950039  0.49369530  0.86666122  1
  O  O195  1  0.24191877  0.50603549  0.13599073  1
  O  O196  1  0.23556862  0.49956738  0.63114097  1
  O  O197  1  0.23742052  1.00612009  0.13259336  1
  O  O198  1  0.24669040  0.99259728  0.62343154  1
  O  O199  1  0.74494055  0.48922268  0.13432776  1
  O  O200  1  0.74306255  0.49335724  0.63074427  1
  O  O201  1  0.73907323  0.98146277  0.11936527  1
  O  O202  1  0.74883604  0.99303099  0.63204831  1
  O  O203  1  -0.00531328  0.37701143  0.26385847  1
  O  O204  1  0.00256954  0.36780504  0.75385300  1
  O  O205  1  0.00849583  0.88046532  0.25955697  1
  O  O206  1  0.00861243  0.87565514  0.75249053  1
  O  O207  1  0.50897793  0.36450704  0.25021081  1
  O  O208  1  0.50779663  0.38181503  0.76483286  1
  O  O209  1  0.51067976  0.87409494  0.26491732  1
  O  O210  1  0.51216619  0.86737465  0.74717341  1
  O  O211  1  0.49462117  0.13558718  0.25542759  1
  O  O212  1  0.50482685  0.12578617  0.74662531  1
  O  O213  1  0.49348058  0.61968740  0.24103688  1
  O  O214  1  0.49452795  0.62992404  0.74066991  1
  O  O215  1  0.99310387  0.12552419  0.24046977  1
  O  O216  1  0.98624035  0.12973938  0.75123221  1
  O  O217  1  0.99058936  0.61823921  0.24089873  1
  O  O218  1  0.99977483  0.64303825  0.74227658  1
  O  O219  1  0.37533001  0.26086455  0.01212589  1
  O  O220  1  0.37349994  0.25615557  0.50845460  1
  O  O221  1  0.37902902  0.74818024  0.01535277  1
  O  O222  1  0.37004610  0.74603945  0.51250791  1
  O  O223  1  0.86653447  0.26154056  -0.00735331  1
  O  O224  1  0.86799102  0.25379921  0.50608456  1
  O  O225  1  0.88879937  0.76114045  -0.00716189  1
  O  O226  1  0.86178790  0.75465659  0.50402297  1
  O  O227  1  0.12325663  0.23670827  0.50287704  1
  O  O228  1  0.12716204  0.24336097  0.99255280  1
  O  O229  1  0.12909666  0.74657879  0.49245943  1
  O  O230  1  0.12525056  0.74467657  0.99089053  1
  O  O231  1  0.63215971  0.23902210  0.50479022  1
  O  O232  1  0.63099324  0.25556602  0.98881774  1
  O  O233  1  0.63520589  0.74771051  0.49546133  1
  O  O234  1  0.62197703  0.73292119  0.99919069  1
  O  O235  1  0.48730304  0.25301868  0.13650656  1
  O  O236  1  0.49349403  0.23979258  0.62942545  1
  O  O237  1  0.49643860  0.73959221  0.12444183  1
  O  O238  1  0.49509855  0.74369324  0.63181684  1
  O  O239  1  1.00102932  0.23636569  0.12107715  1
  O  O240  1  0.98502078  0.25457261  0.62988177  1
  O  O241  1  1.00579071  0.73363084  0.12452453  1
  O  O242  1  0.98872477  0.75458368  0.62639338  1
  O  O243  1  0.00319962  0.26013616  0.37553123  1
  O  O244  1  0.00808814  0.25323897  0.86963709  1
  O  O245  1  0.01159966  0.75738310  0.37944258  1
  O  O246  1  -0.00650245  0.77014860  0.85970143  1
  O  O247  1  0.49625980  0.25122091  0.36253701  1
  O  O248  1  0.50655089  0.25476130  0.87306715  1
  O  O249  1  0.51465219  0.75513544  0.38246825  1
  O  O250  1  0.50675371  0.74570681  0.86008563  1
  O  O251  1  0.24019313  0.12660562  0.48987765  1
  O  O252  1  0.24405755  0.12895108  0.99496334  1
  O  O253  1  0.24280928  0.62969768  0.49342115  1
  O  O254  1  0.24807002  0.63058136  0.99921669  1
  O  O255  1  0.74191756  0.13104255  0.49287569  1
  O  O256  1  0.76019756  0.13806867  1.00612058  1
  O  O257  1  0.74727260  0.63169679  0.49190600  1
  O  O258  1  0.73634717  0.62183283  1.01029716  1
  O  O259  1  0.26232372  0.37402090  -0.00655946  1
  O  O260  1  0.26174936  0.37341002  0.50342629  1
  O  O261  1  0.25895462  0.86407122  -0.00307239  1
  O  O262  1  0.24830723  0.87434805  0.49840176  1
  O  O263  1  0.75476979  0.36981652  0.00930369  1
  O  O264  1  0.75480607  0.36802273  0.50375025  1
  O  O265  1  0.76320581  0.87041394  0.00812919  1
  O  O266  1  0.74691944  0.86940745  0.50667207  1
  O  O267  1  0.13560348  0.49622787  0.24453157  1
  O  O268  1  0.12490376  0.49824646  0.74212226  1
  O  O269  1  0.13160002  0.99355173  0.24194644  1
  O  O270  1  0.12959997  0.99769651  0.73921709  1
  O  O271  1  0.63405926  0.49190148  0.24628912  1
  O  O272  1  0.63026355  0.49122166  0.74395204  1
  O  O273  1  0.62331971  0.98631165  0.23990822  1
  O  O274  1  0.63350619  0.99337449  0.74808938  1
  O  O275  1  0.36850266  0.00608058  0.24039960  1
  O  O276  1  0.35764330  -0.00048802  0.74498273  1
  O  O277  1  0.37202553  0.50719525  0.25657572  1
  O  O278  1  0.36217392  0.50829822  0.74970608  1
  O  O279  1  0.87873954  0.01738519  0.25208050  1
  O  O280  1  0.86973923  0.00602369  0.75470984  1
  O  O281  1  0.86184931  0.50572556  0.24976289  1
  O  O282  1  0.86695182  0.49459364  0.75907811  1
  O  O283  1  0.11574588  0.37239072  0.37406576  1
  O  O284  1  0.11684976  0.36693553  0.86914038  1
  O  O285  1  0.11832078  0.86802568  0.36382601  1
  O  O286  1  0.11562667  0.87996375  0.86217055  1
  O  O287  1  0.62909511  0.37735750  0.36414458  1
  O  O288  1  0.61686058  0.36969436  0.87076086  1
  O  O289  1  0.62410507  0.86897249  0.36623962  1
  O  O290  1  0.62374797  0.87241049  0.86293828  1
  O  O291  1  0.37404714  0.13455305  0.14075785  1
  O  O292  1  0.38277498  0.14208300  0.63092675  1
  O  O293  1  0.38615154  0.63077988  0.13378357  1
  O  O294  1  0.38100980  0.63023004  0.63155784  1
  O  O295  1  0.88193790  0.11898558  0.13444803  1
  O  O296  1  0.86940681  0.13384196  0.63275662  1
  O  O297  1  0.88748822  0.61882501  0.13474137  1
  O  O298  1  0.87296083  0.63987596  0.61980986  1
  O  O299  1  0.26779002  0.24913102  0.12865932  1
  O  O300  1  0.25907894  0.25052309  0.62325890  1
  O  O301  1  0.26440224  0.74458592  0.12853945  1
  O  O302  1  0.25812068  0.74945608  0.61684377  1
  O  O303  1  0.74177135  0.26072632  0.11797060  1
  O  O304  1  0.75754403  0.25478783  0.61591620  1
  O  O305  1  0.75138358  0.76299246  0.11550917  1
  O  O306  1  0.75291802  0.75675056  0.61852293  1
  O  O307  1  0.24609288  0.23714125  0.37589480  1
  O  O308  1  0.23543669  0.24736065  0.87288345  1
  O  O309  1  0.24048452  0.74490253  0.38085414  1
  O  O310  1  0.24482061  0.74334839  0.86122638  1
  O  O311  1  0.75315130  0.24102655  0.38749448  1
  O  O312  1  0.73821584  0.25769923  0.88561049  1
  O  O313  1  0.74203741  0.74547956  0.38212808  1
  O  O314  1  0.74977076  0.75061837  0.88193900  1
  O  O315  1  0.00575365  0.11893379  0.00546620  1
  O  O316  1  0.00530933  0.11441637  0.49132010  1
  O  O317  1  -0.00770974  0.60830536  0.01962574  1
  O  O318  1  0.00249393  0.61808482  0.49945875  1
  O  O319  1  0.50875985  0.10945040  0.01202596  1
  O  O320  1  0.50357404  0.12338851  0.50687902  1
  O  O321  1  0.50909364  0.61806266  0.00882298  1
  O  O322  1  0.50182832  0.62212527  0.51350542  1
  O  O323  1  0.48622431  0.37716438  0.50622115  1
  O  O324  1  0.49477331  0.38007527  0.99261249  1
  O  O325  1  0.50704324  0.87911974  0.48476024  1
  O  O326  1  0.49588761  0.88558808  0.99947588  1
  O  O327  1  0.99233938  0.38141640  0.49121117  1
  O  O328  1  0.99147370  0.38145673  0.99853133  1
  O  O329  1  0.99952587  0.88542081  0.48574238  1
  O  O330  1  0.99793265  0.88262482  0.99140791  1
  O  O331  1  0.48877206  0.50758539  0.37772747  1
  O  O332  1  0.49731018  0.49239215  0.88495031  1
  O  O333  1  0.49741119  0.98675561  0.37903194  1
  O  O334  1  0.51032871  1.00200218  0.89649008  1
  O  O335  1  1.00364731  0.49396841  0.38725716  1
  O  O336  1  0.99203167  0.48992029  0.88393002  1
  O  O337  1  0.99961417  0.99205316  0.38079027  1
  O  O338  1  0.99363237  0.99361130  0.87760825  1
  O  O339  1  0.01241754  0.00912003  0.12010153  1
  O  O340  1  0.00548955  -0.00293772  0.61227410  1
  O  O341  1  0.00583696  0.49966050  0.12024073  1
  O  O342  1  0.00754166  0.50053509  0.61517292  1
  O  O343  1  0.51909234  -0.00856114  0.11837253  1
  O  O344  1  0.49878072  0.01458857  0.62426277  1
  O  O345  1  0.50726507  0.50658213  0.11987576  1
  O  O346  1  0.50707575  0.50670158  0.62826834  1
  O  O347  1  0.25369084  0.38803727  0.25715823  1
  O  O348  1  0.23842180  0.38576896  0.74565788  1
  O  O349  1  0.24121491  0.88677449  0.25565918  1
  O  O350  1  0.23654892  0.89020962  0.75032341  1
  O  O351  1  0.74678362  0.37734746  0.24652262  1
  O  O352  1  0.74189460  0.38146895  0.74374789  1
  O  O353  1  0.74677447  0.87247676  0.23593449  1
  O  O354  1  0.74634842  0.88438603  0.74310960  1
  O  O355  1  0.25658372  0.11460816  0.25523050  1
  O  O356  1  0.24435036  0.10945711  0.75376225  1
  O  O357  1  0.25910396  0.61500415  0.25631260  1
  O  O358  1  0.25757420  0.61679492  0.74133459  1
  O  O359  1  0.75859127  0.13048659  0.25678046  1
  O  O360  1  0.75813717  0.11359844  0.74577726  1
  O  O361  1  0.75513069  0.61720271  0.25400254  1
  O  O362  1  0.74565511  0.61026026  0.74609843  1
  O  O363  1  0.36638132  0.12666501  0.36317697  1
  O  O364  1  0.38625162  0.14708667  0.86982683  1
  O  O365  1  0.37224370  0.62146696  0.36918967  1
  O  O366  1  0.38401303  0.62327317  0.86110316  1
  O  O367  1  0.86484107  0.12190533  0.36500195  1
  O  O368  1  0.87792186  0.11277662  0.86772630  1
  O  O369  1  0.86182437  0.62915025  0.36840516  1
  O  O370  1  0.88392072  0.61058486  0.88291474  1
  O  O371  1  0.12222283  0.38769596  0.12704990  1
  O  O372  1  0.12252742  0.38334051  0.62941384  1
  O  O373  1  0.11792487  0.88294129  0.13519042  1
  O  O374  1  0.12171032  0.88882118  0.62921100  1
  O  O375  1  0.63182137  0.38115643  0.13260743  1
  O  O376  1  0.62667905  0.37886933  0.63391069  1
  O  O377  1  0.63561620  0.87375514  0.13179429  1
  O  O378  1  0.63492642  0.87581990  0.63410107  1
  O  O379  1  0.11860662  0.25272311  0.24870382  1
  O  O380  1  0.11790438  0.25164894  0.75418674  1
  O  O381  1  0.13300109  0.75776339  0.25685941  1
  O  O382  1  0.11480786  0.76199656  0.74388293  1
  O  O383  1  0.61158145  0.25697245  0.24673568  1
  O  O384  1  0.63395799  0.26294076  0.76114278  1
  O  O385  1  0.63263507  0.76064029  0.25869095  1
  O  O386  1  0.61873748  0.75666475  0.74878896  1
  O  O387  1  0.38607442  0.24625925  0.24880222  1
  O  O388  1  0.37640882  0.26157024  0.74649965  1
  O  O389  1  0.37192609  0.73610290  0.24406269  1
  O  O390  1  0.38191495  0.74370857  0.73765885  1
  O  O391  1  0.88074214  0.23224538  0.25192265  1
  O  O392  1  0.87430183  0.24239967  0.74418050  1
  O  O393  1  0.86951905  0.73641333  0.24998974  1
  O  O394  1  0.88324905  0.76314244  0.73655642  1
  O  O395  1  0.37573504  0.49415006  0.49292851  1
  O  O396  1  0.38208325  0.49479998  1.00245790  1
  O  O397  1  0.36373923  0.99148965  0.51699217  1
  O  O398  1  0.39176272  1.00156044  1.01331659  1
  O  O399  1  0.88285704  0.49015340  0.50662320  1
  O  O400  1  0.87853232  0.48846116  0.99524036  1
  O  O401  1  0.88201717  0.99885557  0.49587081  1
  O  O402  1  0.88156165  0.99494050  0.99367424  1
  O  O403  1  0.12326719  0.00544789  0.00445718  1
  O  O404  1  0.11700421  0.00778153  0.50390738  1
  O  O405  1  0.11498841  0.50071567  0.00684809  1
  O  O406  1  0.11865951  0.50448215  0.50552958  1
  O  O407  1  0.62179180  -0.00705814  0.01255122  1
  O  O408  1  0.62197901  0.01471528  0.50525445  1
  O  O409  1  0.62109773  0.50710914  0.00707115  1
  O  O410  1  0.62387694  0.49961625  0.51458496  1
  O  O411  1  0.37915083  0.37185625  0.11737693  1
  O  O412  1  0.37425894  0.36630364  0.62126387  1
  O  O413  1  0.38049823  0.85616081  0.13428325  1
  O  O414  1  0.37356988  0.86915060  0.62669085  1
  O  O415  1  0.86365348  0.37751857  0.11664808  1
  O  O416  1  0.86956469  0.36736599  0.61396575  1
  O  O417  1  0.86645575  0.88161030  0.11735067  1
  O  O418  1  0.86183116  0.86942473  0.62008402  1
  O  O419  1  0.13106578  0.12438609  0.38244002  1
  O  O420  1  0.12020211  0.13067197  0.88615206  1
  O  O421  1  0.12768856  0.63210074  0.37729256  1
  O  O422  1  0.07903135  0.63667336  0.88811283  1
  O  O423  1  0.63060365  0.12216573  0.38113408  1
  O  O424  1  0.62743119  0.14416390  0.86976626  1
  O  O425  1  0.63465619  0.63333648  0.37451707  1
  O  O426  1  0.62136367  0.61961208  0.89077346  1
