# generated using pymatgen
data_V85Zn86O256
_symmetry_space_group_name_H-M   'P 1'
_cell_length_a   16.93228788
_cell_length_b   16.93146775
_cell_length_c   16.92763953
_cell_angle_alpha   90.01785714
_cell_angle_beta   89.97423195
_cell_angle_gamma   90.06015157
_symmetry_Int_Tables_number   1
_chemical_formula_structural   V85Zn86O256
_chemical_formula_sum   'V85 Zn86 O256'
_cell_volume   4852.95595029
_cell_formula_units_Z   1
loop_
 _symmetry_equiv_pos_site_id
 _symmetry_equiv_pos_as_xyz
  1  'x, y, z'
loop_
 _atom_site_type_symbol
 _atom_site_label
 _atom_site_symmetry_multiplicity
 _atom_site_fract_x
 _atom_site_fract_y
 _atom_site_fract_z
 _atom_site_occupancy
  V  V0  1  0.12642489  0.87245824  0.24906344  1
  V  V1  1  0.37132695  0.75260644  0.12513109  1
  V  V2  1  0.87506622  0.12417878  0.74933064  1
  V  V3  1  0.24762596  0.37749921  0.12661067  1
  V  V4  1  0.74336499  0.24771936  0.49180860  1
  V  V5  1  0.24912042  0.74899476  0.00155559  1
  V  V6  1  0.50075903  0.25096931  0.74607339  1
  V  V7  1  0.12746568  0.24864966  0.38005396  1
  V  V8  1  0.24914386  0.12529606  0.37839183  1
  V  V9  1  0.68513703  0.04494032  0.18333030  1
  V  V10  1  -0.00071993  0.62346260  0.62577709  1
  V  V11  1  0.87956934  0.50551790  0.36254980  1
  V  V12  1  0.36904610  0.49929995  0.86119140  1
  V  V13  1  0.74870919  0.74546541  -0.00679078  1
  V  V14  1  0.54350554  0.44864766  0.44442137  1
  V  V15  1  0.24880705  0.50431605  0.26265694  1
  V  V16  1  0.74940800  0.38048201  0.63142205  1
  V  V17  1  0.87779083  0.73504543  0.12862684  1
  V  V18  1  0.49894626  0.75670094  0.74823199  1
  V  V19  1  0.50188078  0.37926902  0.87862499  1
  V  V20  1  0.49066662  0.62509065  0.62383114  1
  V  V21  1  0.00009217  0.50046616  0.50193403  1
  V  V22  1  0.87324828  0.75007350  0.62382225  1
  V  V23  1  0.75617125  0.62937669  0.36434190  1
  V  V24  1  0.75434860  0.87303294  0.12782131  1
  V  V25  1  0.75110484  0.75187280  0.49863274  1
  V  V26  1  0.87836563  0.88929577  0.50010998  1
  V  V27  1  0.12749197  -0.00682568  0.12391649  1
  V  V28  1  0.00279817  -0.00258526  -0.00144013  1
  V  V29  1  0.75084775  0.12550005  0.87437074  1
  V  V30  1  0.87488498  0.25127358  0.62390172  1
  V  V31  1  0.00034041  0.75277088  0.74993940  1
  V  V32  1  0.25034451  -0.00386850  0.24627831  1
  V  V33  1  0.36888769  0.62491677  0.26328968  1
  V  V34  1  0.12957099  0.62292971  0.49667219  1
  V  V35  1  0.36718882  0.38374332  0.48818745  1
  V  V36  1  0.87671863  -0.00258016  0.87318648  1
  V  V37  1  0.11810148  0.50396080  0.12632915  1
  V  V38  1  0.75719998  0.26114329  -0.00419847  1
  V  V39  1  -0.00207416  0.73831325  0.24784823  1
  V  V40  1  0.62373816  0.50281266  0.63604396  1
  V  V41  1  0.37356316  0.87257411  0.51069972  1
  V  V42  1  0.86281734  0.49649518  0.87523457  1
  V  V43  1  0.13050148  0.75146489  0.86688312  1
  V  V44  1  0.87424049  0.00728474  0.35454104  1
  V  V45  1  0.37986782  0.38802239  0.00408585  1
  V  V46  1  0.74077603  -0.00522369  0.75352445  1
  V  V47  1  0.37335896  -0.00503731  0.37616500  1
  V  V48  1  0.25299373  0.74814275  0.50429014  1
  V  V49  1  0.00274102  0.25039836  0.74883248  1
  V  V50  1  0.49745239  0.61741890  0.12096343  1
  V  V51  1  0.75152166  0.37735196  0.13381655  1
  V  V52  1  0.12665406  0.12565206  0.00248947  1
  V  V53  1  0.62629667  0.75309584  0.37234164  1
  V  V54  1  0.50627572  0.26752746  0.26233955  1
  V  V55  1  0.74057416  0.87501330  0.62647813  1
  V  V56  1  0.37573148  0.00178660  0.87618895  1
  V  V57  1  0.62064449  0.00961166  0.62573819  1
  V  V58  1  0.62470261  0.87547595  0.24283765  1
  V  V59  1  0.86205470  0.62202611  0.75548366  1
  V  V60  1  0.12926235  0.38412020  0.75172323  1
  V  V61  1  0.49735010  0.75048342  0.24797707  1
  V  V62  1  0.87799663  0.37612957  0.50166814  1
  V  V63  1  0.25268502  0.37758386  0.62791688  1
  V  V64  1  0.62914842  0.12308757  0.00055441  1
  V  V65  1  0.37102735  0.87487011  0.00062744  1
  V  V66  1  0.37635370  0.25126177  0.12529950  1
  V  V67  1  0.87855121  0.24734939  0.12394763  1
  V  V68  1  0.37197633  0.24753684  0.61617057  1
  V  V69  1  0.49901584  0.00572279  0.50451375  1
  V  V70  1  0.00521632  0.87449788  0.87237781  1
  V  V71  1  0.11859074  0.62627644  0.00176283  1
  V  V72  1  0.62054308  0.62718639  0.49755896  1
  V  V73  1  0.62168699  0.61786463  -0.00693433  1
  V  V74  1  0.12507868  0.11762900  0.50052943  1
  V  V75  1  0.37802590  0.12620559  0.74650021  1
  V  V76  1  0.12738962  0.25052380  0.87457565  1
  V  V77  1  -0.00398021  0.24093403  0.25266323  1
  V  V78  1  0.00052581  0.37288206  0.37514657  1
  V  V79  1  0.00079453  0.12115380  0.61878432  1
  V  V80  1  -0.00378259  0.49535955  -0.00218628  1
  V  V81  1  0.12437396  -0.00883461  0.63143365  1
  V  V82  1  0.50100318  0.12535122  0.13041979  1
  V  V83  1  0.12770582  0.74822930  0.37488533  1
  V  V84  1  0.50384121  -0.00227953  0.00662898  1
  Zn  Zn85  1  0.24867535  0.86747645  0.63755828  1
  Zn  Zn86  1  0.61491563  0.48995010  0.12733603  1
  Zn  Zn87  1  0.62472058  0.25136723  0.87364657  1
  Zn  Zn88  1  0.87663433  0.87052402  0.00123848  1
  Zn  Zn89  1  0.24920991  -0.00525798  0.75302026  1
  Zn  Zn90  1  0.50214047  0.87583979  0.37620172  1
  Zn  Zn91  1  0.62815207  0.75493409  0.87002052  1
  Zn  Zn92  1  -0.00354768  0.11877288  0.13105071  1
  Zn  Zn93  1  0.50860038  0.87529188  0.87290977  1
  Zn  Zn94  1  0.13051817  0.50319859  0.63019613  1
  Zn  Zn95  1  0.00021473  0.87954714  0.37796947  1
  Zn  Zn96  1  0.12429545  0.37343725  0.25089041  1
  Zn  Zn97  1  0.74604367  0.50179005  0.24774059  1
  Zn  Zn98  1  0.74696975  0.12156554  0.36071602  1
  Zn  Zn99  1  0.62800031  0.37822944  0.75460572  1
  Zn  Zn100  1  0.36587028  0.62890822  0.73903301  1
  Zn  Zn101  1  0.24618165  0.61610415  0.86780503  1
  Zn  Zn102  1  0.25254404  0.12622425  0.87530077  1
  Zn  Zn103  1  -0.00326290  0.37486127  0.87706055  1
  Zn  Zn104  1  0.61700556  0.13225045  0.49435637  1
  Zn  Zn105  1  0.25127017  0.25043493  0.00190182  1
  Zn  Zn106  1  0.37541237  0.12577227  0.25137132  1
  Zn  Zn107  1  0.18582890  0.18555655  0.19142586  1
  Zn  Zn108  1  0.19364706  0.18685991  0.68804366  1
  Zn  Zn109  1  0.18738203  0.68543523  0.18534932  1
  Zn  Zn110  1  0.18905644  0.68420714  0.68725328  1
  Zn  Zn111  1  0.68348164  0.21056190  0.18763834  1
  Zn  Zn112  1  0.68715474  0.18940688  0.68576072  1
  Zn  Zn113  1  0.68526676  0.68580768  0.18212795  1
  Zn  Zn114  1  0.68165223  0.68887623  0.68653569  1
  Zn  Zn115  1  0.31160747  0.30945485  0.30810516  1
  Zn  Zn116  1  0.31245024  0.31309208  0.81212599  1
  Zn  Zn117  1  0.30846257  0.81175827  0.31598242  1
  Zn  Zn118  1  0.31852074  0.81319112  0.80990635  1
  Zn  Zn119  1  0.81751018  0.31220715  0.31187681  1
  Zn  Zn120  1  0.81366017  0.31413146  0.81145129  1
  Zn  Zn121  1  0.81453594  0.81773579  0.31035728  1
  Zn  Zn122  1  0.81380110  0.81341907  0.81204864  1
  Zn  Zn123  1  0.18844829  0.43305053  0.44341416  1
  Zn  Zn124  1  0.18802610  0.43556832  0.94087801  1
  Zn  Zn125  1  0.18658626  0.93585796  0.44012362  1
  Zn  Zn126  1  0.19107438  0.93425151  0.93432564  1
  Zn  Zn127  1  0.70527880  0.44128412  0.44103340  1
  Zn  Zn128  1  0.68450161  0.43957388  0.94123316  1
  Zn  Zn129  1  0.68874433  0.94376168  0.43401762  1
  Zn  Zn130  1  0.68596955  0.93424144  0.94249081  1
  Zn  Zn131  1  0.31240076  0.06330363  0.06376835  1
  Zn  Zn132  1  0.30958527  0.06227436  0.56402970  1
  Zn  Zn133  1  0.30654884  0.56582345  0.06491211  1
  Zn  Zn134  1  0.30964948  0.55706947  0.55703656  1
  Zn  Zn135  1  0.82058781  0.06625600  0.05759516  1
  Zn  Zn136  1  0.80840794  0.06446947  0.56494489  1
  Zn  Zn137  1  0.81021791  0.56242827  0.05697548  1
  Zn  Zn138  1  0.81131298  0.56378684  0.55960598  1
  Zn  Zn139  1  0.43245279  0.44135947  0.19488934  1
  Zn  Zn140  1  0.44207881  0.43541395  0.68216006  1
  Zn  Zn141  1  0.43697968  0.93582077  0.18621976  1
  Zn  Zn142  1  0.43733653  0.93756406  0.68894381  1
  Zn  Zn143  1  0.93776153  0.42973066  0.18453010  1
  Zn  Zn144  1  0.93883057  0.43895578  0.69206090  1
  Zn  Zn145  1  0.94165631  0.92921062  0.18567849  1
  Zn  Zn146  1  0.93625932  0.93801600  0.68533717  1
  Zn  Zn147  1  0.05824312  0.05782046  0.31560183  1
  Zn  Zn148  1  0.06423160  0.06548734  0.81050294  1
  Zn  Zn149  1  0.06564758  0.56209167  0.31382015  1
  Zn  Zn150  1  0.05751443  0.56589017  0.81551943  1
  Zn  Zn151  1  0.55905535  0.06944815  0.32168285  1
  Zn  Zn152  1  0.55991974  0.06434570  0.81541361  1
  Zn  Zn153  1  0.56519678  0.56427762  0.30325053  1
  Zn  Zn154  1  0.55439860  0.56478855  0.81179679  1
  Zn  Zn155  1  0.43368781  0.18615731  0.43761686  1
  Zn  Zn156  1  0.43952976  0.19114333  0.93917539  1
  Zn  Zn157  1  0.43904255  0.68988036  0.43754631  1
  Zn  Zn158  1  0.43979503  0.68547965  0.93261423  1
  Zn  Zn159  1  0.93302606  0.18219295  0.43674109  1
  Zn  Zn160  1  0.94039936  0.18688594  0.93866539  1
  Zn  Zn161  1  0.94013390  0.69081685  0.43655968  1
  Zn  Zn162  1  0.93666921  0.68395199  0.93833684  1
  Zn  Zn163  1  0.06112117  0.31410324  0.06334841  1
  Zn  Zn164  1  0.06760956  0.30965323  0.56280077  1
  Zn  Zn165  1  0.06091045  0.81121230  0.06306728  1
  Zn  Zn166  1  0.06025651  0.81038455  0.56050662  1
  Zn  Zn167  1  0.56447940  0.31044215  0.06258867  1
  Zn  Zn168  1  0.56097304  0.31214751  0.56697931  1
  Zn  Zn169  1  0.56317266  0.80875834  0.06080378  1
  Zn  Zn170  1  0.55889729  0.81340058  0.56464023  1
  O  O171  1  0.12361720  0.11345382  0.11933051  1
  O  O172  1  0.12013674  0.12094871  0.61848470  1
  O  O173  1  0.12731414  0.61616966  0.11500993  1
  O  O174  1  0.11534546  0.62401511  0.61628240  1
  O  O175  1  0.62382089  0.12009335  0.12288985  1
  O  O176  1  0.63042217  0.11266476  0.61763055  1
  O  O177  1  0.61097940  0.62829383  0.11668111  1
  O  O178  1  0.62151611  0.61787331  0.61470319  1
  O  O179  1  0.36633674  0.36647222  0.38994264  1
  O  O180  1  0.37839030  0.38252894  0.88351660  1
  O  O181  1  0.37225960  0.88535697  0.38188811  1
  O  O182  1  0.38456756  0.88401688  0.88502706  1
  O  O183  1  0.88115696  0.38414704  0.38146770  1
  O  O184  1  0.87859202  0.39196045  0.86572322  1
  O  O185  1  0.87439961  0.88430207  0.38585081  1
  O  O186  1  0.88721672  0.87901635  0.87710846  1
  O  O187  1  0.25309198  0.00321552  0.36635981  1
  O  O188  1  0.26470544  0.00272506  0.87769799  1
  O  O189  1  0.23889108  0.49596493  0.36119752  1
  O  O190  1  0.26530964  0.49485911  0.87869057  1
  O  O191  1  0.76888565  0.00016840  0.37649190  1
  O  O192  1  0.75511684  0.00290693  0.86904862  1
  O  O193  1  0.76240675  0.51104423  0.37278540  1
  O  O194  1  0.76363952  0.49806188  0.87935737  1
  O  O195  1  0.23783170  0.49418061  0.12951180  1
  O  O196  1  0.24754391  0.48430004  0.62242316  1
  O  O197  1  0.24485308  1.00335114  0.13855846  1
  O  O198  1  0.23397530  0.99913607  0.62505585  1
  O  O199  1  0.76041293  0.48354759  0.12440597  1
  O  O200  1  0.73913972  0.49107192  0.61331972  1
  O  O201  1  0.75183182  0.99317478  0.11945892  1
  O  O202  1  0.74291473  0.99441050  0.63319305  1
  O  O203  1  0.00279322  0.36476239  0.25936598  1
  O  O204  1  0.00906042  0.36485535  0.74959324  1
  O  O205  1  0.01352098  0.86527952  0.25120305  1
  O  O206  1  -0.00764136  0.86116955  0.75510896  1
  O  O207  1  0.49183267  0.36694772  0.25392512  1
  O  O208  1  0.50224913  0.36759611  0.75751927  1
  O  O209  1  0.50723283  0.86892516  0.24938275  1
  O  O210  1  0.49857842  0.86088595  0.74810871  1
  O  O211  1  0.49810104  0.12471453  0.23806248  1
  O  O212  1  0.48823626  0.13524792  0.75680063  1
  O  O213  1  0.48841617  0.63336393  0.24140679  1
  O  O214  1  0.49138594  0.62902851  0.73883896  1
  O  O215  1  1.00698181  0.13673666  0.24900386  1
  O  O216  1  0.99653085  0.13218453  0.74060573  1
  O  O217  1  1.00629124  0.63888015  0.25224334  1
  O  O218  1  0.99254251  0.63556257  0.74464939  1
  O  O219  1  0.37378870  0.25777137  0.01239885  1
  O  O220  1  0.38111171  0.25573176  0.51295620  1
  O  O221  1  0.36868801  0.75474956  0.00251796  1
  O  O222  1  0.36429805  0.75937878  0.49242383  1
  O  O223  1  0.86786644  0.24621083  0.00514042  1
  O  O224  1  0.87053475  0.25723936  0.50583480  1
  O  O225  1  0.86951189  0.74676704  0.01053331  1
  O  O226  1  0.86788762  0.75585914  0.50595899  1
  O  O227  1  0.12048452  0.23631531  0.48785514  1
  O  O228  1  0.12424079  0.24222276  0.99436559  1
  O  O229  1  0.12698206  0.74343637  0.49230542  1
  O  O230  1  0.12989599  0.74527947  0.99415644  1
  O  O231  1  0.63951991  0.25126416  0.50725602  1
  O  O232  1  0.63490385  0.23754559  0.99985444  1
  O  O233  1  0.63166491  0.74750529  0.49370545  1
  O  O234  1  0.63351149  0.74060455  0.99911674  1
  O  O235  1  0.49409285  0.24408823  0.13154880  1
  O  O236  1  0.49029904  0.25508964  0.63836696  1
  O  O237  1  0.49007706  0.74383565  0.12980245  1
  O  O238  1  0.50570446  0.73945762  0.63512054  1
  O  O239  1  0.99493432  0.25040981  0.13338108  1
  O  O240  1  0.99532420  0.24316642  0.62977590  1
  O  O241  1  0.98637274  0.75240711  0.13039846  1
  O  O242  1  0.99376264  0.74503491  0.63221340  1
  O  O243  1  0.00352013  0.25178642  0.37049410  1
  O  O244  1  0.01047137  0.25107849  0.86926945  1
  O  O245  1  0.00931296  0.75439350  0.36727821  1
  O  O246  1  0.00556172  0.75556988  0.86955354  1
  O  O247  1  0.49141790  0.24355686  0.35936665  1
  O  O248  1  0.49822524  0.26202009  0.86644029  1
  O  O249  1  0.50757157  0.75440565  0.36608609  1
  O  O250  1  0.50228950  0.75077868  0.86308201  1
  O  O251  1  0.24168278  0.11944805  0.48701374  1
  O  O252  1  0.23825869  0.12745193  1.00062012  1
  O  O253  1  0.23884373  0.63096422  0.50312163  1
  O  O254  1  0.23855203  0.63183370  0.99370020  1
  O  O255  1  0.75400512  0.14350876  0.50324654  1
  O  O256  1  0.74532265  0.13017645  0.99306315  1
  O  O257  1  0.73957534  0.63205579  0.49289448  1
  O  O258  1  0.73363365  0.63339695  1.00848176  1
  O  O259  1  0.25666027  0.37266071  0.01333861  1
  O  O260  1  0.25981026  0.37151723  0.50902977  1
  O  O261  1  0.26335500  0.86794706  -0.00236259  1
  O  O262  1  0.25669474  0.86749699  0.50275736  1
  O  O263  1  0.75069728  0.36359437  0.00198593  1
  O  O264  1  0.75851569  0.36505346  0.50877072  1
  O  O265  1  0.75146945  0.86606758  0.01312112  1
  O  O266  1  0.75856516  0.87152270  0.50674251  1
  O  O267  1  0.12961362  0.49831071  0.24208252  1
  O  O268  1  0.11669810  0.48734457  0.75141812  1
  O  O269  1  0.12906558  0.99273686  0.24410366  1
  O  O270  1  0.12721871  1.00595954  0.73548419  1
  O  O271  1  0.63317963  0.50882552  0.23749163  1
  O  O272  1  0.62409822  0.50242068  0.73960713  1
  O  O273  1  0.61825219  0.99268703  0.24649021  1
  O  O274  1  0.63412489  1.00659474  0.74465407  1
  O  O275  1  0.36666015  -0.00176007  0.25696926  1
  O  O276  1  0.38065006  0.00880359  0.76024697  1
  O  O277  1  0.35992074  0.51231388  0.24635363  1
  O  O278  1  0.37623233  0.49689299  0.75982862  1
  O  O279  1  0.87671775  -0.00464100  0.25559947  1
  O  O280  1  0.86545939  0.00510668  0.75357216  1
  O  O281  1  0.87534433  0.49610436  0.26033923  1
  O  O282  1  0.87909079  0.51338180  0.76002783  1
  O  O283  1  0.11923734  0.36385738  0.37771655  1
  O  O284  1  0.12420782  0.36747083  0.86913375  1
  O  O285  1  0.12101695  0.86903757  0.36896823  1
  O  O286  1  0.11402616  0.86664429  0.87835636  1
  O  O287  1  0.61021226  0.39383146  0.39446680  1
  O  O288  1  0.61681156  0.37405876  0.87539279  1
  O  O289  1  0.62808444  0.87131186  0.36127574  1
  O  O290  1  0.62159509  0.87058017  0.87991376  1
  O  O291  1  0.38342282  0.13367084  0.12488763  1
  O  O292  1  0.36969953  0.13378451  0.63303068  1
  O  O293  1  0.37857211  0.63680041  0.12606909  1
  O  O294  1  0.38758097  0.61870572  0.61636344  1
  O  O295  1  0.87978681  0.13961613  0.12098259  1
  O  O296  1  0.88290723  0.12836410  0.63001202  1
  O  O297  1  0.87053468  0.63646711  0.12632767  1
  O  O298  1  0.88015202  0.62827305  0.63232843  1
  O  O299  1  0.25661021  0.25778418  0.12854049  1
  O  O300  1  0.26114048  0.26052107  0.62939807  1
  O  O301  1  0.25494028  0.74620439  0.11040206  1
  O  O302  1  0.23869014  0.75306562  0.60876268  1
  O  O303  1  0.75842874  0.25828016  0.11615487  1
  O  O304  1  0.75746205  0.25787358  0.61833643  1
  O  O305  1  0.76104218  0.75477597  0.12056698  1
  O  O306  1  0.75288432  0.75799904  0.62089326  1
  O  O307  1  0.24009751  0.23753704  0.36727300  1
  O  O308  1  0.23871055  0.24984494  0.87891896  1
  O  O309  1  0.23466712  0.75382708  0.38483525  1
  O  O310  1  0.24275449  0.75197770  0.88535270  1
  O  O311  1  0.75639502  0.25084015  0.38909732  1
  O  O312  1  0.75105241  0.24476116  0.88024061  1
  O  O313  1  0.74880700  0.74676175  0.37916399  1
  O  O314  1  0.75391358  0.75334813  0.88965468  1
  O  O315  1  0.01315332  0.11637337  0.00054318  1
  O  O316  1  0.00531884  0.12830871  0.51246940  1
  O  O317  1  0.01184679  0.61621155  -0.00408928  1
  O  O318  1  0.00590132  0.62135388  0.50675356  1
  O  O319  1  0.50918750  0.12359754  0.01173153  1
  O  O320  1  0.49683996  0.11022013  0.49895663  1
  O  O321  1  0.51144215  0.63194375  0.00788237  1
  O  O322  1  0.51410782  0.63629370  0.50576000  1
  O  O323  1  0.48800585  0.37834954  0.50182252  1
  O  O324  1  0.49145986  0.36885079  0.99291962  1
  O  O325  1  0.49060625  0.88225631  0.49795498  1
  O  O326  1  0.49135193  0.88387048  1.00507373  1
  O  O327  1  0.99743809  0.37917568  0.49587290  1
  O  O328  1  1.00481164  0.39036576  0.99731597  1
  O  O329  1  0.98133637  0.86896852  0.49943991  1
  O  O330  1  0.99976020  0.87993686  0.99057570  1
  O  O331  1  0.49755172  0.50976830  0.38038523  1
  O  O332  1  0.48788170  0.48654072  0.87178904  1
  O  O333  1  0.48819321  0.99616579  0.38194840  1
  O  O334  1  0.49175366  1.00330907  0.89023333  1
  O  O335  1  0.99617777  0.49496011  0.38093434  1
  O  O336  1  0.99197299  0.49876816  0.88263125  1
  O  O337  1  0.98205080  0.99693747  0.37432600  1
  O  O338  1  0.99961323  0.99173768  0.87560425  1
  O  O339  1  0.00881486  -0.00130197  0.11814269  1
  O  O340  1  0.01063143  0.00929608  0.63056727  1
  O  O341  1  0.01046582  0.49403039  0.11921341  1
  O  O342  1  0.00136375  0.50666773  0.61952020  1
  O  O343  1  0.49271106  0.00929766  0.11422704  1
  O  O344  1  0.50982569  -0.00551478  0.61893389  1
  O  O345  1  0.49360497  0.51374898  0.12721077  1
  O  O346  1  0.51095522  0.50964556  0.62452709  1
  O  O347  1  0.24986123  0.38377888  0.24018504  1
  O  O348  1  0.24001096  0.37086288  0.74322046  1
  O  O349  1  0.23654467  0.88122892  0.25421927  1
  O  O350  1  0.25383330  0.88015368  0.74989916  1
  O  O351  1  0.75199979  0.37260970  0.23695626  1
  O  O352  1  0.74759250  0.37101554  0.73576411  1
  O  O353  1  0.74296688  0.87284165  0.23663950  1
  O  O354  1  0.75685030  0.88474392  0.74021447  1
  O  O355  1  0.25007915  0.11449964  0.26071609  1
  O  O356  1  0.26386613  0.12042982  0.75463057  1
  O  O357  1  0.25559035  0.61620883  0.24627242  1
  O  O358  1  0.25428522  0.62719584  0.75493127  1
  O  O359  1  0.73658292  0.11842091  0.23773264  1
  O  O360  1  0.75473744  0.11824941  0.75514009  1
  O  O361  1  0.75085243  0.63055586  0.26182151  1
  O  O362  1  0.76411700  0.62885418  0.74342548  1
  O  O363  1  0.36558654  0.11246231  0.37467787  1
  O  O364  1  0.37504874  0.11940314  0.87264698  1
  O  O365  1  0.37350394  0.63411169  0.36215292  1
  O  O366  1  0.37593040  0.60443238  0.87913843  1
  O  O367  1  0.86901394  0.11256338  0.37153022  1
  O  O368  1  0.87228423  0.11810268  0.86867156  1
  O  O369  1  0.86811749  0.61775121  0.38238826  1
  O  O370  1  0.87697548  0.61822324  0.86177179  1
  O  O371  1  0.13304273  0.38131635  0.12700127  1
  O  O372  1  0.13361222  0.37305925  0.63368889  1
  O  O373  1  0.12385404  0.88527692  0.13049178  1
  O  O374  1  0.12032327  0.88938951  0.61905364  1
  O  O375  1  0.64503589  0.37346308  0.11602218  1
  O  O376  1  0.63140960  0.38578113  0.62545859  1
  O  O377  1  0.63263459  0.87016636  0.13497946  1
  O  O378  1  0.63692201  0.88275479  0.62091748  1
  O  O379  1  0.11827468  0.25054279  0.26247428  1
  O  O380  1  0.12137992  0.25301364  0.75776231  1
  O  O381  1  0.12308275  0.75484033  0.25460362  1
  O  O382  1  0.11594548  0.74654311  0.76037902  1
  O  O383  1  0.60614775  0.25726638  0.25069697  1
  O  O384  1  0.61528366  0.25126178  0.75126617  1
  O  O385  1  0.61945481  0.75668505  0.25253890  1
  O  O386  1  0.60781478  0.73823389  0.75449334  1
  O  O387  1  0.38119730  0.24708534  0.23788913  1
  O  O388  1  0.38061909  0.24461467  0.74416355  1
  O  O389  1  0.37410168  0.74756041  0.24209738  1
  O  O390  1  0.39150331  0.74414544  0.75410076  1
  O  O391  1  0.88531847  0.25167988  0.24162427  1
  O  O392  1  0.88184763  0.24421871  0.74410896  1
  O  O393  1  0.88327072  0.75483266  0.23825764  1
  O  O394  1  0.87958210  0.74026591  0.74523388  1
  O  O395  1  0.37326858  0.48368771  0.49556145  1
  O  O396  1  0.37102407  0.48979965  1.00065709  1
  O  O397  1  0.37795608  0.99333244  0.49505134  1
  O  O398  1  0.38023800  0.99348222  0.99772896  1
  O  O399  1  0.88186726  0.49450778  0.49350797  1
  O  O400  1  0.88273281  0.51026920  0.98476408  1
  O  O401  1  0.87302186  0.98992465  0.50418803  1
  O  O402  1  0.88511979  0.99776222  0.99043744  1
  O  O403  1  0.12507768  0.00336694  0.00641925  1
  O  O404  1  0.12406536  0.01059080  0.50853994  1
  O  O405  1  0.11968305  0.50740851  0.00508720  1
  O  O406  1  0.11849380  0.50724086  0.50161323  1
  O  O407  1  0.61780734  0.01287683  0.00018680  1
  O  O408  1  0.61498625  -0.00382498  0.50845689  1
  O  O409  1  0.62781454  0.51382481  0.00900353  1
  O  O410  1  0.61784547  0.50769204  0.50125629  1
  O  O411  1  0.36942486  0.37105388  0.12097006  1
  O  O412  1  0.36908632  0.36869008  0.61927812  1
  O  O413  1  0.37711615  0.86111358  0.11825050  1
  O  O414  1  0.37104928  0.87963705  0.61357527  1
  O  O415  1  0.86482142  0.36185268  0.12365921  1
  O  O416  1  0.86959645  0.37333781  0.62174228  1
  O  O417  1  0.86806787  0.86640229  0.12182995  1
  O  O418  1  0.86660344  0.87202809  0.61573362  1
  O  O419  1  0.12875647  0.12567282  0.38204215  1
  O  O420  1  0.12750923  0.13215448  0.88271944  1
  O  O421  1  0.11912233  0.63357755  0.38722747  1
  O  O422  1  0.12511588  0.63517443  0.88151675  1
  O  O423  1  0.63602414  0.11660815  0.38397217  1
  O  O424  1  0.63141271  0.12771832  0.88399874  1
  O  O425  1  0.63320828  0.63358628  0.38037407  1
  O  O426  1  0.61833141  0.62323933  0.89028519  1
