# generated using pymatgen
data_V85Zn86O256
_symmetry_space_group_name_H-M   'P 1'
_cell_length_a   16.95542255
_cell_length_b   16.95653602
_cell_length_c   16.95495204
_cell_angle_alpha   90.05268903
_cell_angle_beta   89.96916688
_cell_angle_gamma   89.97587083
_symmetry_Int_Tables_number   1
_chemical_formula_structural   V85Zn86O256
_chemical_formula_sum   'V85 Zn86 O256'
_cell_volume   4874.63424032
_cell_formula_units_Z   1
loop_
 _symmetry_equiv_pos_site_id
 _symmetry_equiv_pos_as_xyz
  1  'x, y, z'
loop_
 _atom_site_type_symbol
 _atom_site_label
 _atom_site_symmetry_multiplicity
 _atom_site_fract_x
 _atom_site_fract_y
 _atom_site_fract_z
 _atom_site_occupancy
  V  V0  1  0.48300067  0.86772659  0.88263360  1
  V  V1  1  0.87510593  0.12723573  0.25194513  1
  V  V2  1  0.24526850  0.00242226  0.26172607  1
  V  V3  1  0.49872635  -0.00348826  0.00050165  1
  V  V4  1  0.13390828  0.12871793  0.48945503  1
  V  V5  1  0.62203581  0.61187587  0.50114714  1
  V  V6  1  0.24560616  0.49292792  0.24668095  1
  V  V7  1  0.00249918  0.12670126  0.12996143  1
  V  V8  1  0.37377084  0.37164391  0.00294861  1
  V  V9  1  0.24870366  0.50449264  0.74648973  1
  V  V10  1  0.49808342  0.76595542  0.25269264  1
  V  V11  1  -0.00108960  0.25125330  0.75698276  1
  V  V12  1  0.87968639  0.37349584  0.49207822  1
  V  V13  1  0.00482244  0.49761759  0.49273249  1
  V  V14  1  0.62371989  0.37632366  0.74033616  1
  V  V15  1  0.74225196  0.12664328  0.37181621  1
  V  V16  1  0.00329264  0.75187730  0.74946875  1
  V  V17  1  0.50603613  0.74949065  0.75376042  1
  V  V18  1  0.37586337  0.87096799  0.49073190  1
  V  V19  1  0.87340565  0.12562896  0.74739258  1
  V  V20  1  0.74436415  0.00245325  0.75006584  1
  V  V21  1  0.50223049  -0.00685444  0.49890828  1
  V  V22  1  0.18076244  0.19143403  0.81823270  1
  V  V23  1  0.38899754  0.50314966  0.37505533  1
  V  V24  1  0.87571187  0.62603073  0.24976848  1
  V  V25  1  0.87532776  -0.00022596  0.37728237  1
  V  V26  1  0.87760498  0.49859659  0.37425299  1
  V  V27  1  0.25116116  0.36671409  0.61844039  1
  V  V28  1  0.74617437  0.87652902  0.62502218  1
  V  V29  1  0.74775034  0.49886366  0.24938111  1
  V  V30  1  0.50551552  0.35719901  0.37248895  1
  V  V31  1  0.37712756  0.37742008  0.49659491  1
  V  V32  1  0.63447661  -0.01103099  0.12096925  1
  V  V33  1  0.49903029  0.50417064  0.00275182  1
  V  V34  1  0.75264597  -0.00936342  0.24646577  1
  V  V35  1  0.62384997  0.50255951  0.12649834  1
  V  V36  1  0.23408051  0.87186552  0.13444719  1
  V  V37  1  0.74796907  0.37356371  0.11523112  1
  V  V38  1  0.13894068  0.26106912  0.37395966  1
  V  V39  1  0.39788031  0.25497286  0.13452842  1
  V  V40  1  0.62095497  0.35928550  0.24932363  1
  V  V41  1  0.74892918  0.62543538  0.37480473  1
  V  V42  1  0.12895043  0.50271405  0.61669642  1
  V  V43  1  0.87455888  0.75045887  0.62363456  1
  V  V44  1  0.37503118  0.75372236  0.62429924  1
  V  V45  1  0.00576944  0.87615826  0.36832686  1
  V  V46  1  0.50370248  0.61331287  0.62147762  1
  V  V47  1  0.87515208  0.25088525  0.62126823  1
  V  V48  1  0.12363187  0.62478104  -0.00138768  1
  V  V49  1  0.37596108  0.76635563  0.12372943  1
  V  V50  1  0.87014959  0.25121023  0.12055009  1
  V  V51  1  0.00223440  0.26629127  0.25986018  1
  V  V52  1  0.87569809  0.62473493  0.74815416  1
  V  V53  1  0.00234145  0.00065985  0.00246114  1
  V  V54  1  0.00595811  0.62619517  0.61714344  1
  V  V55  1  0.25195015  0.75452482  -0.00099494  1
  V  V56  1  0.62712754  0.62820913  -0.00615111  1
  V  V57  1  0.00490793  0.00006566  0.50383810  1
  V  V58  1  0.62161812  0.12701679  0.50046912  1
  V  V59  1  0.50251215  0.38023618  0.87041507  1
  V  V60  1  0.87100206  0.75702884  0.12571997  1
  V  V61  1  0.74693080  0.50131181  0.74112597  1
  V  V62  1  0.00171168  0.62393876  0.12640599  1
  V  V63  1  0.87706051  0.49902120  0.87344522  1
  V  V64  1  0.00991530  0.12445227  0.62308592  1
  V  V65  1  0.87449293  -0.00063134  0.87542959  1
  V  V66  1  0.62539519  0.12802349  0.00496553  1
  V  V67  1  0.12657528  0.75072921  0.37704368  1
  V  V68  1  0.12961301  0.88663405  0.74317966  1
  V  V69  1  0.20025683  0.31312447  0.06482355  1
  V  V70  1  0.38076875  0.24620691  0.61773841  1
  V  V71  1  0.61998622  0.75715888  0.37657979  1
  V  V72  1  0.24713591  0.62454006  0.38319761  1
  V  V73  1  0.13797334  0.12933505  0.00384218  1
  V  V74  1  0.37343161  0.50357229  0.87675900  1
  V  V75  1  0.74747273  0.74985740  0.50017924  1
  V  V76  1  0.38133746  0.00736084  0.37172939  1
  V  V77  1  0.37534955  0.62848037  0.24756986  1
  V  V78  1  0.75050438  0.13155062  0.88182799  1
  V  V79  1  0.44610224  0.19846739  0.80879482  1
  V  V80  1  0.74766528  0.75788005  -0.00389945  1
  V  V81  1  0.62576504  0.87168912  0.76362385  1
  V  V82  1  0.37718881  0.62632290  0.74909454  1
  V  V83  1  0.74401200  0.25102813  0.49544519  1
  V  V84  1  0.63291477  0.25016574  0.87386258  1
  Zn  Zn85  1  -0.00279476  0.50020952  0.00023309  1
  Zn  Zn86  1  0.00688156  0.75452068  0.24700278  1
  Zn  Zn87  1  0.74828958  0.62883292  0.87137108  1
  Zn  Zn88  1  0.49949031  0.63134427  0.12513045  1
  Zn  Zn89  1  0.31997279  0.04535178  0.83070932  1
  Zn  Zn90  1  0.12684271  0.49233937  0.12794251  1
  Zn  Zn91  1  0.87445741  0.87824403  0.00526149  1
  Zn  Zn92  1  0.62892932  0.87444631  0.24986219  1
  Zn  Zn93  1  0.24408396  0.74891260  0.50441099  1
  Zn  Zn94  1  0.12456317  0.75000802  0.87253862  1
  Zn  Zn95  1  0.00590370  0.37373748  0.87756123  1
  Zn  Zn96  1  0.61823004  0.00015951  0.62684873  1
  Zn  Zn97  1  0.24646256  0.88624568  0.62115977  1
  Zn  Zn98  1  0.38210981  0.13318752  0.25366256  1
  Zn  Zn99  1  -0.00084895  0.87334363  0.87550840  1
  Zn  Zn100  1  0.74487982  0.37971527  0.61831831  1
  Zn  Zn101  1  0.50177020  0.13244299  0.63025522  1
  Zn  Zn102  1  0.87016664  0.37293811  -0.00776683  1
  Zn  Zn103  1  0.24867094  0.62878164  0.87494031  1
  Zn  Zn104  1  0.87677591  0.87541610  0.50085875  1
  Zn  Zn105  1  0.12531602  0.37406881  0.75010321  1
  Zn  Zn106  1  0.12158379  -0.00339783  0.13276546  1
  Zn  Zn107  1  0.18873026  0.18147978  0.19722027  1
  Zn  Zn108  1  0.19084066  0.05951972  0.67776045  1
  Zn  Zn109  1  0.18712835  0.68586369  0.19320992  1
  Zn  Zn110  1  0.18667349  0.68834122  0.68415703  1
  Zn  Zn111  1  0.68760036  0.18387430  0.18412473  1
  Zn  Zn112  1  0.68488766  0.19031952  0.68707871  1
  Zn  Zn113  1  0.68723171  0.68950162  0.18489339  1
  Zn  Zn114  1  0.68550675  0.68580393  0.68502141  1
  Zn  Zn115  1  0.31693418  0.31471551  0.30902856  1
  Zn  Zn116  1  0.31156571  0.32406172  0.80892324  1
  Zn  Zn117  1  0.30900570  0.81573246  0.31155209  1
  Zn  Zn118  1  0.31061667  0.81315462  0.81015348  1
  Zn  Zn119  1  0.81015859  0.31258353  0.31005229  1
  Zn  Zn120  1  0.81138383  0.31583499  0.80837334  1
  Zn  Zn121  1  0.81759278  0.81126034  0.31643892  1
  Zn  Zn122  1  0.81361434  0.81318119  0.81370966  1
  Zn  Zn123  1  0.19324790  0.43836137  0.43418088  1
  Zn  Zn124  1  0.18123750  0.44308291  0.92977933  1
  Zn  Zn125  1  0.18673463  0.93580781  0.44020998  1
  Zn  Zn126  1  0.18110028  0.93025499  0.93208190  1
  Zn  Zn127  1  0.68609540  0.43372192  0.43228951  1
  Zn  Zn128  1  0.68900292  0.44377956  0.93284418  1
  Zn  Zn129  1  0.68695758  0.93887328  0.43769075  1
  Zn  Zn130  1  0.68937676  0.93811455  0.93670314  1
  Zn  Zn131  1  0.28747490  0.02321695  0.02324226  1
  Zn  Zn132  1  0.31602950  0.06623123  0.55037121  1
  Zn  Zn133  1  0.31160407  0.56698804  0.06533458  1
  Zn  Zn134  1  0.31994768  0.56056312  0.56037960  1
  Zn  Zn135  1  0.81354195  0.06501870  0.06307863  1
  Zn  Zn136  1  0.81253871  0.06292755  0.56151723  1
  Zn  Zn137  1  0.81151602  0.56566725  0.06101036  1
  Zn  Zn138  1  0.81409063  0.56354668  0.56080288  1
  Zn  Zn139  1  0.43674939  0.43767777  0.18886482  1
  Zn  Zn140  1  0.43630640  0.43620671  0.68704910  1
  Zn  Zn141  1  0.45066584  0.96973529  0.19788661  1
  Zn  Zn142  1  0.39354069  0.96638090  0.66835930  1
  Zn  Zn143  1  0.93593983  0.43992587  0.18411497  1
  Zn  Zn144  1  0.93777644  0.43619236  0.68315154  1
  Zn  Zn145  1  0.93681848  0.93848715  0.18916927  1
  Zn  Zn146  1  0.93687955  0.93772591  0.68651654  1
  Zn  Zn147  1  0.06397878  0.06392263  0.31521009  1
  Zn  Zn148  1  0.05784126  0.06198431  0.81489045  1
  Zn  Zn149  1  0.06665115  0.56615452  0.31248104  1
  Zn  Zn150  1  0.06323001  0.56287575  0.80941729  1
  Zn  Zn151  1  0.56127653  0.06280838  0.31007238  1
  Zn  Zn152  1  0.51652566  0.02759212  0.78952751  1
  Zn  Zn153  1  0.56301897  0.56933907  0.30847064  1
  Zn  Zn154  1  0.56406142  0.56208086  0.81149215  1
  Zn  Zn155  1  0.43480996  0.18795831  0.43907982  1
  Zn  Zn156  1  0.40745969  0.15466749  0.99145586  1
  Zn  Zn157  1  0.44002480  0.68668822  0.43763416  1
  Zn  Zn158  1  0.43546285  0.68898970  0.94015536  1
  Zn  Zn159  1  0.93829175  0.18611300  0.43616348  1
  Zn  Zn160  1  0.93802221  0.18393401  0.94109611  1
  Zn  Zn161  1  0.93883323  0.68875814  0.43759199  1
  Zn  Zn162  1  0.93505408  0.68618893  0.93702956  1
  Zn  Zn163  1  0.04001713  0.31346778  0.06268144  1
  Zn  Zn164  1  0.06547266  0.31189112  0.56070386  1
  Zn  Zn165  1  0.05948547  0.80901500  0.05994896  1
  Zn  Zn166  1  0.06569421  0.81348282  0.55912603  1
  Zn  Zn167  1  0.56505277  0.31596057  0.05507597  1
  Zn  Zn168  1  0.55867827  0.31409513  0.55691334  1
  Zn  Zn169  1  0.56612152  0.81463551  0.06544769  1
  Zn  Zn170  1  0.56095078  0.81024975  0.56548827  1
  O  O171  1  0.11703687  0.12343647  0.12236453  1
  O  O172  1  0.11472900  0.12332159  0.61356278  1
  O  O173  1  0.11299964  0.62901978  0.12067956  1
  O  O174  1  0.11691428  0.61718906  0.62343468  1
  O  O175  1  0.63357746  0.11585579  0.10970129  1
  O  O176  1  0.62346441  0.12314647  0.61548594  1
  O  O177  1  0.62355995  0.61846938  0.11581891  1
  O  O178  1  0.61589864  0.63006357  0.61316976  1
  O  O179  1  0.38706022  0.38130476  0.37648449  1
  O  O180  1  0.38293889  0.38429221  0.87979667  1
  O  O181  1  0.37231193  0.87709440  0.38739238  1
  O  O182  1  0.38476804  0.87209288  0.87726153  1
  O  O183  1  0.87017005  0.38084153  0.38504504  1
  O  O184  1  0.87685407  0.38455678  0.87230204  1
  O  O185  1  0.88368776  0.88210485  0.38030787  1
  O  O186  1  0.87646909  0.88992761  0.87528277  1
  O  O187  1  0.25344009  -0.00258979  0.36527041  1
  O  O188  1  0.25861413  0.00543683  0.91266256  1
  O  O189  1  0.25978360  0.50867766  0.36644498  1
  O  O190  1  0.25639435  0.50496783  0.86326626  1
  O  O191  1  0.75559484  0.00710389  0.36974130  1
  O  O192  1  0.75663240  0.00816373  0.86919715  1
  O  O193  1  0.75566352  0.50553906  0.36861550  1
  O  O194  1  0.76085426  0.50270960  0.86162544  1
  O  O195  1  0.24892508  0.50857840  0.14234954  1
  O  O196  1  0.24495096  0.49799771  0.62663892  1
  O  O197  1  0.24568651  0.98096597  0.12529359  1
  O  O198  1  0.27600260  0.99972639  0.63377673  1
  O  O199  1  0.74514597  0.49352199  0.13008185  1
  O  O200  1  0.75586016  0.49872367  0.63611985  1
  O  O201  1  0.74877710  1.00420805  0.13516248  1
  O  O202  1  0.74891188  0.99305738  0.63197917  1
  O  O203  1  -0.00169062  0.36439586  0.24790827  1
  O  O204  1  0.00232515  0.36155567  0.74226116  1
  O  O205  1  -0.00365040  0.87508005  0.26413767  1
  O  O206  1  0.00789384  0.86834772  0.74726581  1
  O  O207  1  0.50843282  0.38080716  0.26283386  1
  O  O208  1  0.50796702  0.38548518  0.76270578  1
  O  O209  1  0.50330783  0.86801901  0.24634365  1
  O  O210  1  0.50920847  0.86541832  0.76767146  1
  O  O211  1  0.47805131  0.07724600  0.23892980  1
  O  O212  1  0.50918649  0.13887358  0.75375770  1
  O  O213  1  0.48827246  0.63626580  0.24788954  1
  O  O214  1  0.49862694  0.63239718  0.74525349  1
  O  O215  1  0.99474147  0.12645800  0.24187850  1
  O  O216  1  0.99348168  0.12996436  0.74083626  1
  O  O217  1  0.99293874  0.62648694  0.24329625  1
  O  O218  1  0.99668457  0.63283475  0.73747675  1
  O  O219  1  0.38211248  0.26994262  0.00048862  1
  O  O220  1  0.37807648  0.26497050  0.50411676  1
  O  O221  1  0.36422839  0.74535467  0.01212384  1
  O  O222  1  0.37768953  0.75614890  0.50767339  1
  O  O223  1  0.88067084  0.25060032  0.01641673  1
  O  O224  1  0.87028186  0.25554999  0.50282263  1
  O  O225  1  0.86622546  0.75066830  0.00783611  1
  O  O226  1  0.86598278  0.75128225  0.50630588  1
  O  O227  1  0.11850924  0.23951250  0.48619781  1
  O  O228  1  0.13224679  0.25098411  1.01463037  1
  O  O229  1  0.12675710  0.74942377  0.48690464  1
  O  O230  1  0.12906222  0.73996392  0.99705980  1
  O  O231  1  0.63546315  0.24330735  0.50202289  1
  O  O232  1  0.61930366  0.24181875  0.98601394  1
  O  O233  1  0.62995013  0.74509994  0.49346685  1
  O  O234  1  0.64012534  0.74381674  1.00784005  1
  O  O235  1  0.49737937  0.25782179  0.12688928  1
  O  O236  1  0.48935501  0.25209412  0.62357119  1
  O  O237  1  0.49213845  0.75331188  0.13238810  1
  O  O238  1  0.49083669  0.74493333  0.63516495  1
  O  O239  1  0.99316662  0.24325304  0.13996938  1
  O  O240  1  0.99505905  0.24179889  0.62940961  1
  O  O241  1  0.99079217  0.74213959  0.12678074  1
  O  O242  1  0.99627763  0.74358220  0.62705450  1
  O  O243  1  -0.00093745  0.24935008  0.36170663  1
  O  O244  1  -0.01183499  0.24863191  0.85987201  1
  O  O245  1  0.00539480  0.75936527  0.37601722  1
  O  O246  1  -0.00199381  0.75149463  0.86249129  1
  O  O247  1  0.49774798  0.25887696  0.37041835  1
  O  O248  1  0.50708698  0.26079637  0.86676177  1
  O  O249  1  0.50916456  0.74661389  0.36597750  1
  O  O250  1  0.49753042  0.75821945  0.87002243  1
  O  O251  1  0.23198920  0.12441800  0.50080547  1
  O  O252  1  0.23651737  0.13074159  1.01297401  1
  O  O253  1  0.26101532  0.62664453  0.48624863  1
  O  O254  1  0.24162957  0.63674583  1.00207166  1
  O  O255  1  0.74037357  0.12917479  0.49314716  1
  O  O256  1  0.74536701  0.12180593  0.98821481  1
  O  O257  1  0.74381089  0.63136846  0.49578250  1
  O  O258  1  0.74288274  0.63356482  0.99654336  1
  O  O259  1  0.25465965  0.37783217  0.00197590  1
  O  O260  1  0.26281842  0.38125635  0.50670622  1
  O  O261  1  0.23838045  0.85997393  0.01415380  1
  O  O262  1  0.25847874  0.87139009  0.50380302  1
  O  O263  1  0.74853462  0.37955947  0.01180077  1
  O  O264  1  0.75508626  0.36671512  0.49914471  1
  O  O265  1  0.75417674  0.86199807  -0.00213644  1
  O  O266  1  0.75030415  0.87044058  0.50927987  1
  O  O267  1  0.14057699  0.50461469  0.24947974  1
  O  O268  1  0.13292578  0.50299717  0.73500283  1
  O  O269  1  0.13982309  1.00444032  0.25099433  1
  O  O270  1  0.12045663  0.99165927  0.74730516  1
  O  O271  1  0.62940034  0.49842221  0.24164261  1
  O  O272  1  0.63553860  0.49035810  0.75638651  1
  O  O273  1  0.63689023  0.99864784  0.24045031  1
  O  O274  1  0.62280660  0.98788464  0.74649220  1
  O  O275  1  0.35843834  -0.02325472  0.26587995  1
  O  O276  1  0.40390214  0.01004617  0.76783535  1
  O  O277  1  0.37018789  0.51081325  0.25490135  1
  O  O278  1  0.36823156  0.50747860  0.75322414  1
  O  O279  1  0.86995531  0.00778942  0.25609081  1
  O  O280  1  0.86992707  0.00749319  0.75684280  1
  O  O281  1  0.86981319  0.50530342  0.25587520  1
  O  O282  1  0.87012412  0.50521463  0.75123969  1
  O  O283  1  0.12630058  0.36016153  0.38189036  1
  O  O284  1  0.11889254  0.38049487  0.86390951  1
  O  O285  1  0.11578460  0.86761809  0.37945998  1
  O  O286  1  0.11811139  0.87152452  0.85855158  1
  O  O287  1  0.61339695  0.37483914  0.36565090  1
  O  O288  1  0.61915479  0.37072276  0.87162297  1
  O  O289  1  0.63151123  0.86082661  0.37308911  1
  O  O290  1  0.63269351  0.86862221  0.86460170  1
  O  O291  1  0.37740858  0.15873829  0.10444613  1
  O  O292  1  0.37725310  0.14281336  0.61368001  1
  O  O293  1  0.37499816  0.63743169  0.13482710  1
  O  O294  1  0.38419090  0.63197045  0.62931905  1
  O  O295  1  0.88085107  0.13300365  0.13168932  1
  O  O296  1  0.88095876  0.13673601  0.62481624  1
  O  O297  1  0.88458621  0.63053545  0.12902892  1
  O  O298  1  0.88236318  0.63112936  0.62966666  1
  O  O299  1  0.25154101  0.25952417  0.13321329  1
  O  O300  1  0.26450454  0.26772246  0.63280695  1
  O  O301  1  0.25273145  0.75815008  0.12523284  1
  O  O302  1  0.26534335  0.74751052  0.62443204  1
  O  O303  1  0.75896907  0.25989479  0.13176806  1
  O  O304  1  0.75869720  0.24991500  0.61299202  1
  O  O305  1  0.76109298  0.74269891  0.11270506  1
  O  O306  1  0.75394172  0.75703760  0.62060931  1
  O  O307  1  0.23803943  0.25108663  0.36395851  1
  O  O308  1  0.24289626  0.25240806  0.86629660  1
  O  O309  1  0.24458056  0.74245936  0.37635378  1
  O  O310  1  0.24855263  0.74950895  0.88463351  1
  O  O311  1  0.75618656  0.23985401  0.38447307  1
  O  O312  1  0.74696385  0.24344821  0.87335058  1
  O  O313  1  0.74505708  0.74368384  0.38083378  1
  O  O314  1  0.75840208  0.74690013  0.89096403  1
  O  O315  1  0.00625687  0.12291631  0.01351751  1
  O  O316  1  0.00521688  0.12018358  0.50557955  1
  O  O317  1  0.00584220  0.62378484  0.00747064  1
  O  O318  1  -0.00709998  0.61584530  0.51127396  1
  O  O319  1  0.51577827  0.10537917  -0.00946051  1
  O  O320  1  0.51395377  0.12226754  0.49526260  1
  O  O321  1  0.50745706  0.62190568  0.00320898  1
  O  O322  1  0.50951214  0.62840128  0.50922608  1
  O  O323  1  0.49763889  0.37541909  0.48032060  1
  O  O324  1  0.49571825  0.38505212  0.98834942  1
  O  O325  1  0.49288932  0.88271261  0.50608465  1
  O  O326  1  0.50500269  0.87453588  0.98845632  1
  O  O327  1  0.99085472  0.38480312  0.50555905  1
  O  O328  1  0.98875270  0.38317242  0.99475733  1
  O  O329  1  0.99914659  0.88589417  0.49518023  1
  O  O330  1  0.99771171  0.88617773  0.99803989  1
  O  O331  1  0.49035408  0.50142689  0.36840902  1
  O  O332  1  0.49438253  0.49682904  0.88162298  1
  O  O333  1  0.49424691  0.99881780  0.38844781  1
  O  O334  1  0.51445404  0.97583167  0.89107897  1
  O  O335  1  0.99777171  0.50764720  0.38732814  1
  O  O336  1  0.98657060  0.50229494  0.87069946  1
  O  O337  1  0.99579778  0.99465461  0.38147749  1
  O  O338  1  0.99068864  1.00187818  0.88452033  1
  O  O339  1  0.00029355  0.00783037  0.12041082  1
  O  O340  1  -0.00903225  0.01101451  0.61441035  1
  O  O341  1  0.00495539  0.50897313  0.12400228  1
  O  O342  1  0.00821529  0.50649386  0.61630294  1
  O  O343  1  0.51832140  -0.01631103  0.10609059  1
  O  O344  1  0.49390678  0.01143376  0.61007596  1
  O  O345  1  0.50628372  0.50285357  0.11953801  1
  O  O346  1  0.49756001  0.51420668  0.63006108  1
  O  O347  1  0.25639933  0.39487699  0.25400788  1
  O  O348  1  0.25203495  0.39217497  0.73772147  1
  O  O349  1  0.24327616  0.88124495  0.23983228  1
  O  O350  1  0.23346222  0.87154535  0.74721842  1
  O  O351  1  0.74009832  0.38122446  0.24407796  1
  O  O352  1  0.74173329  0.38332361  0.74384167  1
  O  O353  1  0.75388132  0.88794475  0.25658016  1
  O  O354  1  0.74488801  0.88021185  0.74486604  1
  O  O355  1  0.26485590  0.10285481  0.23799467  1
  O  O356  1  0.23749773  0.12232321  0.76658779  1
  O  O357  1  0.26234573  0.62289043  0.26058887  1
  O  O358  1  0.25557509  0.61722109  0.74769885  1
  O  O359  1  0.75501075  0.11945721  0.25718940  1
  O  O360  1  0.75452276  0.12049383  0.75687717  1
  O  O361  1  0.75509180  0.61938013  0.25439973  1
  O  O362  1  0.75511314  0.62000441  0.74961446  1
  O  O363  1  0.37517847  0.11219474  0.37560143  1
  O  O364  1  0.38887723  0.14529707  0.87549366  1
  O  O365  1  0.37178067  0.61978294  0.36859908  1
  O  O366  1  0.37383800  0.62021938  0.86771625  1
  O  O367  1  0.86554800  0.11906580  0.37125420  1
  O  O368  1  0.86984593  0.11709387  0.87122149  1
  O  O369  1  0.86915138  0.61955905  0.37050499  1
  O  O370  1  0.87369168  0.61857277  0.86359503  1
  O  O371  1  0.13219851  0.37176192  0.11465451  1
  O  O372  1  0.13522160  0.38139728  0.62558080  1
  O  O373  1  0.13071221  0.87243044  0.12796389  1
  O  O374  1  0.12645934  0.87409256  0.63742338  1
  O  O375  1  0.63025375  0.38163380  0.12982217  1
  O  O376  1  0.62330259  0.36974296  0.63691463  1
  O  O377  1  0.63526339  0.88439110  0.12757515  1
  O  O378  1  0.63564599  0.87356482  0.63327741  1
  O  O379  1  0.11243785  0.24410618  0.26324499  1
  O  O380  1  0.11721462  0.24374689  0.75331744  1
  O  O381  1  0.12173328  0.74341264  0.26816655  1
  O  O382  1  0.11399201  0.75489310  0.74776904  1
  O  O383  1  0.62724584  0.26007184  0.24498875  1
  O  O384  1  0.63309978  0.26215645  0.76310426  1
  O  O385  1  0.61680295  0.75033530  0.25641417  1
  O  O386  1  0.61296147  0.75469128  0.74504222  1
  O  O387  1  0.38016460  0.24895181  0.23873468  1
  O  O388  1  0.38413118  0.25346458  0.74692599  1
  O  O389  1  0.38072358  0.74827626  0.24587768  1
  O  O390  1  0.38419701  0.74635017  0.74444011  1
  O  O391  1  0.88445470  0.24702412  0.24485887  1
  O  O392  1  0.87909267  0.24550769  0.73896212  1
  O  O393  1  0.87476501  0.74177646  0.24279146  1
  O  O394  1  0.88473084  0.74740071  0.74328929  1
  O  O395  1  0.37638392  0.48927419  0.48837657  1
  O  O396  1  0.37763669  0.49343484  0.99857151  1
  O  O397  1  0.38169441  0.99203302  0.48919650  1
  O  O398  1  0.39975665  1.01029753  1.00901695  1
  O  O399  1  0.88207032  0.49194692  0.49527820  1
  O  O400  1  0.87229271  0.50185002  0.98638707  1
  O  O401  1  0.88465334  1.00166923  0.49337313  1
  O  O402  1  0.88458582  1.00225565  0.99428118  1
  O  O403  1  0.11242531  0.01069736  0.00179088  1
  O  O404  1  0.11404262  0.01349652  0.49241498  1
  O  O405  1  0.12712770  0.51502607  0.00546573  1
  O  O406  1  0.11953713  0.49492047  0.50826187  1
  O  O407  1  0.62708049  0.00465221  0.00567102  1
  O  O408  1  0.61881907  0.00610021  0.50329578  1
  O  O409  1  0.62151659  0.50749306  0.00677211  1
  O  O410  1  0.63181465  0.51282597  0.49471014  1
  O  O411  1  0.37856267  0.36672295  0.11811109  1
  O  O412  1  0.37361450  0.37351735  0.61393839  1
  O  O413  1  0.36089548  0.86615558  0.12960644  1
  O  O414  1  0.37379360  0.86659547  0.61431045  1
  O  O415  1  0.86413992  0.36885073  0.12564336  1
  O  O416  1  0.87318660  0.36348157  0.61356834  1
  O  O417  1  0.87969885  0.86106978  0.12592969  1
  O  O418  1  0.86257150  0.86970038  0.62507376  1
  O  O419  1  0.12048093  0.13595630  0.38475180  1
  O  O420  1  0.11999219  0.13541690  0.88439950  1
  O  O421  1  0.13884313  0.62999142  0.37584391  1
  O  O422  1  0.12636357  0.62721639  0.88323110  1
  O  O423  1  0.63616053  0.11883156  0.37940741  1
  O  O424  1  0.63769404  0.13560317  0.88186521  1
  O  O425  1  0.63028952  0.63464808  0.38081663  1
  O  O426  1  0.62669260  0.62088138  0.88943367  1
