# generated using pymatgen
data_V85Zn86O256
_symmetry_space_group_name_H-M   'P 1'
_cell_length_a   16.97631850
_cell_length_b   16.96188419
_cell_length_c   16.96290672
_cell_angle_alpha   90.02225675
_cell_angle_beta   89.94333005
_cell_angle_gamma   89.96563198
_symmetry_Int_Tables_number   1
_chemical_formula_structural   V85Zn86O256
_chemical_formula_sum   'V85 Zn86 O256'
_cell_volume   4884.47126087
_cell_formula_units_Z   1
loop_
 _symmetry_equiv_pos_site_id
 _symmetry_equiv_pos_as_xyz
  1  'x, y, z'
loop_
 _atom_site_type_symbol
 _atom_site_label
 _atom_site_symmetry_multiplicity
 _atom_site_fract_x
 _atom_site_fract_y
 _atom_site_fract_z
 _atom_site_occupancy
  V  V0  1  0.24861463  0.25196073  -0.00599192  1
  V  V1  1  0.62492146  0.00415341  0.62558772  1
  V  V2  1  0.25033871  0.12086668  0.37371974  1
  V  V3  1  0.87432566  0.37442550  0.49561483  1
  V  V4  1  0.12410705  0.24991971  0.37391035  1
  V  V5  1  0.12750100  0.50546364  0.12362730  1
  V  V6  1  0.73919255  0.63544738  0.89228457  1
  V  V7  1  0.13133257  0.87793356  0.25311979  1
  V  V8  1  0.50070002  0.63065192  0.62776173  1
  V  V9  1  0.11883532  0.36702085  0.74794192  1
  V  V10  1  0.87244764  0.37660008  0.00478714  1
  V  V11  1  0.05920555  0.81705431  0.79612591  1
  V  V12  1  0.00379330  0.12570944  0.63226781  1
  V  V13  1  0.49654931  0.86697033  0.88064189  1
  V  V14  1  0.75157741  0.25351907  0.00384573  1
  V  V15  1  0.50173496  0.37435868  0.87855879  1
  V  V16  1  0.24997089  0.50465700  0.25403968  1
  V  V17  1  0.12781956  0.62401883  0.49502226  1
  V  V18  1  0.26098016  0.74535098  0.51386468  1
  V  V19  1  0.13381903  -0.00350775  0.12240007  1
  V  V20  1  0.62641510  0.12063715  0.00466453  1
  V  V21  1  0.37222832  0.24839826  0.12554751  1
  V  V22  1  0.87804644  0.12729068  0.75005643  1
  V  V23  1  0.87400234  0.50703087  0.87130492  1
  V  V24  1  0.24874130  0.25046585  0.50048842  1
  V  V25  1  0.50229575  0.50484769  0.00457204  1
  V  V26  1  0.00001300  0.12279775  0.12271981  1
  V  V27  1  0.87871656  0.25065210  0.62937607  1
  V  V28  1  0.75181180  0.37507953  0.62571669  1
  V  V29  1  0.50542627  0.36993930  0.37396484  1
  V  V30  1  0.88026124  -0.00289424  0.87542666  1
  V  V31  1  0.37691910  0.62984317  0.74611990  1
  V  V32  1  -0.00325877  0.87828114  0.37419145  1
  V  V33  1  0.37363437  0.50626670  0.37405713  1
  V  V34  1  0.37577576  0.25330917  0.62648977  1
  V  V35  1  0.73762960  0.11877104  0.37989958  1
  V  V36  1  -0.00812038  0.00111875  0.49940986  1
  V  V37  1  0.87331782  0.74945338  0.12313404  1
  V  V38  1  0.75194730  0.51293819  0.75060755  1
  V  V39  1  -0.00007488  0.24989851  0.24950379  1
  V  V40  1  0.74644363  0.00229655  0.75060189  1
  V  V41  1  -0.00183838  0.36961743  0.87258922  1
  V  V42  1  -0.00119892  0.51028174  0.00149537  1
  V  V43  1  0.12337197  0.12096433  0.50294511  1
  V  V44  1  0.75104173  0.52154135  0.24814441  1
  V  V45  1  0.61933352  0.86353967  0.75825729  1
  V  V46  1  0.73971717  0.24684473  0.49543678  1
  V  V47  1  0.13463384  0.74598851  0.37459934  1
  V  V48  1  0.63922351  0.36561928  0.25018212  1
  V  V49  1  0.37477202  0.37614026  0.49856013  1
  V  V50  1  0.86898175  0.51754697  0.37196745  1
  V  V51  1  0.25281383  -0.00195169  0.73458338  1
  V  V52  1  0.87144915  0.25189845  0.12809932  1
  V  V53  1  0.36711602  0.01080847  0.87842524  1
  V  V54  1  0.12590248  0.49983182  0.62047016  1
  V  V55  1  0.86955272  0.87545813  0.49629049  1
  V  V56  1  0.50126211  0.24896178  0.25059702  1
  V  V57  1  0.12444362  0.37503824  0.24968700  1
  V  V58  1  0.62767349  0.25051211  0.87738179  1
  V  V59  1  0.62992678  0.62470185  0.49454878  1
  V  V60  1  0.62613438  0.49903192  0.62350934  1
  V  V61  1  0.24859742  0.37667677  0.62705369  1
  V  V62  1  0.50218577  0.49849848  0.49867065  1
  V  V63  1  -0.00458285  0.62562690  0.12880158  1
  V  V64  1  -0.00317882  0.74571195  0.25055872  1
  V  V65  1  -0.00257644  0.50198061  0.49735516  1
  V  V66  1  0.87788732  0.11491558  0.26300448  1
  V  V67  1  0.62471360  0.49840116  0.12622823  1
  V  V68  1  0.00270988  -0.01010565  0.00017865  1
  V  V69  1  0.75192984  0.12744953  0.87558950  1
  V  V70  1  0.36508392  0.76054131  0.12245001  1
  V  V71  1  0.37237969  -0.00224523  0.37681250  1
  V  V72  1  0.50536539  0.12898538  0.62547982  1
  V  V73  1  0.87529346  0.74327804  0.63079081  1
  V  V74  1  0.50165654  0.87420384  0.37922052  1
  V  V75  1  0.50016005  0.25285762  0.75093219  1
  V  V76  1  0.23306266  0.51436470  0.77774968  1
  V  V77  1  0.62706907  0.37714976  0.75100024  1
  V  V78  1  0.74862306  0.74681637  0.49424715  1
  V  V79  1  0.37896255  0.50256372  0.87453737  1
  V  V80  1  0.50403472  0.00917945  0.49870622  1
  V  V81  1  0.86802719  0.86837945  -0.00380442  1
  V  V82  1  0.12576832  0.24672032  0.87224649  1
  V  V83  1  0.62922848  0.74560685  0.36983853  1
  V  V84  1  0.49481127  0.74681433  0.25138282  1
  Zn  Zn85  1  0.37324057  0.37514500  0.00308175  1
  Zn  Zn86  1  0.36610118  0.88358180  0.52008939  1
  Zn  Zn87  1  0.37020047  0.13368722  0.75810260  1
  Zn  Zn88  1  0.62596017  0.00101242  0.13446826  1
  Zn  Zn89  1  0.74232753  0.87236186  0.62434925  1
  Zn  Zn90  1  0.75033080  0.88043816  0.12798683  1
  Zn  Zn91  1  0.25055201  0.37380515  0.12605814  1
  Zn  Zn92  1  0.25444538  -0.00412790  0.24893538  1
  Zn  Zn93  1  0.12779446  0.12280145  -0.00723369  1
  Zn  Zn94  1  0.18546676  0.81692674  0.07317526  1
  Zn  Zn95  1  0.51888407  0.65741924  0.09262973  1
  Zn  Zn96  1  0.20597233  0.68314480  -0.06018904  1
  Zn  Zn97  1  0.62984003  0.87649076  0.24867865  1
  Zn  Zn98  1  0.50019772  0.12269091  0.12626989  1
  Zn  Zn99  1  -0.00321790  0.37692255  0.37292904  1
  Zn  Zn100  1  0.37617954  0.12358646  0.25031943  1
  Zn  Zn101  1  0.75244358  -0.00501230  0.25422320  1
  Zn  Zn102  1  -0.00046275  0.62586228  0.63728291  1
  Zn  Zn103  1  0.37434277  0.62665681  0.24562887  1
  Zn  Zn104  1  0.49696047  0.00095876  0.00249417  1
  Zn  Zn105  1  0.10161313  -0.04957345  0.65887564  1
  Zn  Zn106  1  0.35579346  0.87819632  0.00053935  1
  Zn  Zn107  1  0.18831120  0.18430898  0.18557359  1
  Zn  Zn108  1  0.19082645  0.18125230  0.69098662  1
  Zn  Zn109  1  0.18469105  0.68262066  0.19243370  1
  Zn  Zn110  1  0.18663291  0.68615177  0.68842580  1
  Zn  Zn111  1  0.69133081  0.18311871  0.19148124  1
  Zn  Zn112  1  0.68864471  0.18922063  0.68700820  1
  Zn  Zn113  1  0.66991684  0.70126798  0.15705540  1
  Zn  Zn114  1  0.68705145  0.68869988  0.68283927  1
  Zn  Zn115  1  0.31343595  0.31452869  0.31228805  1
  Zn  Zn116  1  0.30815781  0.32130600  0.81346823  1
  Zn  Zn117  1  0.31409011  0.81370484  0.31994264  1
  Zn  Zn118  1  0.31803027  0.81589452  0.80583750  1
  Zn  Zn119  1  0.81537991  0.30633714  0.31698211  1
  Zn  Zn120  1  0.81356012  0.31703787  0.81259545  1
  Zn  Zn121  1  0.81309367  0.80842529  0.31097162  1
  Zn  Zn122  1  0.80301165  0.81614333  0.81471322  1
  Zn  Zn123  1  0.18843963  0.43663919  0.43529264  1
  Zn  Zn124  1  0.19576887  0.50654576  0.95010854  1
  Zn  Zn125  1  0.17055902  0.91751132  0.47342960  1
  Zn  Zn126  1  0.19124228  0.85151655  0.91957304  1
  Zn  Zn127  1  0.69009985  0.43673082  0.43034066  1
  Zn  Zn128  1  0.68931155  0.44276151  0.94071562  1
  Zn  Zn129  1  0.68379939  0.93630651  0.43792521  1
  Zn  Zn130  1  0.69022175  0.93623254  0.93639393  1
  Zn  Zn131  1  0.30996903  0.06647555  0.05713312  1
  Zn  Zn132  1  0.31777611  0.06835484  0.56323740  1
  Zn  Zn133  1  0.32282853  0.57177143  0.06730094  1
  Zn  Zn134  1  0.31140284  0.56535004  0.56260774  1
  Zn  Zn135  1  0.81278052  0.06201716  0.06516125  1
  Zn  Zn136  1  0.81093967  0.06343575  0.56181297  1
  Zn  Zn137  1  0.81082369  0.56196443  0.06693982  1
  Zn  Zn138  1  0.81105224  0.56296137  0.56050692  1
  Zn  Zn139  1  0.43804303  0.43299891  0.18871542  1
  Zn  Zn140  1  0.43548418  0.44346141  0.68925247  1
  Zn  Zn141  1  0.44267732  0.93675671  0.18854866  1
  Zn  Zn142  1  0.43142184  0.94050053  0.69677055  1
  Zn  Zn143  1  0.93295027  0.43887133  0.18992877  1
  Zn  Zn144  1  0.93905786  0.44276243  0.68787571  1
  Zn  Zn145  1  0.93912482  0.93430623  0.18553474  1
  Zn  Zn146  1  0.92735524  0.93629257  0.68177501  1
  Zn  Zn147  1  0.06206378  0.05993556  0.31434821  1
  Zn  Zn148  1  0.06848226  0.05397641  0.81425306  1
  Zn  Zn149  1  0.05899105  0.56225343  0.31313739  1
  Zn  Zn150  1  0.06224606  0.56028148  0.81228018  1
  Zn  Zn151  1  0.56431333  0.06380724  0.31282208  1
  Zn  Zn152  1  0.55679945  0.06173305  0.81624955  1
  Zn  Zn153  1  0.56542094  0.56100838  0.30756488  1
  Zn  Zn154  1  0.56360633  0.56596152  0.81416447  1
  Zn  Zn155  1  0.43816315  0.18783324  0.43770696  1
  Zn  Zn156  1  0.43959641  0.18838635  0.94200860  1
  Zn  Zn157  1  0.44310536  0.68399180  0.43771673  1
  Zn  Zn158  1  0.42475480  0.69058872  0.93466428  1
  Zn  Zn159  1  0.93673458  0.19025146  0.43960227  1
  Zn  Zn160  1  0.94013832  0.18671839  0.93885689  1
  Zn  Zn161  1  0.94256894  0.69082654  0.44130747  1
  Zn  Zn162  1  0.92586592  0.68319320  0.80750331  1
  Zn  Zn163  1  0.06196904  0.31691341  0.05967861  1
  Zn  Zn164  1  0.05916267  0.31059963  0.56109985  1
  Zn  Zn165  1  0.01573486  0.76487928  -0.02201790  1
  Zn  Zn166  1  0.05792065  0.80611393  0.56418172  1
  Zn  Zn167  1  0.56324445  0.31357816  0.06698893  1
  Zn  Zn168  1  0.56357919  0.31459667  0.56222755  1
  Zn  Zn169  1  0.56658863  0.82084193  0.06139993  1
  Zn  Zn170  1  0.52255111  0.83671698  0.59213219  1
  O  O171  1  0.10967296  0.11967730  0.12912631  1
  O  O172  1  0.11518260  0.13412433  0.61487677  1
  O  O173  1  0.11391059  0.61069643  0.13320776  1
  O  O174  1  0.12165048  0.61443424  0.61796133  1
  O  O175  1  0.62525029  0.12745012  0.11661848  1
  O  O176  1  0.61395248  0.12196542  0.62901518  1
  O  O177  1  0.60847654  0.59718695  0.15160617  1
  O  O178  1  0.62232176  0.61436313  0.61837173  1
  O  O179  1  0.38344709  0.38178290  0.38087342  1
  O  O180  1  0.39281658  0.37759552  0.87395418  1
  O  O181  1  0.38404157  0.88390066  0.38250832  1
  O  O182  1  0.38738565  0.88602903  0.87641915  1
  O  O183  1  0.87361762  0.37839659  0.38707208  1
  O  O184  1  0.88066491  0.38247199  0.88154348  1
  O  O185  1  0.88227982  0.86673361  0.38830769  1
  O  O186  1  0.86956458  0.88439997  0.88426771  1
  O  O187  1  0.25848686  0.00855747  0.38003958  1
  O  O188  1  0.26942642  0.00073297  0.86588217  1
  O  O189  1  0.26188314  0.49162824  0.36760629  1
  O  O190  1  0.27294462  0.47003312  0.87306689  1
  O  O191  1  0.74945435  0.01552922  0.38284173  1
  O  O192  1  0.76096789  0.00850333  0.87124407  1
  O  O193  1  0.75662030  0.49992610  0.36060203  1
  O  O194  1  0.75626169  0.50301333  0.86744305  1
  O  O195  1  0.24109203  0.49489421  0.13529113  1
  O  O196  1  0.23547494  0.49243958  0.61684169  1
  O  O197  1  0.23559450  1.01533194  0.13177751  1
  O  O198  1  0.25834044  1.00276452  0.63237105  1
  O  O199  1  0.74337394  0.50023845  0.13991338  1
  O  O200  1  0.74697173  0.49445350  0.63139380  1
  O  O201  1  0.74841136  1.00243969  0.13287063  1
  O  O202  1  0.74128338  0.99964194  0.63009920  1
  O  O203  1  0.00567244  0.36867898  0.25193555  1
  O  O204  1  0.00737875  0.38030126  0.75816650  1
  O  O205  1  0.00734104  0.87028202  0.25913152  1
  O  O206  1  0.01828785  0.87940234  0.72227745  1
  O  O207  1  0.50812491  0.36585218  0.25738693  1
  O  O208  1  0.50773409  0.37259907  0.75645534  1
  O  O209  1  0.50026955  0.86739255  0.26672051  1
  O  O210  1  0.51343159  0.88137891  0.76473857  1
  O  O211  1  0.49964736  0.14016469  0.25454966  1
  O  O212  1  0.49914523  0.13733474  0.74260450  1
  O  O213  1  0.49594925  0.64225090  0.26315834  1
  O  O214  1  0.48755282  0.61313681  0.74184763  1
  O  O215  1  0.99381492  0.13030754  0.24730662  1
  O  O216  1  0.99544168  0.11675703  0.73771068  1
  O  O217  1  1.00209740  0.63360856  0.24297097  1
  O  O218  1  0.98972547  0.61160578  0.74968240  1
  O  O219  1  0.36851162  0.25148921  0.00740707  1
  O  O220  1  0.36975462  0.25742690  0.50548527  1
  O  O221  1  0.37674031  0.75684047  0.01769258  1
  O  O222  1  0.36099393  0.73410105  0.49838355  1
  O  O223  1  0.87188286  0.25633616  0.00809582  1
  O  O224  1  0.86884578  0.25845198  0.50902918  1
  O  O225  1  0.89587538  0.76650548  0.00559409  1
  O  O226  1  0.86646819  0.75538656  0.50479854  1
  O  O227  1  0.12723540  0.24151210  0.49315915  1
  O  O228  1  0.12889661  0.25253552  0.98956967  1
  O  O229  1  0.13080658  0.73889683  0.49214064  1
  O  O230  1  0.12665043  0.75869087  0.99116767  1
  O  O231  1  0.64154147  0.25321563  0.50503764  1
  O  O232  1  0.63332672  0.24587057  0.99767145  1
  O  O233  1  0.63378964  0.73947470  0.49107182  1
  O  O234  1  0.61205859  0.72008941  1.05973276  1
  O  O235  1  0.49238416  0.24930111  0.13458874  1
  O  O236  1  0.49773890  0.24794863  0.62957525  1
  O  O237  1  0.48331093  0.76131054  0.14188554  1
  O  O238  1  0.51453266  0.72808783  0.62312949  1
  O  O239  1  0.99288109  0.24270628  0.12842441  1
  O  O240  1  0.98915629  0.23969093  0.61900188  1
  O  O241  1  0.99583740  0.73888329  0.13314978  1
  O  O242  1  0.98029060  0.74447888  0.61727774  1
  O  O243  1  0.00704884  0.25215910  0.36904487  1
  O  O244  1  0.00197194  0.26383533  0.87889180  1
  O  O245  1  0.00612900  0.75819448  0.36938781  1
  O  O246  1  -0.00567857  0.76141898  0.85886766  1
  O  O247  1  0.49453305  0.26241945  0.36976008  1
  O  O248  1  0.50769249  0.25717792  0.87163633  1
  O  O249  1  0.50688374  0.75840113  0.37574486  1
  O  O250  1  0.49107151  0.76712081  0.87819569  1
  O  O251  1  0.24132876  0.12992225  0.49374098  1
  O  O252  1  0.24206896  0.14441990  1.00624639  1
  O  O253  1  0.23698011  0.63013426  0.50134519  1
  O  O254  1  0.23761348  0.59853062  1.00296375  1
  O  O255  1  0.75652934  0.13700555  0.49158469  1
  O  O256  1  0.74853512  0.13489402  0.99396635  1
  O  O257  1  0.73722886  0.62941624  0.50191129  1
  O  O258  1  0.74959398  0.61896365  0.99060115  1
  O  O259  1  0.25238073  0.35953249  0.00842244  1
  O  O260  1  0.25354707  0.36834755  0.50572592  1
  O  O261  1  0.24311149  0.89133764  0.01006331  1
  O  O262  1  0.26136673  0.84980525  0.48860667  1
  O  O263  1  0.76413331  0.36990823  -0.00484357  1
  O  O264  1  0.75563332  0.36620168  0.50316277  1
  O  O265  1  0.76465196  0.87549077  0.00180339  1
  O  O266  1  0.75408731  0.86689399  0.50094281  1
  O  O267  1  0.12990416  0.49252059  0.24812610  1
  O  O268  1  0.12825236  0.48733586  0.73531904  1
  O  O269  1  0.12472441  0.99286460  0.24494561  1
  O  O270  1  0.14445032  1.00644830  0.74597042  1
  O  O271  1  0.63832200  0.48632158  0.25184173  1
  O  O272  1  0.63256127  0.49451735  0.74418238  1
  O  O273  1  0.63135773  0.99714261  0.25503079  1
  O  O274  1  0.63017143  1.00309440  0.74249565  1
  O  O275  1  0.37440086  0.00201338  0.26384844  1
  O  O276  1  0.37380589  0.01109803  0.75984250  1
  O  O277  1  0.36781771  0.49773059  0.25643687  1
  O  O278  1  0.36421591  0.50322783  0.75983522  1
  O  O279  1  0.87824836  0.01249911  0.24896451  1
  O  O280  1  0.86803410  0.00326197  0.75631197  1
  O  O281  1  0.85951154  0.49814919  0.25714312  1
  O  O282  1  0.86294018  0.48943740  0.76016316  1
  O  O283  1  0.12235682  0.36980325  0.36474543  1
  O  O284  1  0.11265971  0.36595926  0.86302583  1
  O  O285  1  0.11429226  0.86556942  0.37572412  1
  O  O286  1  0.10435357  0.88327909  0.85644937  1
  O  O287  1  0.61734348  0.37547640  0.36290694  1
  O  O288  1  0.61842403  0.37190630  0.87236995  1
  O  O289  1  0.61942355  0.86117861  0.37634329  1
  O  O290  1  0.61729325  0.87988011  0.86612655  1
  O  O291  1  0.37660942  0.13611462  0.12936155  1
  O  O292  1  0.39006350  0.13759760  0.62349242  1
  O  O293  1  0.38750721  0.64125064  0.12829964  1
  O  O294  1  0.38665550  0.61258591  0.63591608  1
  O  O295  1  0.88565086  0.13149411  0.13428925  1
  O  O296  1  0.88116511  0.13241614  0.62977886  1
  O  O297  1  0.88821145  0.63136518  0.11805218  1
  O  O298  1  0.87245990  0.63980729  0.61904396  1
  O  O299  1  0.25715328  0.25148896  0.12336722  1
  O  O300  1  0.25529646  0.25649339  0.61965484  1
  O  O301  1  0.25925215  0.74700310  0.13380965  1
  O  O302  1  0.25015607  0.74466163  0.61225184  1
  O  O303  1  0.76549430  0.24366643  0.12224941  1
  O  O304  1  0.75744743  0.25341869  0.61484953  1
  O  O305  1  0.77227799  0.74841478  0.13132394  1
  O  O306  1  0.75619095  0.75113174  0.61211834  1
  O  O307  1  0.24518730  0.24436469  0.38190888  1
  O  O308  1  0.23827016  0.25809978  0.88065790  1
  O  O309  1  0.23631046  0.74556563  0.37432650  1
  O  O310  1  0.25390795  0.76273857  0.88009167  1
  O  O311  1  0.75414379  0.24208624  0.39041968  1
  O  O312  1  0.74673522  0.24700498  0.88076155  1
  O  O313  1  0.74340094  0.74972466  0.38519301  1
  O  O314  1  0.75622312  0.73376803  0.87646365  1
  O  O315  1  -0.00205198  0.11646640  0.01028594  1
  O  O316  1  0.00243354  0.11881346  0.50645551  1
  O  O317  1  0.00507414  0.61144263  0.00778504  1
  O  O318  1  0.01061930  0.61783445  0.50367829  1
  O  O319  1  0.51446151  0.12712976  0.00304866  1
  O  O320  1  0.50067192  0.11699176  0.50583428  1
  O  O321  1  0.49149526  0.60832341  -0.00919867  1
  O  O322  1  0.51137033  0.61597934  0.50562240  1
  O  O323  1  0.49718538  0.37924293  0.49258768  1
  O  O324  1  0.50084286  0.38040500  0.99145923  1
  O  O325  1  0.50608471  0.89121584  0.48796866  1
  O  O326  1  0.50306235  0.88083733  0.98764566  1
  O  O327  1  0.99006823  0.38157557  0.49739252  1
  O  O328  1  0.98755205  0.38043639  0.99314461  1
  O  O329  1  0.98902452  0.88213841  0.49332612  1
  O  O330  1  0.98886791  0.88786449  0.99853758  1
  O  O331  1  0.49590592  0.48873071  0.37783902  1
  O  O332  1  0.49630725  0.49175510  0.87928810  1
  O  O333  1  0.49507738  0.99856282  0.38309868  1
  O  O334  1  0.49086425  0.99421426  0.87900242  1
  O  O335  1  0.98787679  0.49753955  0.37925818  1
  O  O336  1  0.99178862  0.49138905  0.88473116  1
  O  O337  1  1.00063329  0.98705049  0.38250493  1
  O  O338  1  0.98650019  1.00933879  0.88344544  1
  O  O339  1  0.00366346  0.00617977  0.11841733  1
  O  O340  1  0.00072004  0.00852948  0.61557852  1
  O  O341  1  0.00197674  0.50540030  0.12241899  1
  O  O342  1  0.00995206  0.49842615  0.61499264  1
  O  O343  1  0.50437171  0.00506849  0.12211315  1
  O  O344  1  0.50609694  0.01301928  0.62051943  1
  O  O345  1  0.50543075  0.48893772  0.11418331  1
  O  O346  1  0.50881863  0.50105527  0.61683824  1
  O  O347  1  0.24013113  0.38205242  0.24972839  1
  O  O348  1  0.23919657  0.38821878  0.74333076  1
  O  O349  1  0.23473412  0.87773042  0.26292375  1
  O  O350  1  0.26645660  0.89736361  0.74494614  1
  O  O351  1  0.73928962  0.36710572  0.25509255  1
  O  O352  1  0.74397139  0.38133316  0.74342598  1
  O  O353  1  0.75118446  0.87731946  0.24981460  1
  O  O354  1  0.73588562  0.88507000  0.74972229  1
  O  O355  1  0.24966047  0.12446186  0.26562233  1
  O  O356  1  0.25833196  0.11303112  0.74652347  1
  O  O357  1  0.25147847  0.60856875  0.25041713  1
  O  O358  1  0.26184918  0.60944915  0.73524413  1
  O  O359  1  0.75979377  0.12774192  0.26809885  1
  O  O360  1  0.75761525  0.12156531  0.75460344  1
  O  O361  1  0.74324209  0.61759490  0.24572163  1
  O  O362  1  0.74713657  0.61451024  0.74996638  1
  O  O363  1  0.36597300  0.11868811  0.37703249  1
  O  O364  1  0.38207371  0.11559035  0.87602262  1
  O  O365  1  0.38125200  0.60832940  0.37384317  1
  O  O366  1  0.37740121  0.61211986  0.86229810  1
  O  O367  1  0.87089275  0.13112645  0.36720218  1
  O  O368  1  0.87151347  0.12181936  0.86795914  1
  O  O369  1  0.87656460  0.61607086  0.38285642  1
  O  O370  1  0.86339191  0.61052220  0.87458261  1
  O  O371  1  0.12115773  0.38179984  0.13909747  1
  O  O372  1  0.12662984  0.37787354  0.62805684  1
  O  O373  1  0.12038508  0.88674735  0.14058232  1
  O  O374  1  0.13342176  0.88353010  0.57876550  1
  O  O375  1  0.62232454  0.38130138  0.14348415  1
  O  O376  1  0.63257347  0.38108769  0.62916630  1
  O  O377  1  0.63236652  0.88224138  0.12941856  1
  O  O378  1  0.61879049  0.88672639  0.64076844  1
  O  O379  1  0.12023454  0.25650898  0.25321596  1
  O  O380  1  0.13069762  0.26108976  0.75254725  1
  O  O381  1  0.11652803  0.75655105  0.25632817  1
  O  O382  1  0.12388143  0.75199204  0.75385905  1
  O  O383  1  0.61912392  0.25925260  0.24606133  1
  O  O384  1  0.62180172  0.25790628  0.75642254  1
  O  O385  1  0.61565666  0.75105916  0.25659799  1
  O  O386  1  0.62999664  0.76590658  0.74715478  1
  O  O387  1  0.38289174  0.24972817  0.24485392  1
  O  O388  1  0.38115051  0.25561054  0.74432901  1
  O  O389  1  0.37831414  0.74975964  0.24892803  1
  O  O390  1  0.37127199  0.72814127  0.75059520  1
  O  O391  1  0.88191483  0.24446729  0.24416873  1
  O  O392  1  0.86915733  0.24809364  0.73603997  1
  O  O393  1  0.89129502  0.75687371  0.24159910  1
  O  O394  1  0.86534741  0.75574101  0.73429211  1
  O  O395  1  0.38003922  0.49454795  0.49323649  1
  O  O396  1  0.38458439  0.49388155  0.99300918  1
  O  O397  1  0.38431012  1.00150756  0.49255558  1
  O  O398  1  0.37532407  1.00042749  0.99055578  1
  O  O399  1  0.87505127  0.49295709  0.49268016  1
  O  O400  1  0.88000950  0.49313426  0.99552363  1
  O  O401  1  0.88367314  0.99219606  0.50563510  1
  O  O402  1  0.87928264  0.99288698  0.99307889  1
  O  O403  1  0.11289439  0.00637848  0.01105407  1
  O  O404  1  0.11151931  0.01688507  0.49037222  1
  O  O405  1  0.10866428  0.47982852  0.01710366  1
  O  O406  1  0.11957229  0.50390948  0.50088851  1
  O  O407  1  0.63081272  0.01612734  -0.00418322  1
  O  O408  1  0.61901615  -0.00233854  0.51623349  1
  O  O409  1  0.61798084  0.49219625  0.01463210  1
  O  O410  1  0.62396464  0.50418514  0.50165470  1
  O  O411  1  0.37399075  0.36078910  0.12557934  1
  O  O412  1  0.37026726  0.37326700  0.61889892  1
  O  O413  1  0.37141555  0.86439944  0.12912563  1
  O  O414  1  0.41476574  0.86641276  0.61810094  1
  O  O415  1  0.88139081  0.36479250  0.11676209  1
  O  O416  1  0.87127378  0.37054187  0.61598747  1
  O  O417  1  0.87630742  0.86912956  0.11304261  1
  O  O418  1  0.86855772  0.86412439  0.61223415  1
  O  O419  1  0.13082543  0.13092771  0.38063758  1
  O  O420  1  0.11146524  0.14321910  0.87366637  1
  O  O421  1  0.11739427  0.63288480  0.38328109  1
  O  O422  1  0.16567419  0.57040003  0.85270732  1
  O  O423  1  0.63964399  0.12873138  0.37697882  1
  O  O424  1  0.63203520  0.13359063  0.88058572  1
  O  O425  1  0.61870607  0.63549185  0.38172661  1
  O  O426  1  0.64055844  0.62094280  0.87337185  1
