# generated using pymatgen
data_V85Zn86O256
_symmetry_space_group_name_H-M   'P 1'
_cell_length_a   16.94481970
_cell_length_b   16.95445921
_cell_length_c   16.95656834
_cell_angle_alpha   90.01040874
_cell_angle_beta   90.00330745
_cell_angle_gamma   90.03544852
_symmetry_Int_Tables_number   1
_chemical_formula_structural   V85Zn86O256
_chemical_formula_sum   'V85 Zn86 O256'
_cell_volume   4871.45580972
_cell_formula_units_Z   1
loop_
 _symmetry_equiv_pos_site_id
 _symmetry_equiv_pos_as_xyz
  1  'x, y, z'
loop_
 _atom_site_type_symbol
 _atom_site_label
 _atom_site_symmetry_multiplicity
 _atom_site_fract_x
 _atom_site_fract_y
 _atom_site_fract_z
 _atom_site_occupancy
  V  V0  1  0.49412605  0.00087552  0.50010055  1
  V  V1  1  0.64170007  0.00478499  0.12699865  1
  V  V2  1  0.12163830  0.75591253  0.37401379  1
  V  V3  1  0.87687568  0.50376234  0.87705930  1
  V  V4  1  0.89972309  0.89019411  0.49524691  1
  V  V5  1  0.75271170  0.75632542  0.50181094  1
  V  V6  1  -0.00069932  0.63096242  0.12997676  1
  V  V7  1  0.62626722  0.49501338  0.62703306  1
  V  V8  1  0.49365799  0.26173876  0.25041025  1
  V  V9  1  0.50111845  0.25256360  0.75730219  1
  V  V10  1  0.50350326  0.62875943  0.12368321  1
  V  V11  1  0.62408829  0.00076781  0.62442623  1
  V  V12  1  0.38287544  0.62508506  0.25139779  1
  V  V13  1  0.00644926  0.49707197  0.51219991  1
  V  V14  1  0.75188832  0.37467240  0.62618388  1
  V  V15  1  0.37777721  0.74709653  0.62510525  1
  V  V16  1  0.00482147  0.36443079  0.37140340  1
  V  V17  1  0.62195615  0.74948322  0.36861501  1
  V  V18  1  0.12255175  0.37959340  0.74605688  1
  V  V19  1  0.37889239  0.87087967  0.00499959  1
  V  V20  1  0.50252336  0.62122264  0.62439311  1
  V  V21  1  0.12618942  0.61654919  0.50858377  1
  V  V22  1  0.24838644  0.50053497  0.24921299  1
  V  V23  1  0.24464201  0.87147263  0.63045765  1
  V  V24  1  -0.00024701  0.24690065  0.74999883  1
  V  V25  1  0.63073853  0.74876941  0.87740465  1
  V  V26  1  0.87609770  0.01661487  0.37023564  1
  V  V27  1  0.37808258  0.75116752  0.13142000  1
  V  V28  1  0.88043244  0.50334491  0.37647268  1
  V  V29  1  0.87400145  0.62850446  0.25344819  1
  V  V30  1  -0.00106208  0.76679138  0.25613265  1
  V  V31  1  0.00892170  0.11904263  0.61563837  1
  V  V32  1  0.24281194  0.24811903  0.00013332  1
  V  V33  1  0.62578997  0.12775117  0.49424120  1
  V  V34  1  0.88710038  0.63012129  0.74215660  1
  V  V35  1  0.74953863  0.48651094  0.24728008  1
  V  V36  1  0.18834864  0.93011684  0.18485488  1
  V  V37  1  0.37496725  0.87153532  0.50050961  1
  V  V38  1  0.50168538  0.74638209  0.75013952  1
  V  V39  1  0.25050199  0.75440797  0.00472557  1
  V  V40  1  0.23568002  0.12768026  0.37268762  1
  V  V41  1  0.12392395  0.62911124  0.00097255  1
  V  V42  1  0.24664774  0.12160694  0.87601762  1
  V  V43  1  0.87767740  0.37470969  0.50102092  1
  V  V44  1  0.23561841  0.24837311  0.49416955  1
  V  V45  1  0.37609088  0.37054111  0.49301730  1
  V  V46  1  0.50244545  0.49469877  0.49784238  1
  V  V47  1  0.86345776  0.75810276  0.11808866  1
  V  V48  1  0.24492507  0.37525350  0.12446554  1
  V  V49  1  0.62564608  0.62458066  0.00386385  1
  V  V50  1  0.87499244  0.11955966  0.75134199  1
  V  V51  1  0.64109653  0.88110200  0.25206666  1
  V  V52  1  0.62403411  0.87299854  0.74434154  1
  V  V53  1  0.11377450  0.11228908  0.00267827  1
  V  V54  1  0.24904632  0.62163065  0.37234975  1
  V  V55  1  0.12378859  0.50342077  0.12835054  1
  V  V56  1  0.24709926  0.37449670  0.62349316  1
  V  V57  1  0.00187192  0.37637063  0.87920182  1
  V  V58  1  0.50079099  -0.00059508  0.00678196  1
  V  V59  1  0.64751220  0.23619778  0.34079705  1
  V  V60  1  0.49490609  0.12562688  0.62459035  1
  V  V61  1  0.75419504  0.62755622  0.87916136  1
  V  V62  1  -0.01627655  0.87762409  0.86935930  1
  V  V63  1  0.49742066  0.87220297  0.36487374  1
  V  V64  1  0.87399470  0.25094074  0.13526528  1
  V  V65  1  0.37169233  0.12109423  0.24955439  1
  V  V66  1  0.36882370  0.24833939  0.12490677  1
  V  V67  1  0.36589249  -0.00066063  0.37035943  1
  V  V68  1  0.37143733  0.24334943  0.62224274  1
  V  V69  1  0.24653675  0.49965173  0.74529830  1
  V  V70  1  0.62218159  0.13470556  -0.00860166  1
  V  V71  1  0.37554326  0.37804547  -0.00085925  1
  V  V72  1  0.37719808  0.62132808  0.75062214  1
  V  V73  1  0.75022361  0.24549535  0.50010937  1
  V  V74  1  0.12152357  0.35943998  0.25102363  1
  V  V75  1  0.11880466  0.75903956  0.86261609  1
  V  V76  1  -0.00384870  0.12425872  0.14299329  1
  V  V77  1  0.37252290  -0.00335679  0.87777579  1
  V  V78  1  0.23932091  -0.00838692  0.75291240  1
  V  V79  1  0.24931078  0.62533166  0.87540762  1
  V  V80  1  0.62753805  0.62275501  0.49793341  1
  V  V81  1  0.38042430  0.49932139  0.87735380  1
  V  V82  1  0.49965523  0.87279312  0.87655857  1
  V  V83  1  0.86897381  0.37494554  0.00598840  1
  V  V84  1  0.62504628  0.48827853  0.12652977  1
  Zn  Zn85  1  -0.01465666  -0.01353194  0.01169063  1
  Zn  Zn86  1  0.52065665  0.37040380  0.37356649  1
  Zn  Zn87  1  0.74920516  0.00131859  0.74968553  1
  Zn  Zn88  1  0.86527526  0.00129582  0.88294772  1
  Zn  Zn89  1  0.12386888  0.24891992  0.87554271  1
  Zn  Zn90  1  0.74372300  0.25841009  -0.00655473  1
  Zn  Zn91  1  0.73911250  0.05692168  0.28630895  1
  Zn  Zn92  1  0.25216144  0.74428722  0.49972554  1
  Zn  Zn93  1  0.49952102  0.12667527  0.12697393  1
  Zn  Zn94  1  0.37012315  0.12252429  0.74958935  1
  Zn  Zn95  1  0.74222301  0.13542975  0.86576576  1
  Zn  Zn96  1  0.75188677  0.50083118  0.75015207  1
  Zn  Zn97  1  0.63816004  0.36203811  0.76464401  1
  Zn  Zn98  1  0.38145052  0.49497197  0.37104979  1
  Zn  Zn99  1  0.89118816  0.75782396  0.63185063  1
  Zn  Zn100  1  0.80690508  0.90746019  0.04734636  1
  Zn  Zn101  1  0.50690897  0.37502993  0.88206084  1
  Zn  Zn102  1  0.11509370  -0.00883994  0.61581912  1
  Zn  Zn103  1  0.00015760  0.50265269  0.00394571  1
  Zn  Zn104  1  0.74957492  0.62327362  0.37628884  1
  Zn  Zn105  1  0.75791420  0.87583681  0.62442505  1
  Zn  Zn106  1  0.87667515  0.24729371  0.62555377  1
  Zn  Zn107  1  0.18419050  0.17513438  0.18605089  1
  Zn  Zn108  1  0.18558396  0.18773999  0.69000645  1
  Zn  Zn109  1  0.18861582  0.69769693  0.19012504  1
  Zn  Zn110  1  0.18878986  0.68626533  0.68665253  1
  Zn  Zn111  1  0.68498318  0.20003351  0.17099349  1
  Zn  Zn112  1  0.68561425  0.18712417  0.68371836  1
  Zn  Zn113  1  0.68907331  0.68729701  0.19341857  1
  Zn  Zn114  1  0.69460809  0.68447958  0.68722784  1
  Zn  Zn115  1  0.30685797  0.30985119  0.31169412  1
  Zn  Zn116  1  0.31305357  0.31045728  0.81279931  1
  Zn  Zn117  1  0.30786369  0.80937620  0.31106310  1
  Zn  Zn118  1  0.31151932  0.80868359  0.81533041  1
  Zn  Zn119  1  0.81704461  0.31152867  0.31711698  1
  Zn  Zn120  1  0.81463389  0.30946731  0.81629720  1
  Zn  Zn121  1  0.81728226  0.81486186  0.32316192  1
  Zn  Zn122  1  0.80991655  0.81094971  0.80785614  1
  Zn  Zn123  1  0.18746705  0.43557711  0.43382079  1
  Zn  Zn124  1  0.18804656  0.44058069  0.93603335  1
  Zn  Zn125  1  0.18462833  0.93709964  0.43945479  1
  Zn  Zn126  1  0.18447420  0.93259549  0.94549207  1
  Zn  Zn127  1  0.68991664  0.42699474  0.43092176  1
  Zn  Zn128  1  0.68791370  0.44149009  0.93976719  1
  Zn  Zn129  1  0.68783004  0.93998740  0.43685178  1
  Zn  Zn130  1  0.68482238  0.94825430  0.92858589  1
  Zn  Zn131  1  0.30812570  0.05899706  0.06485374  1
  Zn  Zn132  1  0.27741437  0.04705504  0.54756811  1
  Zn  Zn133  1  0.31212960  0.56438537  0.06314258  1
  Zn  Zn134  1  0.31364628  0.55800693  0.56088644  1
  Zn  Zn135  1  0.81352403  0.07880066  0.05848953  1
  Zn  Zn136  1  0.81436261  0.06332226  0.56464125  1
  Zn  Zn137  1  0.81142657  0.56507151  0.06460594  1
  Zn  Zn138  1  0.81289329  0.56274549  0.56034331  1
  Zn  Zn139  1  0.43649499  0.44146450  0.18240787  1
  Zn  Zn140  1  0.43485586  0.43221308  0.68516987  1
  Zn  Zn141  1  0.43677605  0.93656677  0.18762317  1
  Zn  Zn142  1  0.43223093  0.93785243  0.68948729  1
  Zn  Zn143  1  0.93954261  0.43845037  0.18966213  1
  Zn  Zn144  1  0.93501390  0.43980813  0.69094505  1
  Zn  Zn145  1  0.92524976  0.94801105  0.19853371  1
  Zn  Zn146  1  0.93956020  0.93656730  0.68997929  1
  Zn  Zn147  1  0.06114574  0.04662119  0.31079744  1
  Zn  Zn148  1  0.05890543  0.05563327  0.81336219  1
  Zn  Zn149  1  0.06091942  0.56188260  0.31652867  1
  Zn  Zn150  1  0.06301457  0.56429769  0.81283152  1
  Zn  Zn151  1  0.55432754  0.06227188  0.31001113  1
  Zn  Zn152  1  0.55547099  0.06174729  0.81155796  1
  Zn  Zn153  1  0.56467728  0.55860511  0.31087422  1
  Zn  Zn154  1  0.56662253  0.55597683  0.81412184  1
  Zn  Zn155  1  0.43774045  0.18791090  0.43294478  1
  Zn  Zn156  1  0.43297431  0.18576561  0.93977829  1
  Zn  Zn157  1  0.44019526  0.68542041  0.43575816  1
  Zn  Zn158  1  0.44300369  0.68340393  0.94210658  1
  Zn  Zn159  1  0.93904833  0.18632036  0.43894833  1
  Zn  Zn160  1  0.93476832  0.19020100  0.93526666  1
  Zn  Zn161  1  0.95644646  0.70401299  0.47009377  1
  Zn  Zn162  1  0.93965701  0.69365046  0.93947450  1
  Zn  Zn163  1  0.05812780  0.30882767  0.06548356  1
  Zn  Zn164  1  0.05958506  0.31182775  0.56589290  1
  Zn  Zn165  1  0.05752732  0.81526076  0.06179734  1
  Zn  Zn166  1  0.06538644  0.80747044  0.56154659  1
  Zn  Zn167  1  0.55476665  0.31290308  0.06652087  1
  Zn  Zn168  1  0.56261323  0.31023546  0.56569097  1
  Zn  Zn169  1  0.61485392  0.83309400  0.04745039  1
  Zn  Zn170  1  0.56213000  0.81046858  0.55749091  1
  O  O171  1  0.10791230  0.13045462  0.11188295  1
  O  O172  1  0.11112667  0.12523479  0.63141460  1
  O  O173  1  0.11844218  0.62684195  0.12079428  1
  O  O174  1  0.13480040  0.62478508  0.60723659  1
  O  O175  1  0.61974486  0.11842146  0.11630220  1
  O  O176  1  0.61518423  0.11628278  0.61848841  1
  O  O177  1  0.62060428  0.62596389  0.12107257  1
  O  O178  1  0.62274886  0.61572330  0.61818267  1
  O  O179  1  0.37198695  0.37279362  0.38678100  1
  O  O180  1  0.37186693  0.38272880  0.88229580  1
  O  O181  1  0.37848621  0.87801254  0.38001477  1
  O  O182  1  0.38176321  0.87530399  0.88414594  1
  O  O183  1  0.88175488  0.38603893  0.38134383  1
  O  O184  1  0.88389579  0.38498177  0.88295683  1
  O  O185  1  0.87205200  0.88642509  0.39306779  1
  O  O186  1  0.88007898  0.87251502  0.87455454  1
  O  O187  1  0.26149201  0.01026858  0.37696132  1
  O  O188  1  0.25163151  0.00169849  0.87253183  1
  O  O189  1  0.25452793  0.50791126  0.36808581  1
  O  O190  1  0.25720324  0.50556163  0.86481540  1
  O  O191  1  0.76054071  0.00418044  0.38468365  1
  O  O192  1  0.74771124  0.01454888  0.86580718  1
  O  O193  1  0.75599996  0.49980039  0.36456588  1
  O  O194  1  0.76456844  0.50773412  0.87554765  1
  O  O195  1  0.24340341  0.49540841  0.12950385  1
  O  O196  1  0.25768246  0.49118864  0.63802741  1
  O  O197  1  0.23951453  0.99346239  0.12227151  1
  O  O198  1  0.26820868  0.98308061  0.64330809  1
  O  O199  1  0.74156850  0.50605525  0.13884191  1
  O  O200  1  0.74292200  0.49182800  0.62333365  1
  O  O201  1  0.74309797  1.00401646  0.12072742  1
  O  O202  1  0.73290341  0.99750645  0.62452174  1
  O  O203  1  0.01066070  0.37987942  0.25783480  1
  O  O204  1  0.00518618  0.37155828  0.75802917  1
  O  O205  1  -0.00993388  0.86510722  0.25105089  1
  O  O206  1  -0.00016934  0.87461028  0.76845452  1
  O  O207  1  0.48469147  0.36519135  0.25419526  1
  O  O208  1  0.49584579  0.35900043  0.74982395  1
  O  O209  1  0.50730556  0.88232521  0.26363798  1
  O  O210  1  0.50333333  0.86697268  0.75600951  1
  O  O211  1  0.48559678  0.13389693  0.24791985  1
  O  O212  1  0.49273449  0.13401806  0.74335182  1
  O  O213  1  0.48864062  0.61892976  0.24596772  1
  O  O214  1  0.49741049  0.62614369  0.74363623  1
  O  O215  1  1.00851940  0.12675264  0.24015827  1
  O  O216  1  0.99634736  0.13250195  0.74867183  1
  O  O217  1  0.98930004  0.62848198  0.24677771  1
  O  O218  1  0.98605779  0.62286011  0.75248983  1
  O  O219  1  0.35981703  0.25425690  0.00375225  1
  O  O220  1  0.37019530  0.25542582  0.50471545  1
  O  O221  1  0.37057590  0.75119581  0.00662368  1
  O  O222  1  0.37598336  0.75431937  0.50485992  1
  O  O223  1  0.87792055  0.26609326  0.00136083  1
  O  O224  1  0.86801106  0.25697450  0.50521581  1
  O  O225  1  0.87707584  0.74787066  0.01930876  1
  O  O226  1  0.85783049  0.76745903  0.48934367  1
  O  O227  1  0.13715151  0.25633009  0.50268393  1
  O  O228  1  0.13254843  0.24397676  0.99778286  1
  O  O229  1  0.13089100  0.73407518  0.48785165  1
  O  O230  1  0.13297678  0.74145501  0.99623265  1
  O  O231  1  0.63237148  0.23953683  0.50540971  1
  O  O232  1  0.61826035  0.23775665  1.00768130  1
  O  O233  1  0.63111932  0.74257480  0.49226317  1
  O  O234  1  0.61803881  0.73466392  0.98903708  1
  O  O235  1  0.48484949  0.24871024  0.13201461  1
  O  O236  1  0.48931821  0.24479268  0.63117564  1
  O  O237  1  0.48902102  0.73306432  0.12465427  1
  O  O238  1  0.49710690  0.74138153  0.62926431  1
  O  O239  1  0.98749473  0.23726239  0.11926534  1
  O  O240  1  0.99909597  0.24211238  0.63507652  1
  O  O241  1  0.99352410  0.74305003  0.13662064  1
  O  O242  1  0.98679628  0.73288051  0.57945594  1
  O  O243  1  -0.00555193  0.26544959  0.37895050  1
  O  O244  1  0.00229371  0.26101319  0.86882965  1
  O  O245  1  0.01386816  0.74494083  0.37279490  1
  O  O246  1  0.01220216  0.75911547  0.87810656  1
  O  O247  1  0.50791544  0.24856351  0.36162564  1
  O  O248  1  0.48766922  0.25046058  0.86003251  1
  O  O249  1  0.50950684  0.76027354  0.38154908  1
  O  O250  1  0.51105711  0.74979510  0.86974936  1
  O  O251  1  0.25923515  0.13834767  0.48068498  1
  O  O252  1  0.23764229  0.12942333  0.99667777  1
  O  O253  1  0.24423319  0.61967669  0.49058313  1
  O  O254  1  0.24429221  0.63309294  0.99505522  1
  O  O255  1  0.73804437  0.13427759  0.51190630  1
  O  O256  1  0.72977230  0.12952191  0.99676533  1
  O  O257  1  0.74578129  0.63536459  0.49707881  1
  O  O258  1  0.74525463  0.62350800  0.98769648  1
  O  O259  1  0.25164253  0.36619712  0.00307531  1
  O  O260  1  0.25652085  0.36889895  0.50301327  1
  O  O261  1  0.25899221  0.85996667  -0.00356946  1
  O  O262  1  0.26480313  0.86714074  0.50747976  1
  O  O263  1  0.76674569  0.38090933  0.00010861  1
  O  O264  1  0.75586424  0.36989130  0.51035486  1
  O  O265  1  0.71485768  0.86888403  0.00040746  1
  O  O266  1  0.73475980  0.86060770  0.50692620  1
  O  O267  1  0.13215157  0.49946767  0.24375750  1
  O  O268  1  0.13459136  0.49346460  0.75510671  1
  O  O269  1  0.12989599  0.98565332  0.24724966  1
  O  O270  1  0.13755642  0.99996809  0.74472393  1
  O  O271  1  0.64024425  0.50331532  0.24163474  1
  O  O272  1  0.62846888  0.50016184  0.73466195  1
  O  O273  1  0.63382874  1.00276400  0.24652025  1
  O  O274  1  0.61850436  0.99134300  0.74101186  1
  O  O275  1  0.38084990  0.00869053  0.25834227  1
  O  O276  1  0.37052383  0.00146070  0.76435824  1
  O  O277  1  0.36686402  0.50681857  0.24990026  1
  O  O278  1  0.36857169  0.50240441  0.75545508  1
  O  O279  1  0.85541731  0.00936969  0.26554023  1
  O  O280  1  0.87083000  0.00766982  0.75093476  1
  O  O281  1  0.86743892  0.50614467  0.25450160  1
  O  O282  1  0.87410180  0.50968612  0.76110160  1
  O  O283  1  0.11797524  0.37861541  0.36261128  1
  O  O284  1  0.11729620  0.37680609  0.86687886  1
  O  O285  1  0.13717351  0.85437653  0.38036662  1
  O  O286  1  0.13039022  0.85978609  0.87357363  1
  O  O287  1  0.63514340  0.34386422  0.37049539  1
  O  O288  1  0.61754244  0.39336020  0.87051039  1
  O  O289  1  0.61607942  0.87104732  0.37093750  1
  O  O290  1  0.61806905  0.86676073  0.86091589  1
  O  O291  1  0.37089982  0.13002568  0.13236382  1
  O  O292  1  0.37387193  0.13556432  0.62243097  1
  O  O293  1  0.38329437  0.62578202  0.13180207  1
  O  O294  1  0.38207122  0.62696672  0.62952335  1
  O  O295  1  0.88388637  0.14062665  0.12442006  1
  O  O296  1  0.88599786  0.12606724  0.63605291  1
  O  O297  1  0.88175834  0.63241758  0.13437942  1
  O  O298  1  0.86890317  0.62071376  0.64155364  1
  O  O299  1  0.24985047  0.25293341  0.11726862  1
  O  O300  1  0.25476130  0.25335331  0.61827116  1
  O  O301  1  0.26545919  0.73842970  0.11518956  1
  O  O302  1  0.26034078  0.75461960  0.62536469  1
  O  O303  1  0.76856693  0.25042765  0.11148147  1
  O  O304  1  0.75133845  0.25885996  0.61787511  1
  O  O305  1  0.76475454  0.74602622  0.13028891  1
  O  O306  1  0.75367472  0.74969706  0.61147558  1
  O  O307  1  0.24830629  0.23823287  0.37994891  1
  O  O308  1  0.24735703  0.23947137  0.88169114  1
  O  O309  1  0.24385243  0.73560474  0.37482744  1
  O  O310  1  0.24267749  0.74210056  0.88257415  1
  O  O311  1  0.75255229  0.25432924  0.39374833  1
  O  O312  1  0.74730209  0.24933589  0.87965015  1
  O  O313  1  0.73992988  0.74844352  0.38522387  1
  O  O314  1  0.73686148  0.74374015  0.86957365  1
  O  O315  1  0.00959625  0.12244653  -0.00462195  1
  O  O316  1  0.00061874  0.13139561  0.51771422  1
  O  O317  1  0.00826852  0.62796370  0.01028548  1
  O  O318  1  0.02014197  0.60805509  0.48725846  1
  O  O319  1  0.50392999  0.11841600  0.00228104  1
  O  O320  1  0.50321003  0.12161655  0.50666707  1
  O  O321  1  0.51067855  0.61970773  0.01086718  1
  O  O322  1  0.50684476  0.61535471  0.50523283  1
  O  O323  1  0.49379587  0.37555429  0.49721510  1
  O  O324  1  0.47983510  0.36900229  0.99923485  1
  O  O325  1  0.48971611  0.87916625  0.49312317  1
  O  O326  1  0.50402613  0.88279888  0.99393993  1
  O  O327  1  0.99775300  0.38035301  0.49417638  1
  O  O328  1  0.99875233  0.37926410  0.98963051  1
  O  O329  1  0.99845751  0.88467097  0.49820139  1
  O  O330  1  1.00862536  0.87610943  0.98078804  1
  O  O331  1  0.50340581  0.48994580  0.38171974  1
  O  O332  1  0.48343326  0.49997005  0.87036844  1
  O  O333  1  0.48882211  0.99299928  0.38195784  1
  O  O334  1  0.49248065  0.99481557  0.88606948  1
  O  O335  1  0.99359130  0.49040122  0.38112781  1
  O  O336  1  0.99190241  0.49565220  0.87835897  1
  O  O337  1  0.97831657  1.00289613  0.37153447  1
  O  O338  1  0.99293377  0.98685415  0.87857403  1
  O  O339  1  -0.01427188  0.01907204  0.12594051  1
  O  O340  1  0.00238225  0.01349525  0.63009571  1
  O  O341  1  0.00491437  0.51524079  0.12642924  1
  O  O342  1  -0.00198104  0.49367216  0.61146478  1
  O  O343  1  0.50074186  0.00315747  0.11444501  1
  O  O344  1  0.50318296  0.00509939  0.62067872  1
  O  O345  1  0.51810508  0.50908179  0.13437497  1
  O  O346  1  0.50712185  0.49963790  0.61872660  1
  O  O347  1  0.24298458  0.38148080  0.24405335  1
  O  O348  1  0.24206672  0.37996251  0.74734741  1
  O  O349  1  0.25641758  0.87695267  0.24001599  1
  O  O350  1  0.25684960  0.87873023  0.74333001  1
  O  O351  1  0.75727382  0.38846954  0.25003364  1
  O  O352  1  0.75387623  0.37724704  0.73832728  1
  O  O353  1  0.73996080  0.87370571  0.25847424  1
  O  O354  1  0.73774908  0.87571023  0.74265071  1
  O  O355  1  0.26017753  0.13048423  0.26100124  1
  O  O356  1  0.24938475  0.11693327  0.76090465  1
  O  O357  1  0.25891029  0.62033834  0.25495153  1
  O  O358  1  0.25622035  0.61636366  0.75393717  1
  O  O359  1  0.71423282  0.16905390  0.27652876  1
  O  O360  1  0.76034971  0.12660267  0.74421535  1
  O  O361  1  0.76349953  0.61967525  0.25522396  1
  O  O362  1  0.75594579  0.62167798  0.76440213  1
  O  O363  1  0.37168494  0.11644966  0.36682619  1
  O  O364  1  0.35912902  0.11647210  0.88045483  1
  O  O365  1  0.37025451  0.62205383  0.36758256  1
  O  O366  1  0.36989993  0.61876375  0.87177287  1
  O  O367  1  0.87020584  0.11683507  0.38404888  1
  O  O368  1  0.87658431  0.12512313  0.86087397  1
  O  O369  1  0.87702571  0.61196371  0.37112505  1
  O  O370  1  0.87199874  0.62281843  0.87251608  1
  O  O371  1  0.12652489  0.38198285  0.12945300  1
  O  O372  1  0.13006920  0.37198632  0.63900744  1
  O  O373  1  0.13242743  0.86255009  0.13015820  1
  O  O374  1  0.14046170  0.87016074  0.62070035  1
  O  O375  1  0.62214482  0.38975721  0.11975751  1
  O  O376  1  0.63349605  0.38063099  0.62772315  1
  O  O377  1  0.61575963  0.89379506  0.14271487  1
  O  O378  1  0.61612729  0.88085411  0.63411024  1
  O  O379  1  0.13046704  0.26117946  0.24221991  1
  O  O380  1  0.11560342  0.25865470  0.75438796  1
  O  O381  1  0.11434371  0.74160349  0.26520119  1
  O  O382  1  0.12789926  0.74106868  0.76515863  1
  O  O383  1  0.60513676  0.25639522  0.23897677  1
  O  O384  1  0.60583021  0.24917821  0.74257085  1
  O  O385  1  0.62790329  0.75891202  0.26238278  1
  O  O386  1  0.62048703  0.75390675  0.75258693  1
  O  O387  1  0.37546891  0.24313469  0.24465837  1
  O  O388  1  0.37874158  0.24686056  0.73955081  1
  O  O389  1  0.37200023  0.73883137  0.24188202  1
  O  O390  1  0.38228120  0.73977368  0.74755245  1
  O  O391  1  0.87374755  0.25993163  0.23378811  1
  O  O392  1  0.88874801  0.24692943  0.74855517  1
  O  O393  1  0.88063319  0.74368487  0.25102790  1
  O  O394  1  0.87251200  0.73630634  0.74601181  1
  O  O395  1  0.38419954  0.48859579  0.49860668  1
  O  O396  1  0.36299756  0.48974498  0.99044350  1
  O  O397  1  0.37536206  0.99001918  0.49285719  1
  O  O398  1  0.38039900  0.99180296  0.99763385  1
  O  O399  1  0.88297056  0.49625667  0.49307702  1
  O  O400  1  0.87926911  0.49368195  0.99706173  1
  O  O401  1  0.87440576  0.99169830  0.49829090  1
  O  O402  1  0.86699216  0.99594083  1.00110484  1
  O  O403  1  0.12032288  0.01129090  -0.00053977  1
  O  O404  1  0.16928788  0.00942065  0.51937914  1
  O  O405  1  0.12609296  0.51413378  0.00625144  1
  O  O406  1  0.12245878  0.50663876  0.49837020  1
  O  O407  1  0.61554826  0.01153148  0.00818458  1
  O  O408  1  0.61434389  0.00572552  0.50681070  1
  O  O409  1  0.63486421  0.51202184  0.01862220  1
  O  O410  1  0.62254069  0.49974580  0.50613270  1
  O  O411  1  0.36398582  0.37176144  0.11737051  1
  O  O412  1  0.36832783  0.36358872  0.61435427  1
  O  O413  1  0.38637846  0.86084326  0.11835521  1
  O  O414  1  0.37492341  0.86525234  0.61743665  1
  O  O415  1  0.88909333  0.36809751  0.11206582  1
  O  O416  1  0.86840279  0.37497373  0.61919523  1
  O  O417  1  0.87484205  0.86372715  0.12977330  1
  O  O418  1  0.87632556  0.87554627  0.61018715  1
  O  O419  1  0.13814273  0.11676939  0.36738935  1
  O  O420  1  0.13126701  0.12321591  0.88495262  1
  O  O421  1  0.13616941  0.62674767  0.37938209  1
  O  O422  1  0.12797576  0.63203114  0.88447368  1
  O  O423  1  0.61482508  0.13036095  0.38876835  1
  O  O424  1  0.61537349  0.12326931  0.88901326  1
  O  O425  1  0.62470250  0.63271315  0.37916681  1
  O  O426  1  0.63172995  0.62739359  0.88208104  1
