# generated using pymatgen
data_V85Zn86O256
_symmetry_space_group_name_H-M   'P 1'
_cell_length_a   16.92892994
_cell_length_b   16.92541891
_cell_length_c   16.92272185
_cell_angle_alpha   90.01839945
_cell_angle_beta   90.02918924
_cell_angle_gamma   89.99865438
_symmetry_Int_Tables_number   1
_chemical_formula_structural   V85Zn86O256
_chemical_formula_sum   'V85 Zn86 O256'
_cell_volume   4848.85359527
_cell_formula_units_Z   1
loop_
 _symmetry_equiv_pos_site_id
 _symmetry_equiv_pos_as_xyz
  1  'x, y, z'
loop_
 _atom_site_type_symbol
 _atom_site_label
 _atom_site_symmetry_multiplicity
 _atom_site_fract_x
 _atom_site_fract_y
 _atom_site_fract_z
 _atom_site_occupancy
  V  V0  1  0.86837151  0.61791165  0.74852424  1
  V  V1  1  0.00378494  -0.00067760  0.49923912  1
  V  V2  1  0.49844133  0.61127916  0.62759223  1
  V  V3  1  0.47933238  0.87270195  0.37940517  1
  V  V4  1  0.12523033  0.62547034  0.49872803  1
  V  V5  1  0.74538080  0.62425107  0.36275878  1
  V  V6  1  0.64404215  0.49663929  0.62638039  1
  V  V7  1  0.64150816  0.37881626  0.75224000  1
  V  V8  1  0.37736500  0.37543302  0.00852090  1
  V  V9  1  0.00165301  0.75026617  0.75024511  1
  V  V10  1  0.36402784  0.50079912  0.87428765  1
  V  V11  1  0.73933482  0.25022884  0.00370462  1
  V  V12  1  0.00041372  0.24344636  0.24761953  1
  V  V13  1  0.62032286  0.61975197  0.49853411  1
  V  V14  1  0.50203300  0.12209393  0.62591121  1
  V  V15  1  0.62504501  0.86887226  0.75586030  1
  V  V16  1  0.00098984  0.37465532  0.37179242  1
  V  V17  1  -0.00274550  0.51165822  0.00443972  1
  V  V18  1  0.25196775  0.00198845  0.75182537  1
  V  V19  1  0.25319191  0.49248824  0.24652261  1
  V  V20  1  0.87476089  0.00480823  0.87083433  1
  V  V21  1  0.74151955  0.12742425  0.87512936  1
  V  V22  1  0.25541345  0.75424492  0.49883559  1
  V  V23  1  0.25023597  0.25572858  0.00394432  1
  V  V24  1  -0.00028342  0.37797518  0.87654419  1
  V  V25  1  0.51589715  0.12234968  0.13376109  1
  V  V26  1  0.36977138  0.02175180  0.37844238  1
  V  V27  1  -0.00514962  0.25204780  0.74547009  1
  V  V28  1  0.86746714  0.49625543  0.37125426  1
  V  V29  1  0.12568019  0.49686066  0.12486797  1
  V  V30  1  0.12003736  0.12879004  0.00618985  1
  V  V31  1  0.12425660  0.25017567  0.87614283  1
  V  V32  1  0.37169953  0.23894619  0.13254036  1
  V  V33  1  0.00056237  0.74669713  0.24103589  1
  V  V34  1  0.49560908  -0.00306483  0.50216760  1
  V  V35  1  0.50440416  0.37582342  0.38498270  1
  V  V36  1  0.37807739  0.50241212  0.38466093  1
  V  V37  1  0.87480576  0.62132857  0.24342079  1
  V  V38  1  0.62070836  0.62452699  -0.01134166  1
  V  V39  1  0.69329897  0.17751749  0.46373585  1
  V  V40  1  0.12500052  0.74853777  0.37326709  1
  V  V41  1  0.87701726  0.24478978  0.12744029  1
  V  V42  1  -0.00226221  0.00534348  0.00575432  1
  V  V43  1  0.87667064  0.74493331  0.11910155  1
  V  V44  1  0.25643941  0.01244070  0.24900329  1
  V  V45  1  0.13953276  0.62924321  0.00195489  1
  V  V46  1  0.12934127  0.00125869  0.62448945  1
  V  V47  1  -0.00288092  0.12856209  0.62331248  1
  V  V48  1  0.00031963  0.49991721  0.49673596  1
  V  V49  1  0.13390675  0.24524941  0.37470730  1
  V  V50  1  0.00148070  0.87327517  0.37046128  1
  V  V51  1  0.36201810  0.62210788  0.75483790  1
  V  V52  1  0.37402256  0.25171566  0.62219927  1
  V  V53  1  0.13058885  0.37963807  0.75189872  1
  V  V54  1  0.12713880  0.87546194  0.75117373  1
  V  V55  1  0.50259916  0.86514774  0.88178496  1
  V  V56  1  0.62424554  0.36907544  0.25405132  1
  V  V57  1  0.12637717  -0.00300734  0.12529305  1
  V  V58  1  0.86646484  0.36295289  0.50923579  1
  V  V59  1  0.25596464  0.87585443  0.62279190  1
  V  V60  1  0.87324438  0.00774855  0.37123758  1
  V  V61  1  0.75075790  0.38152171  0.13678662  1
  V  V62  1  0.00102507  0.62637498  0.62380958  1
  V  V63  1  0.74859206  0.75177975  0.49670256  1
  V  V64  1  0.13878224  0.74564577  0.87790630  1
  V  V65  1  0.62433723  0.50818332  0.13368820  1
  V  V66  1  0.62412051  0.76407654  0.37522760  1
  V  V67  1  0.37619878  0.62525504  0.24807235  1
  V  V68  1  0.74464526  0.74696780  -0.01071933  1
  V  V69  1  0.37486668  0.12821454  0.75541581  1
  V  V70  1  0.36338002  0.75478221  0.12173099  1
  V  V71  1  0.74681841  0.88122209  0.62363240  1
  V  V72  1  0.50343756  0.25423147  0.75235717  1
  V  V73  1  0.87463047  0.87220245  -0.00349455  1
  V  V74  1  0.00139669  0.87632613  0.87379726  1
  V  V75  1  0.38164256  0.75208674  0.62521680  1
  V  V76  1  0.25056136  0.37893592  0.62521453  1
  V  V77  1  0.12791427  0.50132905  0.62880491  1
  V  V78  1  0.36112622  0.87526071  0.00596559  1
  V  V79  1  0.51639724  0.00486384  0.00567218  1
  V  V80  1  0.87523420  0.87560915  0.49752230  1
  V  V81  1  0.87577777  0.75191635  0.62333635  1
  V  V82  1  0.37706383  0.00170913  0.88245266  1
  V  V83  1  0.13138437  0.87297478  0.24416478  1
  V  V84  1  0.87354828  0.37747403  0.00274561  1
  Zn  Zn85  1  0.12983499  0.37357781  0.24566753  1
  Zn  Zn86  1  0.50123707  0.37674156  0.87682724  1
  Zn  Zn87  1  0.25009812  0.62315936  0.37466483  1
  Zn  Zn88  1  0.50382279  0.74266728  0.75688011  1
  Zn  Zn89  1  0.13405043  0.12188719  0.49380386  1
  Zn  Zn90  1  0.74536456  0.00558193  0.74903549  1
  Zn  Zn91  1  0.37964911  0.38391450  0.50665623  1
  Zn  Zn92  1  0.87224360  0.12681673  0.25165723  1
  Zn  Zn93  1  0.73902883  0.88132881  0.12125235  1
  Zn  Zn94  1  0.49794884  0.75324645  0.24673510  1
  Zn  Zn95  1  0.86864476  0.49754821  0.86976645  1
  Zn  Zn96  1  0.86996192  0.13192796  0.74517953  1
  Zn  Zn97  1  0.49765502  0.24574078  0.25664985  1
  Zn  Zn98  1  0.73527139  0.00973238  0.23856401  1
  Zn  Zn99  1  0.25714422  0.24785068  0.49408095  1
  Zn  Zn100  1  0.24918211  0.12643793  0.87804236  1
  Zn  Zn101  1  0.62445672  0.24982753  0.87625268  1
  Zn  Zn102  1  0.74049872  0.61881286  0.86550436  1
  Zn  Zn103  1  0.62170481  0.88506813  0.24450914  1
  Zn  Zn104  1  0.50027253  0.49922841  0.00013552  1
  Zn  Zn105  1  0.49832060  0.62716384  0.12287568  1
  Zn  Zn106  1  0.62129779  -0.00193155  0.62400514  1
  Zn  Zn107  1  0.18498050  0.18750361  0.18607303  1
  Zn  Zn108  1  0.18604517  0.18871888  0.68508506  1
  Zn  Zn109  1  0.18941252  0.67938276  0.18427771  1
  Zn  Zn110  1  0.18843924  0.69009494  0.68666308  1
  Zn  Zn111  1  0.69038608  0.18925686  0.19473533  1
  Zn  Zn112  1  0.69070048  0.19063329  0.67319741  1
  Zn  Zn113  1  0.67137558  0.71974883  0.17035537  1
  Zn  Zn114  1  0.68567209  0.69163038  0.68358345  1
  Zn  Zn115  1  0.31867531  0.31627740  0.31394157  1
  Zn  Zn116  1  0.31245012  0.31568851  0.81634206  1
  Zn  Zn117  1  0.30688754  0.81043018  0.30593242  1
  Zn  Zn118  1  0.31826232  0.81391480  0.81164758  1
  Zn  Zn119  1  0.80538658  0.30082041  0.32428007  1
  Zn  Zn120  1  0.81351476  0.31185481  0.81610625  1
  Zn  Zn121  1  0.80989078  0.81802696  0.30706520  1
  Zn  Zn122  1  0.81224068  0.81085916  0.80988447  1
  Zn  Zn123  1  0.19076035  0.43430125  0.43673152  1
  Zn  Zn124  1  0.18760049  0.43732724  0.94223722  1
  Zn  Zn125  1  0.19247545  0.93725930  0.43340694  1
  Zn  Zn126  1  0.18624003  0.93939425  0.93651616  1
  Zn  Zn127  1  0.68894049  0.43642798  0.44039560  1
  Zn  Zn128  1  0.68999629  0.44245960  0.93864564  1
  Zn  Zn129  1  0.69351263  0.96312852  0.44178589  1
  Zn  Zn130  1  0.68966336  0.93559606  0.93544645  1
  Zn  Zn131  1  0.30861993  0.06474551  0.06425908  1
  Zn  Zn132  1  0.31672163  0.06785456  0.55915491  1
  Zn  Zn133  1  0.31258374  0.56119041  0.06420279  1
  Zn  Zn134  1  0.30955123  0.56667107  0.56632381  1
  Zn  Zn135  1  0.80844184  0.06706971  0.05989478  1
  Zn  Zn136  1  0.80092623  0.08582563  0.56365187  1
  Zn  Zn137  1  0.80531334  0.56197696  0.06056048  1
  Zn  Zn138  1  0.81365735  0.56353122  0.55503071  1
  Zn  Zn139  1  0.44109043  0.43658319  0.18873987  1
  Zn  Zn140  1  0.43847838  0.43809950  0.69526265  1
  Zn  Zn141  1  0.44042564  0.93904767  0.19062639  1
  Zn  Zn142  1  0.43804455  0.93438265  0.69475459  1
  Zn  Zn143  1  0.93996219  0.43773864  0.18756966  1
  Zn  Zn144  1  0.94123229  0.43729374  0.68421390  1
  Zn  Zn145  1  0.90472610  0.95239025  0.16987153  1
  Zn  Zn146  1  0.93654377  0.94027435  0.68598773  1
  Zn  Zn147  1  0.06022232  0.06260416  0.30897091  1
  Zn  Zn148  1  0.06220805  0.06622935  0.81342645  1
  Zn  Zn149  1  0.06141499  0.56257060  0.30941232  1
  Zn  Zn150  1  0.06156112  0.56323625  0.81597344  1
  Zn  Zn151  1  0.57132774  0.06402999  0.31902207  1
  Zn  Zn152  1  0.56275376  0.05767592  0.81140310  1
  Zn  Zn153  1  0.56002903  0.55970983  0.31128013  1
  Zn  Zn154  1  0.55467468  0.55464967  0.81200043  1
  Zn  Zn155  1  0.52218505  0.19042768  0.44259247  1
  Zn  Zn156  1  0.44169715  0.18699286  0.94211756  1
  Zn  Zn157  1  0.43887651  0.68528801  0.43950363  1
  Zn  Zn158  1  0.42988902  0.68395548  0.94252085  1
  Zn  Zn159  1  0.94387808  0.18819744  0.43852599  1
  Zn  Zn160  1  0.93381657  0.18967917  0.93717259  1
  Zn  Zn161  1  0.93592220  0.68661546  0.43229731  1
  Zn  Zn162  1  0.94089904  0.68721789  0.93132166  1
  Zn  Zn163  1  0.06069745  0.31784596  0.06440401  1
  Zn  Zn164  1  0.06083065  0.31364100  0.55882503  1
  Zn  Zn165  1  0.06066191  0.81137886  0.06178617  1
  Zn  Zn166  1  0.06622930  0.81445564  0.56190334  1
  Zn  Zn167  1  0.55961106  0.31409798  0.06963374  1
  Zn  Zn168  1  0.56556766  0.31763453  0.56819391  1
  Zn  Zn169  1  0.55380678  0.80837703  0.06084810  1
  Zn  Zn170  1  0.55987530  0.81254235  0.55966236  1
  O  O171  1  0.12419898  0.11487127  0.11437761  1
  O  O172  1  0.11493558  0.11455505  0.62845729  1
  O  O173  1  0.12508746  0.61764622  0.10980373  1
  O  O174  1  0.12078640  0.62188305  0.61915477  1
  O  O175  1  0.61330408  0.13365336  0.12270273  1
  O  O176  1  0.60442579  0.11631360  0.63884138  1
  O  O177  1  0.62528995  0.62075755  0.11980155  1
  O  O178  1  0.62028099  0.61471180  0.62226053  1
  O  O179  1  0.38379449  0.38624941  0.37953469  1
  O  O180  1  0.37499896  0.38283623  0.88650848  1
  O  O181  1  0.37939306  0.87253119  0.37385184  1
  O  O182  1  0.38232073  0.88341449  0.88320434  1
  O  O183  1  0.88043000  0.38134774  0.37887354  1
  O  O184  1  0.88143165  0.37577826  0.88563785  1
  O  O185  1  0.88702959  0.87593785  0.37846606  1
  O  O186  1  0.87996656  0.88229779  0.87750614  1
  O  O187  1  0.26079274  -0.00028079  0.36507226  1
  O  O188  1  0.25853169  0.00294543  0.87002512  1
  O  O189  1  0.25887224  0.50145437  0.36781048  1
  O  O190  1  0.26409447  0.49525571  0.87992904  1
  O  O191  1  0.77487373  -0.01570876  0.35920704  1
  O  O192  1  0.75823267  0.00834730  0.87484891  1
  O  O193  1  0.75828662  0.50998217  0.37840293  1
  O  O194  1  0.75693101  0.50642750  0.87679373  1
  O  O195  1  0.24094941  0.50562044  0.13461731  1
  O  O196  1  0.24398932  0.48839217  0.62240121  1
  O  O197  1  0.24128009  1.00180734  0.13748882  1
  O  O198  1  0.25022565  0.99425181  0.63099947  1
  O  O199  1  0.74327294  0.48751378  0.12483621  1
  O  O200  1  0.74200227  0.50662446  0.62694786  1
  O  O201  1  0.79247564  0.98700437  0.13509869  1
  O  O202  1  0.75071530  0.98951009  0.62611191  1
  O  O203  1  0.00195280  0.37060155  0.26145221  1
  O  O204  1  0.00900877  0.37055605  0.75442343  1
  O  O205  1  0.01107022  0.86151051  0.25451920  1
  O  O206  1  0.00687314  0.87097551  0.75288506  1
  O  O207  1  0.50762483  0.37423135  0.25979615  1
  O  O208  1  0.50927068  0.36641338  0.75246157  1
  O  O209  1  0.50042044  0.87380092  0.26695255  1
  O  O210  1  0.50597754  0.87177195  0.76432990  1
  O  O211  1  0.50319761  0.12678738  0.23740322  1
  O  O212  1  0.49171463  0.13067948  0.74984267  1
  O  O213  1  0.48527780  0.62510896  0.24971583  1
  O  O214  1  0.49170458  0.62516392  0.74271435  1
  O  O215  1  0.99701735  0.14018472  0.25057183  1
  O  O216  1  0.99951361  0.13508380  0.74344545  1
  O  O217  1  0.98944381  0.63778988  0.25738833  1
  O  O218  1  0.99463087  0.63199713  0.74218257  1
  O  O219  1  0.36795560  0.25435890  0.00675554  1
  O  O220  1  0.37895401  0.25624762  0.52016093  1
  O  O221  1  0.37360076  0.75872856  0.01248916  1
  O  O222  1  0.36573069  0.74146842  0.51101123  1
  O  O223  1  0.87214363  0.26331408  0.00771813  1
  O  O224  1  0.88598147  0.26453282  0.49847114  1
  O  O225  1  0.87314239  0.74967475  0.00192097  1
  O  O226  1  0.87030383  0.75522327  0.50342400  1
  O  O227  1  0.12327334  0.25198703  0.48216561  1
  O  O228  1  0.12891709  0.24592467  1.00014864  1
  O  O229  1  0.13083453  0.74448317  0.49467053  1
  O  O230  1  0.12024642  0.73719147  0.99424713  1
  O  O231  1  0.61178222  0.24014293  0.50174234  1
  O  O232  1  0.63689762  0.25955693  0.99987643  1
  O  O233  1  0.62898034  0.74202747  0.49247378  1
  O  O234  1  0.63335834  0.73791485  1.00115349  1
  O  O235  1  0.48976828  0.23605063  0.12315908  1
  O  O236  1  0.49378454  0.24411779  0.63693525  1
  O  O237  1  0.48319264  0.74542391  0.12898855  1
  O  O238  1  0.49279579  0.74032212  0.62498334  1
  O  O239  1  0.99058293  0.26333170  0.13683180  1
  O  O240  1  1.00967638  0.24056321  0.63261302  1
  O  O241  1  0.99234951  0.74527511  0.13073425  1
  O  O242  1  0.99709746  0.74627603  0.62931674  1
  O  O243  1  0.00801569  0.25794005  0.36686951  1
  O  O244  1  0.00579088  0.25791035  0.86994041  1
  O  O245  1  0.00598291  0.75498704  0.36751646  1
  O  O246  1  0.00782558  0.75769573  0.86641565  1
  O  O247  1  0.48685234  0.27170242  0.37171687  1
  O  O248  1  0.50441826  0.24945740  0.86473475  1
  O  O249  1  0.50361722  0.76186254  0.37901701  1
  O  O250  1  0.49191978  0.76260734  0.88012359  1
  O  O251  1  0.24394214  0.13712251  0.51290104  1
  O  O252  1  0.23997842  0.13630949  0.99969522  1
  O  O253  1  0.24137084  0.63642786  0.50058756  1
  O  O254  1  0.23787387  0.62399209  0.99862831  1
  O  O255  1  0.73243152  0.07681375  0.47307766  1
  O  O256  1  0.75492330  0.13840029  0.99114831  1
  O  O257  1  0.74085635  0.63261191  0.49202983  1
  O  O258  1  0.74013119  0.63114508  0.99620572  1
  O  O259  1  0.25522103  0.36187637  0.00047217  1
  O  O260  1  0.25493201  0.36901559  0.51051212  1
  O  O261  1  0.26179503  0.88088269  -0.00148135  1
  O  O262  1  0.24504987  0.86187960  0.50571340  1
  O  O263  1  0.75795462  0.37052190  0.00923418  1
  O  O264  1  0.76667421  0.37611377  0.49675249  1
  O  O265  1  0.75669398  0.86631207  0.00060683  1
  O  O266  1  0.75480419  0.87438618  0.50517868  1
  O  O267  1  0.13259132  0.50278279  0.24135648  1
  O  O268  1  0.11685246  0.49185759  0.74212160  1
  O  O269  1  0.12943071  0.99414417  0.24348284  1
  O  O270  1  0.13086084  0.99555324  0.74631956  1
  O  O271  1  0.62336276  0.49336383  0.23916284  1
  O  O272  1  0.62371694  0.48836326  0.74027372  1
  O  O273  1  0.62228012  0.99913463  0.24685827  1
  O  O274  1  0.62553721  0.98478452  0.74641249  1
  O  O275  1  0.36222793  -0.00313426  0.25837816  1
  O  O276  1  0.37345752  0.00524776  0.76509810  1
  O  O277  1  0.36907364  0.50593295  0.25399424  1
  O  O278  1  0.37490820  0.50530644  0.76508130  1
  O  O279  1  0.90522331  0.00503231  0.26978787  1
  O  O280  1  0.87498318  0.00121728  0.76222568  1
  O  O281  1  0.88147877  0.50816718  0.26105505  1
  O  O282  1  0.88228400  0.51537724  0.74550391  1
  O  O283  1  0.11698245  0.36811591  0.37125650  1
  O  O284  1  0.11984128  0.37256110  0.86978872  1
  O  O285  1  0.11984476  0.86884598  0.36647546  1
  O  O286  1  0.12011714  0.86950039  0.87039242  1
  O  O287  1  0.61235382  0.38615084  0.37009607  1
  O  O288  1  0.62580516  0.37437172  0.86198520  1
  O  O289  1  0.62263976  0.86827589  0.38119742  1
  O  O290  1  0.61561208  0.87733924  0.86942714  1
  O  O291  1  0.38114492  0.13646815  0.12083281  1
  O  O292  1  0.38019885  0.13401641  0.63802961  1
  O  O293  1  0.37321920  0.63430809  0.13065591  1
  O  O294  1  0.38194989  0.62970788  0.63242913  1
  O  O295  1  0.87853970  0.14333997  0.11970406  1
  O  O296  1  0.89280832  0.11308930  0.62750104  1
  O  O297  1  0.87055879  0.62444559  0.13760416  1
  O  O298  1  0.88011981  0.63100748  0.62975506  1
  O  O299  1  0.26195444  0.24459698  0.11985714  1
  O  O300  1  0.25748998  0.26362125  0.63225037  1
  O  O301  1  0.26330142  0.74987979  0.13089999  1
  O  O302  1  0.25774311  0.75572932  0.61809778  1
  O  O303  1  0.75729659  0.26116200  0.11978056  1
  O  O304  1  0.73915708  0.18758027  0.56920079  1
  O  O305  1  0.76780405  0.74460399  0.10935695  1
  O  O306  1  0.75485027  0.76176871  0.61677376  1
  O  O307  1  0.23723303  0.25786484  0.37243179  1
  O  O308  1  0.24184219  0.24943808  0.88419735  1
  O  O309  1  0.24375012  0.74794417  0.38223356  1
  O  O310  1  0.23771910  0.75535133  0.87004362  1
  O  O311  1  0.74843505  0.23204404  0.39938116  1
  O  O312  1  0.74918699  0.24423091  0.88498909  1
  O  O313  1  0.74232587  0.74550687  0.37955486  1
  O  O314  1  0.75650525  0.74360749  0.88554047  1
  O  O315  1  0.00743042  0.11789941  -0.00647286  1
  O  O316  1  0.00852914  0.11603683  0.50621842  1
  O  O317  1  0.00207326  0.61363774  -0.00355982  1
  O  O318  1  0.00512901  0.62122900  0.50319080  1
  O  O319  1  0.50007674  0.11042166  0.00755677  1
  O  O320  1  0.48449620  0.11214783  0.51614910  1
  O  O321  1  0.50780917  0.62341088  0.00239459  1
  O  O322  1  0.51407909  0.62768014  0.50826659  1
  O  O323  1  0.50037889  0.37830074  0.48934490  1
  O  O324  1  0.49134655  0.37364890  0.99742497  1
  O  O325  1  0.49357067  0.87799635  0.48774606  1
  O  O326  1  0.49211427  0.88745547  0.99810393  1
  O  O327  1  0.99611069  0.38230401  0.48785066  1
  O  O328  1  0.99280489  0.38385023  0.99530628  1
  O  O329  1  0.99755976  0.88050528  0.49369158  1
  O  O330  1  0.99616650  0.88262032  0.99069129  1
  O  O331  1  0.48880453  0.49016573  0.37120736  1
  O  O332  1  0.48588526  0.49456840  0.88077318  1
  O  O333  1  0.48457762  0.99108248  0.38085894  1
  O  O334  1  0.49504023  0.99572211  0.88919934  1
  O  O335  1  0.99440302  0.49321046  0.37769552  1
  O  O336  1  0.99439946  0.49340432  0.88392166  1
  O  O337  1  1.00452640  0.99306308  0.38649831  1
  O  O338  1  0.99479535  0.99652703  0.88108453  1
  O  O339  1  0.00163524  -0.00288731  0.10994836  1
  O  O340  1  0.00761590  0.00079955  0.61416324  1
  O  O341  1  0.00889839  0.49792456  0.11603697  1
  O  O342  1  0.00794853  0.50739689  0.61587532  1
  O  O343  1  0.49447766  0.01150532  0.11583259  1
  O  O344  1  0.48926922  0.00446600  0.61951038  1
  O  O345  1  0.50952045  0.50391720  0.12237013  1
  O  O346  1  0.50394785  0.50904239  0.62751021  1
  O  O347  1  0.25025444  0.38861982  0.25252333  1
  O  O348  1  0.23618644  0.37249408  0.74643273  1
  O  O349  1  0.23493947  0.88391039  0.25289519  1
  O  O350  1  0.24673956  0.88194994  0.74498773  1
  O  O351  1  0.74273614  0.36728664  0.24734385  1
  O  O352  1  0.74025347  0.36928874  0.74824621  1
  O  O353  1  0.74349939  0.87608830  0.24029002  1
  O  O354  1  0.74362290  0.87535761  0.74206964  1
  O  O355  1  0.24456134  0.11074511  0.25000040  1
  O  O356  1  0.25678943  0.12022645  0.75274390  1
  O  O357  1  0.26037788  0.61600781  0.25328703  1
  O  O358  1  0.26266185  0.62533404  0.74351380  1
  O  O359  1  0.75997076  0.12198816  0.24599860  1
  O  O360  1  0.75253849  0.12767325  0.75531333  1
  O  O361  1  0.75760558  0.63364172  0.26105147  1
  O  O362  1  0.76538264  0.63448598  0.74620767  1
  O  O363  1  0.37897308  0.11673097  0.37502676  1
  O  O364  1  0.37419646  0.11822282  0.87381496  1
  O  O365  1  0.37464510  0.61909080  0.36803063  1
  O  O366  1  0.37497498  0.61245962  0.86994875  1
  O  O367  1  0.88211189  0.11050897  0.37942821  1
  O  O368  1  0.86672420  0.11934615  0.87163573  1
  O  O369  1  0.86636727  0.61867979  0.36679287  1
  O  O370  1  0.87933858  0.62570192  0.85477036  1
  O  O371  1  0.12555649  0.39076266  0.12540392  1
  O  O372  1  0.13069429  0.37938295  0.63140278  1
  O  O373  1  0.11886561  0.88757774  0.12901033  1
  O  O374  1  0.13354194  0.88136471  0.63201775  1
  O  O375  1  0.63133765  0.38282931  0.13452781  1
  O  O376  1  0.62640711  0.38920267  0.63373577  1
  O  O377  1  0.63229668  0.83503342  0.13689054  1
  O  O378  1  0.63199618  0.87433708  0.63025339  1
  O  O379  1  0.11939851  0.25342740  0.25582532  1
  O  O380  1  0.11659582  0.25772959  0.75655804  1
  O  O381  1  0.12088235  0.75292601  0.24953942  1
  O  O382  1  0.12012062  0.75441931  0.75592247  1
  O  O383  1  0.61881353  0.26504762  0.24640282  1
  O  O384  1  0.62150504  0.26262392  0.74350732  1
  O  O385  1  0.61592415  0.74095278  0.27024133  1
  O  O386  1  0.62132479  0.76218065  0.74675712  1
  O  O387  1  0.37601653  0.25486044  0.23478258  1
  O  O388  1  0.38310450  0.24843872  0.74782962  1
  O  O389  1  0.37382246  0.74283502  0.24218877  1
  O  O390  1  0.37868578  0.74074640  0.74384843  1
  O  O391  1  0.88220778  0.25248259  0.24574611  1
  O  O392  1  0.89061141  0.25323890  0.75228928  1
  O  O393  1  0.88205634  0.74391282  0.24016572  1
  O  O394  1  0.88321020  0.74471687  0.74149288  1
  O  O395  1  0.36993657  0.50510684  0.48859254  1
  O  O396  1  0.37429760  0.49185294  0.99560855  1
  O  O397  1  0.37606335  0.99991841  0.48518042  1
  O  O398  1  0.37560486  0.99675028  0.99354913  1
  O  O399  1  0.88278144  0.49849884  0.48722150  1
  O  O400  1  0.88123332  0.49092144  1.00491084  1
  O  O401  1  0.88677013  0.99294410  0.48744460  1
  O  O402  1  0.88226797  0.99681193  0.98779363  1
  O  O403  1  0.11910724  0.00717214  0.00567490  1
  O  O404  1  0.12100541  -0.00198219  0.50535270  1
  O  O405  1  0.11913896  0.50953489  0.00427877  1
  O  O406  1  0.12096807  0.50568098  0.50458734  1
  O  O407  1  0.61476383  -0.00578255  0.00412408  1
  O  O408  1  0.60026768  -0.01021303  0.50517497  1
  O  O409  1  0.62485605  0.50852187  0.01245409  1
  O  O410  1  0.63035893  0.50622611  0.51590330  1
  O  O411  1  0.38140028  0.36320582  0.11433776  1
  O  O412  1  0.36767370  0.37232529  0.63016029  1
  O  O413  1  0.37774203  0.86501256  0.12043736  1
  O  O414  1  0.37147855  0.86037757  0.63299730  1
  O  O415  1  0.86765032  0.37214700  0.12189655  1
  O  O416  1  0.88202995  0.38024318  0.60782971  1
  O  O417  1  0.88466645  0.85725759  0.11016224  1
  O  O418  1  0.86904153  0.87099147  0.61858886  1
  O  O419  1  0.12002474  0.14165200  0.37298066  1
  O  O420  1  0.12576700  0.13185616  0.88702455  1
  O  O421  1  0.12574525  0.63084037  0.38103332  1
  O  O422  1  0.11996865  0.63294380  0.88818455  1
  O  O423  1  0.61328606  0.13519527  0.39626492  1
  O  O424  1  0.63746347  0.12595257  0.87033222  1
  O  O425  1  0.62934166  0.62441065  0.38307262  1
  O  O426  1  0.62106452  0.61874299  0.88421196  1
