# generated using pymatgen
data_V85Zn86O256
_symmetry_space_group_name_H-M   'P 1'
_cell_length_a   16.95201397
_cell_length_b   16.94871754
_cell_length_c   16.94929937
_cell_angle_alpha   90.01969851
_cell_angle_beta   89.99392108
_cell_angle_gamma   89.95043873
_symmetry_Int_Tables_number   1
_chemical_formula_structural   V85Zn86O256
_chemical_formula_sum   'V85 Zn86 O256'
_cell_volume   4869.78405755
_cell_formula_units_Z   1
loop_
 _symmetry_equiv_pos_site_id
 _symmetry_equiv_pos_as_xyz
  1  'x, y, z'
loop_
 _atom_site_type_symbol
 _atom_site_label
 _atom_site_symmetry_multiplicity
 _atom_site_fract_x
 _atom_site_fract_y
 _atom_site_fract_z
 _atom_site_occupancy
  V  V0  1  0.85749306  -0.00207923  0.87399960  1
  V  V1  1  0.38769327  0.74126253  0.11061013  1
  V  V2  1  0.12755699  0.00122238  0.61384729  1
  V  V3  1  0.24926015  0.49638884  0.25249811  1
  V  V4  1  0.62510367  0.74657259  0.38470040  1
  V  V5  1  0.12252161  0.86655161  0.25356262  1
  V  V6  1  0.11305783  0.24908030  0.37803952  1
  V  V7  1  0.25199752  0.24843544  0.50176096  1
  V  V8  1  -0.00966943  0.00107392  0.49239646  1
  V  V9  1  0.50258635  0.74767201  0.73487757  1
  V  V10  1  0.50150587  0.74984973  0.25091145  1
  V  V11  1  0.87683912  0.62548338  0.25009102  1
  V  V12  1  0.74475376  0.24810915  0.50078498  1
  V  V13  1  0.87735778  0.25157420  0.12948987  1
  V  V14  1  0.37675140  -0.00047495  0.37662429  1
  V  V15  1  0.50044301  -0.00322231  0.00016262  1
  V  V16  1  0.00039353  0.62501540  0.12749263  1
  V  V17  1  0.88033446  0.25050668  0.62697554  1
  V  V18  1  0.38533727  0.36960735  0.49615072  1
  V  V19  1  0.86834831  0.12352777  0.75739300  1
  V  V20  1  0.37538648  -0.00061871  0.87067427  1
  V  V21  1  0.49032815  0.13914519  0.62542643  1
  V  V22  1  0.74778823  0.62476096  0.37788430  1
  V  V23  1  0.74136937  0.37792008  0.62670160  1
  V  V24  1  0.24844130  0.37143420  0.12878933  1
  V  V25  1  0.75010354  0.62026221  0.88075996  1
  V  V26  1  0.10837705  0.36970930  0.25508568  1
  V  V27  1  0.24683145  0.12538887  0.38074505  1
  V  V28  1  0.12521344  0.12430620  0.00190281  1
  V  V29  1  0.38297714  0.38803335  -0.00163950  1
  V  V30  1  0.12562316  0.62732513  0.49811281  1
  V  V31  1  0.75219901  0.24920022  -0.00286038  1
  V  V32  1  0.11769755  0.87877416  0.75107430  1
  V  V33  1  0.50080296  0.00253252  0.51084608  1
  V  V34  1  0.50381807  0.25929873  0.25344255  1
  V  V35  1  0.49988213  0.87830431  0.37806220  1
  V  V36  1  0.74706292  0.74700244  -0.00060652  1
  V  V37  1  0.61525588  0.26388971  0.87730323  1
  V  V38  1  -0.01046416  0.86819495  0.37694882  1
  V  V39  1  0.37393731  0.62552962  0.24844348  1
  V  V40  1  -0.00520142  0.62815610  0.62433283  1
  V  V41  1  0.11599415  0.75367429  0.87338784  1
  V  V42  1  0.00738514  0.12724181  0.62995367  1
  V  V43  1  0.74808618  0.11887228  0.37346313  1
  V  V44  1  0.87744038  0.49192003  0.37322339  1
  V  V45  1  0.87688210  0.37452214  0.49851562  1
  V  V46  1  0.25218584  0.25156110  0.00176257  1
  V  V47  1  0.12693805  0.37390387  0.75299082  1
  V  V48  1  0.63020254  0.88658847  0.74772852  1
  V  V49  1  0.50747505  0.51521839  0.49596632  1
  V  V50  1  0.38099288  0.62748485  0.72965989  1
  V  V51  1  0.25028148  0.87288926  0.12667752  1
  V  V52  1  0.62452016  0.25823364  0.37030534  1
  V  V53  1  0.62386041  0.50046099  0.10833663  1
  V  V54  1  0.76318204  -0.00126060  0.24987739  1
  V  V55  1  0.25567742  0.37179238  0.62433224  1
  V  V56  1  0.12449775  -0.00143653  0.12737094  1
  V  V57  1  0.00155901  -0.00465764  -0.01219603  1
  V  V58  1  0.25168618  0.86550900  0.62705246  1
  V  V59  1  0.87584876  0.62563351  0.75243928  1
  V  V60  1  0.25090263  0.12545838  0.87184494  1
  V  V61  1  0.62723143  0.12302273  -0.01170233  1
  V  V62  1  0.62501435  0.87501834  0.24664419  1
  V  V63  1  0.38024069  0.49217748  0.37152265  1
  V  V64  1  0.87920978  0.75028703  0.12588973  1
  V  V65  1  0.62698558  -0.00220287  0.12454046  1
  V  V66  1  0.37624608  0.86697523  0.50640613  1
  V  V67  1  0.12174797  0.49726749  0.12622899  1
  V  V68  1  0.12278435  0.25151532  0.87289487  1
  V  V69  1  0.25858719  0.62196753  0.87239727  1
  V  V70  1  0.50255097  0.12361464  0.12713279  1
  V  V71  1  0.12237995  0.62371680  -0.00235898  1
  V  V72  1  0.66719057  0.06915804  0.55891703  1
  V  V73  1  -0.04210353  0.30969299  0.80939164  1
  V  V74  1  -0.00105864  0.49489565  0.49497732  1
  V  V75  1  0.73835567  0.49529280  0.25101592  1
  V  V76  1  0.75174057  0.87308119  0.12241463  1
  V  V77  1  0.37240140  0.87637290  -0.00297166  1
  V  V78  1  0.12574330  0.49947257  0.62570554  1
  V  V79  1  0.37801749  0.12381421  0.25183543  1
  V  V80  1  -0.00113300  0.12579496  0.13411854  1
  V  V81  1  0.74943901  0.37155376  0.12658845  1
  V  V82  1  0.24669283  0.75173534  -0.00202215  1
  V  V83  1  -0.00562770  0.48658544  -0.00604895  1
  V  V84  1  0.76319148  0.76208453  0.50193141  1
  Zn  Zn85  1  0.74758629  0.50094173  0.75034544  1
  Zn  Zn86  1  0.61069786  0.38562129  0.75105841  1
  Zn  Zn87  1  0.12477205  0.74767239  0.37181017  1
  Zn  Zn88  1  0.62520219  0.74772230  0.87193125  1
  Zn  Zn89  1  0.75156917  0.89372708  0.62887908  1
  Zn  Zn90  1  0.88228339  0.12750354  0.26047114  1
  Zn  Zn91  1  0.37317925  0.13073963  0.74517620  1
  Zn  Zn92  1  0.49755103  0.85942502  0.87255475  1
  Zn  Zn93  1  0.24818713  0.62526775  0.37469694  1
  Zn  Zn94  1  0.25084772  -0.00148960  0.74615025  1
  Zn  Zn95  1  0.44184184  0.45753467  0.84440236  1
  Zn  Zn96  1  -0.00258578  0.75402705  0.75329067  1
  Zn  Zn97  1  0.50508316  0.61180988  0.11711473  1
  Zn  Zn98  1  0.25423712  0.74517895  0.49913569  1
  Zn  Zn99  1  0.60493196  0.53156523  0.63239883  1
  Zn  Zn100  1  0.25000077  -0.00127594  0.25322113  1
  Zn  Zn101  1  0.48673671  0.26863929  0.75556210  1
  Zn  Zn102  1  0.37859781  0.24977803  0.12560680  1
  Zn  Zn103  1  0.87955486  0.48769100  0.87249301  1
  Zn  Zn104  1  0.87908709  0.76694406  0.62622488  1
  Zn  Zn105  1  0.25747710  0.49837980  0.75349201  1
  Zn  Zn106  1  0.88068061  0.86948743  -0.01033551  1
  Zn  Zn107  1  0.18668311  0.18724627  0.19461599  1
  Zn  Zn108  1  0.18670273  0.18987734  0.68830325  1
  Zn  Zn109  1  0.19044583  0.68668134  0.18598750  1
  Zn  Zn110  1  0.18525681  0.68707758  0.68825419  1
  Zn  Zn111  1  0.68737345  0.18403597  0.18785989  1
  Zn  Zn112  1  0.68490662  0.19837987  0.69654239  1
  Zn  Zn113  1  0.68746322  0.68321358  0.18793094  1
  Zn  Zn114  1  0.68849897  0.69142932  0.68891698  1
  Zn  Zn115  1  0.31152188  0.30872789  0.31398915  1
  Zn  Zn116  1  0.31335092  0.31271158  0.81546491  1
  Zn  Zn117  1  0.31076091  0.80948507  0.31476483  1
  Zn  Zn118  1  0.31218310  0.80650463  0.80903516  1
  Zn  Zn119  1  0.81114879  0.31036969  0.31041169  1
  Zn  Zn120  1  0.79356973  0.30523148  0.81235959  1
  Zn  Zn121  1  0.81345259  0.80994015  0.30932872  1
  Zn  Zn122  1  0.81303304  0.81235068  0.80979481  1
  Zn  Zn123  1  0.18820955  0.43439277  0.43609224  1
  Zn  Zn124  1  0.18695546  0.43846982  0.93782701  1
  Zn  Zn125  1  0.18833090  0.93458295  0.43800018  1
  Zn  Zn126  1  0.18563185  0.93825598  0.93462548  1
  Zn  Zn127  1  0.68864304  0.43561626  0.43715517  1
  Zn  Zn128  1  0.69548388  0.43483722  0.93885581  1
  Zn  Zn129  1  0.69041570  0.93299232  0.42890030  1
  Zn  Zn130  1  0.68489662  0.92881309  0.93525251  1
  Zn  Zn131  1  0.31179683  0.06304465  0.06377634  1
  Zn  Zn132  1  0.31308703  0.05842192  0.56110884  1
  Zn  Zn133  1  0.30668975  0.56233050  0.06390897  1
  Zn  Zn134  1  0.31073617  0.55408597  0.55704347  1
  Zn  Zn135  1  0.81362872  0.06454644  0.06111933  1
  Zn  Zn136  1  0.83176376  0.06248695  0.56397921  1
  Zn  Zn137  1  0.81471783  0.55697022  0.06122966  1
  Zn  Zn138  1  0.78303057  0.58354123  0.57873896  1
  Zn  Zn139  1  0.43813377  0.43610175  0.18209252  1
  Zn  Zn140  1  0.43543867  0.44202010  0.67666524  1
  Zn  Zn141  1  0.43725861  0.93415598  0.18668284  1
  Zn  Zn142  1  0.43973104  0.93636691  0.68887448  1
  Zn  Zn143  1  0.93090346  0.43785629  0.18296577  1
  Zn  Zn144  1  0.93145541  0.44494270  0.67968254  1
  Zn  Zn145  1  0.94258817  0.93438720  0.18776762  1
  Zn  Zn146  1  0.93660860  0.94220319  0.68804437  1
  Zn  Zn147  1  0.06699637  0.05971882  0.31450352  1
  Zn  Zn148  1  0.06388795  0.06432430  0.80769829  1
  Zn  Zn149  1  0.06154701  0.55982739  0.31225209  1
  Zn  Zn150  1  0.06447019  0.56224764  0.81195966  1
  Zn  Zn151  1  0.56789428  0.06434159  0.31657093  1
  Zn  Zn152  1  0.55682190  0.06445777  0.81100351  1
  Zn  Zn153  1  0.56037775  0.56335379  0.31229455  1
  Zn  Zn154  1  0.56806830  0.56752442  0.81075668  1
  Zn  Zn155  1  0.44093060  0.18577727  0.43991683  1
  Zn  Zn156  1  0.43622185  0.18779765  0.93957562  1
  Zn  Zn157  1  0.43505677  0.68622056  0.43284009  1
  Zn  Zn158  1  0.46596147  0.64925632  0.92554184  1
  Zn  Zn159  1  0.93417009  0.18124846  0.44304641  1
  Zn  Zn160  1  0.93422426  0.17918511  0.94707037  1
  Zn  Zn161  1  0.93798534  0.68545843  0.43554664  1
  Zn  Zn162  1  0.93495993  0.68248871  0.94062833  1
  Zn  Zn163  1  0.06302068  0.30868885  0.06537398  1
  Zn  Zn164  1  0.06636821  0.31125482  0.56181914  1
  Zn  Zn165  1  0.05982175  0.81363942  0.06325719  1
  Zn  Zn166  1  0.06153753  0.81456989  0.56045320  1
  Zn  Zn167  1  0.56486885  0.31347559  0.06735449  1
  Zn  Zn168  1  0.56427808  0.31089011  0.55725416  1
  Zn  Zn169  1  0.54843014  0.78802039  0.04687698  1
  Zn  Zn170  1  0.57024497  0.81660261  0.56561326  1
  O  O171  1  0.12166492  0.11811346  0.12311457  1
  O  O172  1  0.11905295  0.11498764  0.63090197  1
  O  O173  1  0.11796090  0.62026209  0.12008721  1
  O  O174  1  0.11719795  0.61886810  0.61918702  1
  O  O175  1  0.61829325  0.11645402  0.11886537  1
  O  O176  1  0.61840319  0.13149396  0.62614895  1
  O  O177  1  0.62677180  0.60652327  0.12763945  1
  O  O178  1  0.67517111  0.61292880  0.61232806  1
  O  O179  1  0.36939675  0.38269706  0.38170867  1
  O  O180  1  0.36660786  0.38262908  0.89230427  1
  O  O181  1  0.38072423  0.88159736  0.38077020  1
  O  O182  1  0.37188024  0.88201678  0.87974729  1
  O  O183  1  0.86869307  0.38488698  0.37948802  1
  O  O184  1  0.88330536  0.36657197  0.85832283  1
  O  O185  1  0.89091246  0.87268531  0.36700013  1
  O  O186  1  0.87254391  0.89312873  0.87168993  1
  O  O187  1  0.25644945  0.00808433  0.37620173  1
  O  O188  1  0.25887992  0.00822022  0.87600985  1
  O  O189  1  0.26002104  0.50042635  0.36869400  1
  O  O190  1  0.24263309  0.51803335  0.87351274  1
  O  O191  1  0.74623696  0.00583398  0.36248871  1
  O  O192  1  0.75968993  0.00391479  0.88304098  1
  O  O193  1  0.75558925  0.50631836  0.36962144  1
  O  O194  1  0.75851453  0.50730570  0.87539066  1
  O  O195  1  0.24047855  0.49086986  0.13095140  1
  O  O196  1  0.24262698  0.48902092  0.62594161  1
  O  O197  1  0.23786135  0.99519458  0.12430972  1
  O  O198  1  0.24226973  0.99255797  0.62441402  1
  O  O199  1  0.74476300  0.49311970  0.13095171  1
  O  O200  1  0.76450259  0.47813847  0.62443517  1
  O  O201  1  0.74700163  0.99449844  0.12991095  1
  O  O202  1  0.73822640  1.01389818  0.61171839  1
  O  O203  1  0.00996880  0.37899184  0.24327714  1
  O  O204  1  0.00740334  0.37573742  0.74292854  1
  O  O205  1  0.01027311  0.88274331  0.26542505  1
  O  O206  1  0.01396654  0.87409565  0.74519542  1
  O  O207  1  0.49168837  0.35791900  0.24702170  1
  O  O208  1  0.49245756  0.38784221  0.75852657  1
  O  O209  1  0.50337980  0.87415968  0.26262717  1
  O  O210  1  0.50448665  0.86249017  0.75070943  1
  O  O211  1  0.49450222  0.12748793  0.24626004  1
  O  O212  1  0.49847783  0.12391418  0.73181069  1
  O  O213  1  0.49354349  0.63488703  0.24371656  1
  O  O214  1  0.49027579  0.63329405  0.73947753  1
  O  O215  1  1.00069443  0.11683719  0.23852075  1
  O  O216  1  0.99256046  0.12206537  0.73712561  1
  O  O217  1  0.99321370  0.61635902  0.23587413  1
  O  O218  1  0.99547221  0.62592948  0.74075010  1
  O  O219  1  0.36190302  0.25469394  0.00244316  1
  O  O220  1  0.36537313  0.25834340  0.49035158  1
  O  O221  1  0.35670650  0.76554961  -0.00556846  1
  O  O222  1  0.37736856  0.76342980  0.49441680  1
  O  O223  1  0.86169322  0.23950173  0.01216816  1
  O  O224  1  0.86280034  0.25310604  0.50440710  1
  O  O225  1  0.86837039  0.75104672  0.00862066  1
  O  O226  1  0.86543559  0.75249448  0.49688997  1
  O  O227  1  0.13618094  0.25619756  0.48586255  1
  O  O228  1  0.13517647  0.24567794  0.99597450  1
  O  O229  1  0.12348038  0.73463556  0.50133169  1
  O  O230  1  0.13160801  0.74732263  0.99632923  1
  O  O231  1  0.63712689  0.25113252  0.48933070  1
  O  O232  1  0.62693669  0.24347411  0.99389751  1
  O  O233  1  0.63367785  0.75565667  0.48738934  1
  O  O234  1  0.64318302  0.75112221  0.99823131  1
  O  O235  1  0.50157404  0.24099510  0.13526765  1
  O  O236  1  0.50095478  0.24108781  0.62540806  1
  O  O237  1  0.49578401  0.77723208  0.14901169  1
  O  O238  1  0.50300865  0.75276073  0.63481136  1
  O  O239  1  0.99040907  0.23910229  0.11863283  1
  O  O240  1  0.99478467  0.23801976  0.61391895  1
  O  O241  1  0.98817691  0.74075786  0.12023046  1
  O  O242  1  0.99798353  0.73848774  0.62244225  1
  O  O243  1  0.01426147  0.24137535  0.38475638  1
  O  O244  1  0.00546282  0.24783636  0.88202269  1
  O  O245  1  0.00391993  0.76360245  0.37944896  1
  O  O246  1  0.01265336  0.74541734  0.87937991  1
  O  O247  1  0.51683285  0.24107979  0.36999455  1
  O  O248  1  0.51204805  0.24784863  0.87908120  1
  O  O249  1  0.50678057  0.75408976  0.36726347  1
  O  O250  1  0.50586537  0.74100293  0.86141393  1
  O  O251  1  0.25746056  0.13197119  0.48892703  1
  O  O252  1  0.24495694  0.13144481  0.99403717  1
  O  O253  1  0.23977939  0.62293788  0.49827117  1
  O  O254  1  0.24406235  0.63288889  0.99234247  1
  O  O255  1  0.74469589  0.12675597  0.50014167  1
  O  O256  1  0.73640378  0.13527291  1.00976029  1
  O  O257  1  0.76070922  0.63910799  0.47984456  1
  O  O258  1  0.76206481  0.62990470  0.98839008  1
  O  O259  1  0.25163338  0.36837122  0.00902673  1
  O  O260  1  0.25661983  0.36821724  0.50580255  1
  O  O261  1  0.25089271  0.87050920  0.00567579  1
  O  O262  1  0.25991163  0.87386459  0.50763606  1
  O  O263  1  0.74835755  0.35857613  0.00812517  1
  O  O264  1  0.75483003  0.36675243  0.50759400  1
  O  O265  1  0.75713983  0.86648464  0.00591482  1
  O  O266  1  0.74968070  0.86417141  0.49718263  1
  O  O267  1  0.12926478  0.49032027  0.24594707  1
  O  O268  1  0.12795778  0.49260448  0.74295364  1
  O  O269  1  0.12892593  0.99035896  0.24182368  1
  O  O270  1  0.12836447  0.99284819  0.74115980  1
  O  O271  1  0.63661913  0.50144571  0.25021104  1
  O  O272  1  0.62933158  0.50068018  0.74278606  1
  O  O273  1  0.63159931  0.99344076  0.24346764  1
  O  O274  1  0.61689701  0.98486175  0.75597780  1
  O  O275  1  0.37514354  0.00935905  0.25491216  1
  O  O276  1  0.37218680  0.00473144  0.75856018  1
  O  O277  1  0.37254520  0.50360359  0.25359418  1
  O  O278  1  0.37639647  0.51703946  0.75157431  1
  O  O279  1  0.86548777  0.00201655  0.24379561  1
  O  O280  1  0.87620186  0.01340167  0.76309124  1
  O  O281  1  0.86703236  0.50740631  0.25451305  1
  O  O282  1  0.87318078  0.51169373  0.75261871  1
  O  O283  1  0.12671498  0.36174713  0.36757977  1
  O  O284  1  0.13030002  0.37220654  0.86096152  1
  O  O285  1  0.12078087  0.87308173  0.36682707  1
  O  O286  1  0.13137369  0.86683753  0.86410165  1
  O  O287  1  0.63243378  0.35750443  0.37318348  1
  O  O288  1  0.62415602  0.36667421  0.87781075  1
  O  O289  1  0.61879294  0.86580052  0.36628590  1
  O  O290  1  0.61949182  0.86814084  0.86442044  1
  O  O291  1  0.38164646  0.12508756  0.13372723  1
  O  O292  1  0.38686392  0.12367811  0.62314797  1
  O  O293  1  0.37354595  0.62397422  0.13666910  1
  O  O294  1  0.36580383  0.62500711  0.63253312  1
  O  O295  1  0.88474830  0.12979725  0.12752961  1
  O  O296  1  0.88407910  0.13095566  0.63855918  1
  O  O297  1  0.88124659  0.62746189  0.13039988  1
  O  O298  1  0.88043846  0.62734008  0.63309147  1
  O  O299  1  0.24972355  0.25478927  0.12005058  1
  O  O300  1  0.24289663  0.25573442  0.61084603  1
  O  O301  1  0.25928136  0.75092847  0.11359122  1
  O  O302  1  0.24401242  0.76207490  0.62081349  1
  O  O303  1  0.75178379  0.25555685  0.12107584  1
  O  O304  1  0.75477081  0.25829009  0.61886635  1
  O  O305  1  0.75995143  0.74996111  0.12021792  1
  O  O306  1  0.75456235  0.75220870  0.60596324  1
  O  O307  1  0.24384600  0.24233200  0.38258255  1
  O  O308  1  0.24334023  0.24269037  0.88442833  1
  O  O309  1  0.24477043  0.74439131  0.37978017  1
  O  O310  1  0.23895256  0.74302355  0.88066250  1
  O  O311  1  0.74252345  0.24387175  0.38117151  1
  O  O312  1  0.73115790  0.24714592  0.88578588  1
  O  O313  1  0.74416687  0.74627309  0.37869049  1
  O  O314  1  0.75538935  0.74019694  0.88419803  1
  O  O315  1  0.00810554  0.11493579  0.01223177  1
  O  O316  1  -0.00430380  0.10948507  0.51065370  1
  O  O317  1  0.00450620  0.61703650  0.01101545  1
  O  O318  1  0.00386840  0.61532303  0.50481725  1
  O  O319  1  0.50560782  0.11770261  0.00816950  1
  O  O320  1  0.50185012  0.11906241  0.51381928  1
  O  O321  1  0.47830027  0.68652218  0.03534917  1
  O  O322  1  0.50085291  0.61463212  0.49219128  1
  O  O323  1  0.48737324  0.37534116  0.50076055  1
  O  O324  1  0.48039713  0.36831589  1.00955352  1
  O  O325  1  0.49655424  0.88230228  0.49834079  1
  O  O326  1  0.48782432  0.87625605  0.99456526  1
  O  O327  1  0.99588210  0.38812901  0.50688862  1
  O  O328  1  1.00865592  0.38858327  1.00367350  1
  O  O329  1  1.00634863  0.88523470  0.48634218  1
  O  O330  1  0.99574193  0.88903988  1.00652778  1
  O  O331  1  0.48889088  0.50149334  0.37946599  1
  O  O332  1  0.49597626  0.54272705  0.89184208  1
  O  O333  1  0.49657366  0.99907669  0.38605260  1
  O  O334  1  0.48591638  1.00063880  0.88234793  1
  O  O335  1  0.98936992  0.50274308  0.38234718  1
  O  O336  1  1.00179776  0.50340503  0.89017928  1
  O  O337  1  1.00658538  0.99510050  0.38794076  1
  O  O338  1  1.00039553  1.00614193  0.88584268  1
  O  O339  1  0.01087813  0.00403187  0.11922621  1
  O  O340  1  0.00795195  0.00533864  0.61597563  1
  O  O341  1  0.00326423  0.50503787  0.11613664  1
  O  O342  1  0.00395359  0.51136242  0.61586533  1
  O  O343  1  0.50531512  0.00181729  0.11849259  1
  O  O344  1  0.49967271  0.00642313  0.61469958  1
  O  O345  1  0.51825410  0.49618809  0.12627833  1
  O  O346  1  0.49900331  0.50202418  0.60272990  1
  O  O347  1  0.24569351  0.37705851  0.24284173  1
  O  O348  1  0.24499053  0.37674585  0.74182147  1
  O  O349  1  0.24576817  0.87690429  0.24255336  1
  O  O350  1  0.24282665  0.87472384  0.74216432  1
  O  O351  1  0.75460658  0.38452635  0.24132800  1
  O  O352  1  0.74439743  0.37354418  0.73602691  1
  O  O353  1  0.74635407  0.88050577  0.24396627  1
  O  O354  1  0.73412524  0.87287680  0.75248320  1
  O  O355  1  0.26038739  0.12359999  0.26091080  1
  O  O356  1  0.24882723  0.12327311  0.76289608  1
  O  O357  1  0.25680304  0.61544161  0.24948286  1
  O  O358  1  0.25990865  0.62790624  0.75809169  1
  O  O359  1  0.75156517  0.11403025  0.25583565  1
  O  O360  1  0.77006230  0.13827644  0.74751666  1
  O  O361  1  0.75820068  0.61742794  0.25792380  1
  O  O362  1  0.76163504  0.62705835  0.76345132  1
  O  O363  1  0.37150816  0.11877017  0.36951214  1
  O  O364  1  0.36500525  0.11627675  0.88049093  1
  O  O365  1  0.37377905  0.61669619  0.36111140  1
  O  O366  1  0.35743158  0.63421623  0.87546376  1
  O  O367  1  0.85642816  0.13215531  0.37537207  1
  O  O368  1  0.88062145  0.11678230  0.86481009  1
  O  O369  1  0.87206826  0.61580376  0.36557137  1
  O  O370  1  0.87093641  0.62133241  0.86787334  1
  O  O371  1  0.13330133  0.37464013  0.13348597  1
  O  O372  1  0.13386352  0.37731280  0.63359311  1
  O  O373  1  0.12872756  0.88057481  0.13137876  1
  O  O374  1  0.13166234  0.88190198  0.62999163  1
  O  O375  1  0.63795215  0.38598990  0.12239253  1
  O  O376  1  0.63642281  0.37330470  0.62326639  1
  O  O377  1  0.63368135  0.87984354  0.12888273  1
  O  O378  1  0.63253139  0.87684220  0.63996201  1
  O  O379  1  0.12722979  0.25719533  0.26516299  1
  O  O380  1  0.12479546  0.25930411  0.75887627  1
  O  O381  1  0.12810817  0.76261106  0.24609835  1
  O  O382  1  0.12140904  0.75670234  0.75794771  1
  O  O383  1  0.61914064  0.24525490  0.26099456  1
  O  O384  1  0.61564858  0.25884888  0.76567377  1
  O  O385  1  0.61917387  0.75491618  0.25550040  1
  O  O386  1  0.61458248  0.75417352  0.74806620  1
  O  O387  1  0.38254865  0.23717247  0.25204805  1
  O  O388  1  0.37723973  0.24304194  0.75937248  1
  O  O389  1  0.38129515  0.74089824  0.24443009  1
  O  O390  1  0.38607135  0.73715390  0.75032348  1
  O  O391  1  0.86959574  0.24501241  0.23517591  1
  O  O392  1  0.88513587  0.24603774  0.75217915  1
  O  O393  1  0.87060514  0.73354630  0.24197149  1
  O  O394  1  0.88040478  0.74005804  0.74928896  1
  O  O395  1  0.38343885  0.49287089  0.48886673  1
  O  O396  1  0.37309820  0.48730906  1.01066128  1
  O  O397  1  0.38434591  0.99064620  0.49517032  1
  O  O398  1  0.37625364  0.99006425  0.99595752  1
  O  O399  1  0.88171598  0.49442807  0.48945266  1
  O  O400  1  0.89011588  0.49622014  0.99743074  1
  O  O401  1  0.89127251  0.99423820  0.49713072  1
  O  O402  1  0.88237375  1.00381782  0.98616913  1
  O  O403  1  0.11943464  0.00381494  0.00620688  1
  O  O404  1  0.11893343  -0.00371462  0.51069403  1
  O  O405  1  0.11885388  0.50549204  0.00718530  1
  O  O406  1  0.11804128  0.50571816  0.50316126  1
  O  O407  1  0.62029808  0.00445690  0.00247743  1
  O  O408  1  0.61824427  0.00057839  0.49479879  1
  O  O409  1  0.63205576  0.50045429  0.01017098  1
  O  O410  1  0.60772538  0.49504992  0.49093372  1
  O  O411  1  0.36175758  0.37093332  0.11949848  1
  O  O412  1  0.36172062  0.37874612  0.61334892  1
  O  O413  1  0.36866801  0.86947985  0.11448892  1
  O  O414  1  0.36538745  0.88153186  0.61735656  1
  O  O415  1  0.86249152  0.36625408  0.12496440  1
  O  O416  1  0.87038854  0.36595511  0.61818360  1
  O  O417  1  0.87111747  0.86372093  0.12807964  1
  O  O418  1  0.86399646  0.87934180  0.63425406  1
  O  O419  1  0.13571405  0.13615650  0.36907312  1
  O  O420  1  0.13263902  0.12818220  0.88116942  1
  O  O421  1  0.12381612  0.62486668  0.38318819  1
  O  O422  1  0.13247954  0.63366519  0.87930315  1
  O  O423  1  0.64022686  0.13462777  0.37357407  1
  O  O424  1  0.61807062  0.12976501  0.88575332  1
  O  O425  1  0.63521286  0.63534601  0.36581488  1
  O  O426  1  0.64793022  0.62918442  0.87130675  1
