# generated using pymatgen
data_V85Zn86O256
_symmetry_space_group_name_H-M   'P 1'
_cell_length_a   16.94765611
_cell_length_b   16.94665267
_cell_length_c   16.94035607
_cell_angle_alpha   90.04990743
_cell_angle_beta   89.95582973
_cell_angle_gamma   90.06748372
_symmetry_Int_Tables_number   1
_chemical_formula_structural   V85Zn86O256
_chemical_formula_sum   'V85 Zn86 O256'
_cell_volume   4865.36595008
_cell_formula_units_Z   1
loop_
 _symmetry_equiv_pos_site_id
 _symmetry_equiv_pos_as_xyz
  1  'x, y, z'
loop_
 _atom_site_type_symbol
 _atom_site_label
 _atom_site_symmetry_multiplicity
 _atom_site_fract_x
 _atom_site_fract_y
 _atom_site_fract_z
 _atom_site_occupancy
  V  V0  1  0.88213641  0.49791067  0.36897991  1
  V  V1  1  0.75080145  0.12292976  0.37449733  1
  V  V2  1  0.12510436  0.00502760  0.12077488  1
  V  V3  1  0.49886334  0.25328389  0.24340167  1
  V  V4  1  0.12889956  0.36204695  0.75405335  1
  V  V5  1  0.25180448  0.12592568  0.36841700  1
  V  V6  1  0.62473283  0.62458630  0.49534730  1
  V  V7  1  0.12132098  -0.01063915  0.62024344  1
  V  V8  1  -0.00889991  0.24125270  0.75550552  1
  V  V9  1  0.59965031  0.62026091  0.00185657  1
  V  V10  1  0.24322356  0.61997712  0.88823238  1
  V  V11  1  0.74879103  0.87403688  0.62578923  1
  V  V12  1  0.12535280  0.50705344  0.12234445  1
  V  V13  1  0.87611749  0.87294449  0.00198285  1
  V  V14  1  0.75582823  0.00479181  0.74718264  1
  V  V15  1  0.38293083  0.50594041  0.87475738  1
  V  V16  1  0.75121650  0.38040219  0.62191913  1
  V  V17  1  0.75071979  0.25066546  0.49979694  1
  V  V18  1  0.74992812  -0.00137847  0.24497953  1
  V  V19  1  0.12330210  0.49806671  0.62541383  1
  V  V20  1  0.88534204  0.37419139  0.49583474  1
  V  V21  1  0.25151835  0.00328893  0.74898908  1
  V  V22  1  0.64271715  0.37728612  0.24141560  1
  V  V23  1  0.25012619  0.49627610  0.24525952  1
  V  V24  1  0.49796268  0.89029702  0.87588376  1
  V  V25  1  0.25219730  0.37375736  0.62720037  1
  V  V26  1  0.23119568  0.12607258  0.87992023  1
  V  V27  1  0.37062562  0.25752065  0.12676751  1
  V  V28  1  0.30569167  0.81805731  0.67382739  1
  V  V29  1  0.61627337  0.12051248  0.00290114  1
  V  V30  1  0.75380104  0.61869514  0.86403734  1
  V  V31  1  0.87746603  0.37887049  0.00198193  1
  V  V32  1  0.24955063  0.24848777  0.50072841  1
  V  V33  1  0.25330618  0.75387809  0.50014479  1
  V  V34  1  0.24785716  0.87314693  0.12394487  1
  V  V35  1  0.00031327  0.88392527  0.37742049  1
  V  V36  1  -0.00029979  0.25631428  0.25138021  1
  V  V37  1  0.38077820  0.37850837  0.00009793  1
  V  V38  1  0.62738200  0.37852111  0.75311615  1
  V  V39  1  0.75056326  0.61819651  0.36794934  1
  V  V40  1  0.87148846  0.62401175  0.24010488  1
  V  V41  1  0.50374475  0.37404686  0.37228551  1
  V  V42  1  0.11674264  0.12106439  0.50178039  1
  V  V43  1  0.00340645  0.50885343  -0.00207950  1
  V  V44  1  0.87019967  0.25279458  0.12387336  1
  V  V45  1  0.49960714  0.25293551  0.75325855  1
  V  V46  1  0.75787046  0.13020757  0.87017103  1
  V  V47  1  0.12435596  0.87713197  0.24961275  1
  V  V48  1  0.61896487  0.75228586  0.87261604  1
  V  V49  1  0.38478873  0.74664825  0.12062060  1
  V  V50  1  0.87640694  0.12475113  0.24863918  1
  V  V51  1  0.50078716  0.50004092  0.49873659  1
  V  V52  1  0.62058903  0.12462163  0.50130252  1
  V  V53  1  0.11806357  0.75361271  0.88289556  1
  V  V54  1  0.37575877  0.37306722  0.50070786  1
  V  V55  1  0.12217222  0.75090703  0.37651088  1
  V  V56  1  0.75236426  0.25175718  -0.00181745  1
  V  V57  1  0.75275131  0.74702654  0.49904020  1
  V  V58  1  0.62418374  -0.00011367  0.62218929  1
  V  V59  1  0.23956722  0.25470769  -0.00128138  1
  V  V60  1  0.49627080  0.12337038  0.62485203  1
  V  V61  1  0.87828957  0.87914248  0.50075045  1
  V  V62  1  0.62554245  0.50181404  0.62901905  1
  V  V63  1  0.48819546  0.63108161  0.63093486  1
  V  V64  1  0.37681500  0.87702465  0.49866907  1
  V  V65  1  0.37763483  0.62763061  0.24620358  1
  V  V66  1  -0.00637820  0.62227914  0.63082328  1
  V  V67  1  0.25364252  0.50675000  0.75060585  1
  V  V68  1  0.75057460  0.74487776  -0.00141443  1
  V  V69  1  0.37588633  0.12434605  0.76461818  1
  V  V70  1  0.12681928  0.37589397  0.24722654  1
  V  V71  1  0.24783860  0.62461662  0.37656913  1
  V  V72  1  0.00904360  0.37277419  0.87750993  1
  V  V73  1  0.74803670  0.87153377  0.12219957  1
  V  V74  1  0.38164248  0.00616545  0.38358315  1
  V  V75  1  0.43596196  0.07945880  0.19096769  1
  V  V76  1  -0.00693729  0.75075863  0.24395689  1
  V  V77  1  0.87774431  -0.00277287  0.87111811  1
  V  V78  1  0.00314919  0.12761307  0.11715582  1
  V  V79  1  0.87302034  0.74494387  0.63659189  1
  V  V80  1  0.62941135  0.25396630  0.87513221  1
  V  V81  1  0.00172165  -0.00196701  -0.00482685  1
  V  V82  1  0.37284588  0.49869992  0.37320807  1
  V  V83  1  0.38000810  0.88889426  -0.00011636  1
  V  V84  1  0.12023397  0.25477889  0.37700385  1
  Zn  Zn85  1  0.62487015  0.75362413  0.37287757  1
  Zn  Zn86  1  0.50549643  0.74982612  0.25635985  1
  Zn  Zn87  1  0.50854901  0.38739611  0.88323698  1
  Zn  Zn88  1  -0.00713138  0.11826795  0.62777250  1
  Zn  Zn89  1  0.25310269  0.00560239  0.24725538  1
  Zn  Zn90  1  0.87287770  0.24479917  0.63092068  1
  Zn  Zn91  1  0.62062025  0.87599946  0.74977123  1
  Zn  Zn92  1  0.62483955  0.24885599  0.37104107  1
  Zn  Zn93  1  0.62495745  0.50154529  0.12234709  1
  Zn  Zn94  1  0.50550292  0.87569168  0.38021646  1
  Zn  Zn95  1  0.61701053  0.00241679  0.12168298  1
  Zn  Zn96  1  0.24513244  0.74363959  0.00697698  1
  Zn  Zn97  1  0.00029282  0.63179860  0.11959681  1
  Zn  Zn98  1  0.88065775  0.50955330  0.86036273  1
  Zn  Zn99  1  0.37293146  0.24837003  0.62805652  1
  Zn  Zn100  1  0.48745433  0.75285383  0.74807077  1
  Zn  Zn101  1  -0.00363636  0.74996153  0.75708256  1
  Zn  Zn102  1  0.62493922  0.87175121  0.25169359  1
  Zn  Zn103  1  0.11570003  0.87312106  0.75430662  1
  Zn  Zn104  1  0.12220228  0.62487951  0.50201438  1
  Zn  Zn105  1  0.00205213  0.49874305  0.49752906  1
  Zn  Zn106  1  0.87928298  0.00153380  0.37791895  1
  Zn  Zn107  1  0.18798428  0.18958473  0.18391546  1
  Zn  Zn108  1  0.18545427  0.18270972  0.68556449  1
  Zn  Zn109  1  0.18859765  0.68760426  0.19054093  1
  Zn  Zn110  1  0.17809985  0.68132425  0.69530120  1
  Zn  Zn111  1  0.68562526  0.18924629  0.18512826  1
  Zn  Zn112  1  0.68977667  0.18993325  0.68778838  1
  Zn  Zn113  1  0.68554725  0.68792434  0.18340182  1
  Zn  Zn114  1  0.68188969  0.68834491  0.68757438  1
  Zn  Zn115  1  0.31179932  0.31175464  0.31166021  1
  Zn  Zn116  1  0.31438874  0.31397251  0.81877548  1
  Zn  Zn117  1  0.31368205  0.81509803  0.31246431  1
  Zn  Zn118  1  0.30629107  0.81332677  0.83570046  1
  Zn  Zn119  1  0.81656989  0.31001718  0.31693816  1
  Zn  Zn120  1  0.82677670  0.34870513  0.80068336  1
  Zn  Zn121  1  0.81131081  0.81007321  0.31255775  1
  Zn  Zn122  1  0.80782851  0.81661365  0.81514590  1
  Zn  Zn123  1  0.18582847  0.43453635  0.43670646  1
  Zn  Zn124  1  0.19002415  0.43553711  0.94123717  1
  Zn  Zn125  1  0.19407622  0.93841477  0.43872650  1
  Zn  Zn126  1  0.18964917  0.93891921  0.93838404  1
  Zn  Zn127  1  0.68821983  0.43882229  0.43277481  1
  Zn  Zn128  1  0.70185393  0.45717780  0.97286731  1
  Zn  Zn129  1  0.68981733  0.93861831  0.43910193  1
  Zn  Zn130  1  0.68749310  0.93932630  0.93598778  1
  Zn  Zn131  1  0.30446466  0.06494052  0.05603960  1
  Zn  Zn132  1  0.30806223  0.06298233  0.56413545  1
  Zn  Zn133  1  0.31669998  0.55813824  0.06423731  1
  Zn  Zn134  1  0.30998910  0.56259808  0.56020101  1
  Zn  Zn135  1  0.81190711  0.06402994  0.05978176  1
  Zn  Zn136  1  0.81508207  0.06362720  0.56316456  1
  Zn  Zn137  1  0.81003038  0.56021406  0.06289176  1
  Zn  Zn138  1  0.81441801  0.56002184  0.56033451  1
  Zn  Zn139  1  0.44166825  0.43738376  0.17892894  1
  Zn  Zn140  1  0.43836987  0.44048262  0.68908748  1
  Zn  Zn141  1  0.43792196  0.91804870  0.18986317  1
  Zn  Zn142  1  0.44129018  0.94521984  0.69348808  1
  Zn  Zn143  1  0.93796559  0.43951874  0.18610767  1
  Zn  Zn144  1  0.93891338  0.43406931  0.68813979  1
  Zn  Zn145  1  0.93521689  0.93713011  0.18482435  1
  Zn  Zn146  1  0.94013086  0.93174657  0.68940987  1
  Zn  Zn147  1  0.06481697  0.06656078  0.30807764  1
  Zn  Zn148  1  0.06325973  0.05657694  0.80942136  1
  Zn  Zn149  1  0.05922173  0.56502846  0.31063716  1
  Zn  Zn150  1  0.06562139  0.56189312  0.80981836  1
  Zn  Zn151  1  0.56887326  0.05565719  0.31759737  1
  Zn  Zn152  1  0.57002386  0.06697258  0.81191660  1
  Zn  Zn153  1  0.54761070  0.54045095  0.27517695  1
  Zn  Zn154  1  0.56716435  0.56829260  0.81097306  1
  Zn  Zn155  1  0.43775474  0.18918032  0.43680983  1
  Zn  Zn156  1  0.43719460  0.19368860  0.93899090  1
  Zn  Zn157  1  0.43708783  0.68800453  0.43707280  1
  Zn  Zn158  1  0.42868758  0.69451430  0.93144633  1
  Zn  Zn159  1  0.93661630  0.18738715  0.43808358  1
  Zn  Zn160  1  0.94074838  0.18657747  0.93406681  1
  Zn  Zn161  1  0.93773996  0.68557855  0.43899378  1
  Zn  Zn162  1  0.93143095  0.68646196  0.93643931  1
  Zn  Zn163  1  0.06251211  0.31947306  0.06753435  1
  Zn  Zn164  1  0.06243186  0.30835093  0.56887409  1
  Zn  Zn165  1  0.06211586  0.81462891  0.05874356  1
  Zn  Zn166  1  0.05928308  0.81055390  0.56423165  1
  Zn  Zn167  1  0.56172659  0.30945417  0.06396698  1
  Zn  Zn168  1  0.56327309  0.31050812  0.56340083  1
  Zn  Zn169  1  0.56438910  0.81387070  0.06047338  1
  Zn  Zn170  1  0.56098916  0.81071866  0.55954017  1
  O  O171  1  0.11599908  0.11711866  0.12829722  1
  O  O172  1  0.11912469  0.11671817  0.61683981  1
  O  O173  1  0.12168829  0.61148502  0.13527286  1
  O  O174  1  0.11797460  0.61340284  0.62391247  1
  O  O175  1  0.62947726  0.12429481  0.10788204  1
  O  O176  1  0.61996283  0.12130465  0.61941053  1
  O  O177  1  0.62964913  0.62799981  0.10210917  1
  O  O178  1  0.62138028  0.61703081  0.61503406  1
  O  O179  1  0.38245968  0.37909754  0.37948077  1
  O  O180  1  0.38044523  0.38521607  0.88211674  1
  O  O181  1  0.37231785  0.88692888  0.38317749  1
  O  O182  1  0.38024069  0.87735353  0.89113505  1
  O  O183  1  0.87007764  0.38472671  0.38283031  1
  O  O184  1  0.89408394  0.36664514  0.89321105  1
  O  O185  1  0.88326058  0.87442947  0.38176773  1
  O  O186  1  0.86640449  0.89011346  0.88540798  1
  O  O187  1  0.25935737  0.00846548  0.36932627  1
  O  O188  1  0.24347000  0.01566348  0.86793541  1
  O  O189  1  0.25133235  0.50392369  0.36727270  1
  O  O190  1  0.25290290  0.50676009  0.87044662  1
  O  O191  1  0.75245708  0.01096985  0.36788805  1
  O  O192  1  0.75539689  0.00768742  0.86604507  1
  O  O193  1  0.76256452  0.51274067  0.38300911  1
  O  O194  1  0.74755218  0.51776654  0.88370702  1
  O  O195  1  0.24331224  0.50296755  0.13842669  1
  O  O196  1  0.24441989  0.49506057  0.63203072  1
  O  O197  1  0.24107256  0.99670957  0.12589586  1
  O  O198  1  0.23477145  1.00998814  0.63759690  1
  O  O199  1  0.73102051  0.48611516  0.08214508  1
  O  O200  1  0.74147082  0.48798890  0.61700996  1
  O  O201  1  0.75106880  0.99279272  0.13034205  1
  O  O202  1  0.74542731  0.99618792  0.63060728  1
  O  O203  1  0.00579569  0.36255866  0.24639042  1
  O  O204  1  0.01123661  0.36580791  0.75955524  1
  O  O205  1  0.00237324  0.86914634  0.25604292  1
  O  O206  1  0.00213868  0.86399764  0.75006778  1
  O  O207  1  0.50574228  0.36665772  0.25753816  1
  O  O208  1  0.51104691  0.36794085  0.74762592  1
  O  O209  1  0.50535649  0.86986095  0.26000060  1
  O  O210  1  0.49987399  0.87250488  0.75837540  1
  O  O211  1  0.49952368  0.13208054  0.25424112  1
  O  O212  1  0.49375941  0.13157295  0.74639084  1
  O  O213  1  0.47916463  0.63221253  0.26514412  1
  O  O214  1  0.50199649  0.62917218  0.73513445  1
  O  O215  1  0.99662583  0.13465486  0.23932191  1
  O  O216  1  1.00388491  0.13904389  0.75369913  1
  O  O217  1  0.99025808  0.63467127  0.24892287  1
  O  O218  1  1.00294356  0.62748732  0.73655832  1
  O  O219  1  0.36915102  0.25504084  0.00969847  1
  O  O220  1  0.36915739  0.25645059  0.50327532  1
  O  O221  1  0.36697395  0.75882350  0.00773834  1
  O  O222  1  0.36045620  0.75615637  0.49742723  1
  O  O223  1  0.87245980  0.25208056  0.00731018  1
  O  O224  1  0.86299475  0.25726053  0.49450837  1
  O  O225  1  0.86606374  0.76282110  -0.00813494  1
  O  O226  1  0.86506595  0.75465037  0.50582177  1
  O  O227  1  0.12776377  0.24509607  0.49297189  1
  O  O228  1  0.14086019  0.25965387  1.00696336  1
  O  O229  1  0.13285561  0.75236425  0.49029243  1
  O  O230  1  0.12728217  0.75014004  0.98974180  1
  O  O231  1  0.63541761  0.24387701  0.49767426  1
  O  O232  1  0.63491654  0.24629242  0.99532489  1
  O  O233  1  0.63756140  0.74101212  0.50210237  1
  O  O234  1  0.62979294  0.74571380  0.98907501  1
  O  O235  1  0.49010929  0.24936027  0.13615956  1
  O  O236  1  0.50163510  0.24011888  0.63635361  1
  O  O237  1  0.48676027  0.75678232  0.12821891  1
  O  O238  1  0.50289558  0.73534278  0.62606934  1
  O  O239  1  0.99381590  0.24388509  0.12877551  1
  O  O240  1  0.99918481  0.24996455  0.64387536  1
  O  O241  1  1.00846591  0.75070506  0.13962529  1
  O  O242  1  0.98863842  0.74031195  0.62452876  1
  O  O243  1  0.00858359  0.24288337  0.36355968  1
  O  O244  1  0.00357638  0.25586912  0.86566333  1
  O  O245  1  0.00701099  0.75712329  0.36803891  1
  O  O246  1  0.01495771  0.73958125  0.87738059  1
  O  O247  1  0.49841861  0.25969710  0.36544365  1
  O  O248  1  0.50679527  0.25257565  0.86336390  1
  O  O249  1  0.50543119  0.75438513  0.37938235  1
  O  O250  1  0.50314084  0.75915497  0.86934369  1
  O  O251  1  0.23873711  0.13160672  0.49264485  1
  O  O252  1  0.24898222  0.13501328  0.98667232  1
  O  O253  1  0.24523204  0.63299980  0.49477957  1
  O  O254  1  0.24726366  0.61912019  0.99091592  1
  O  O255  1  0.74253554  0.13099717  0.49344451  1
  O  O256  1  0.74679465  0.13529161  0.99145626  1
  O  O257  1  0.74533467  0.63049698  0.49560577  1
  O  O258  1  0.75491363  0.64047133  0.99129233  1
  O  O259  1  0.26236852  0.36040876  -0.00777599  1
  O  O260  1  0.25489648  0.36817586  0.50526621  1
  O  O261  1  0.25899634  0.87651622  0.01049473  1
  O  O262  1  0.25967142  0.86606617  0.50094920  1
  O  O263  1  0.76384914  0.35800855  -0.01204985  1
  O  O264  1  0.75289750  0.36701723  0.50319010  1
  O  O265  1  0.75449902  0.86951302  0.00385797  1
  O  O266  1  0.75603402  0.86505844  0.50566039  1
  O  O267  1  0.12942893  0.49323406  0.24922049  1
  O  O268  1  0.13177943  0.48909412  0.74041491  1
  O  O269  1  0.12410014  0.99393183  0.23762957  1
  O  O270  1  0.13404745  0.99347520  0.74288822  1
  O  O271  1  0.64422294  0.47981762  0.25686202  1
  O  O272  1  0.62041492  0.49329911  0.73763654  1
  O  O273  1  0.63967120  1.00173581  0.24480567  1
  O  O274  1  0.63602290  1.00195260  0.73795208  1
  O  O275  1  0.37814994  0.01224552  0.24858631  1
  O  O276  1  0.36132536  0.01075916  0.74558110  1
  O  O277  1  0.36561384  0.50480028  0.25405211  1
  O  O278  1  0.36301678  0.49198442  0.75973492  1
  O  O279  1  0.86553236  0.00635358  0.25093500  1
  O  O280  1  0.86452126  -0.00429845  0.75557701  1
  O  O281  1  0.87815918  0.50772268  0.25674404  1
  O  O282  1  0.86162943  0.45504195  0.76392942  1
  O  O283  1  0.12600643  0.36164028  0.36746640  1
  O  O284  1  0.11774245  0.37862833  0.86866826  1
  O  O285  1  0.11978291  0.87115289  0.37121175  1
  O  O286  1  0.13546234  0.85745042  0.87586372  1
  O  O287  1  0.61902560  0.37033716  0.36678698  1
  O  O288  1  0.62509824  0.37195515  0.86579003  1
  O  O289  1  0.62558367  0.87528063  0.37437743  1
  O  O290  1  0.61578686  0.86950300  0.87659202  1
  O  O291  1  0.37493252  0.13104590  0.12592095  1
  O  O292  1  0.38271081  0.12666627  0.63274376  1
  O  O293  1  0.36668828  0.63444066  0.13403182  1
  O  O294  1  0.39006633  0.61908102  0.62038142  1
  O  O295  1  0.88237270  0.13205347  0.12966743  1
  O  O296  1  0.88131575  0.13271816  0.61622538  1
  O  O297  1  0.87582391  0.62011682  0.13619368  1
  O  O298  1  0.87972835  0.63196500  0.62202326  1
  O  O299  1  0.25805369  0.24313177  0.11050767  1
  O  O300  1  0.25004837  0.25486578  0.61925472  1
  O  O301  1  0.25266033  0.75915855  0.12516509  1
  O  O302  1  0.24502404  0.75077426  0.62141468  1
  O  O303  1  0.76367916  0.24392790  0.11633386  1
  O  O304  1  0.74900689  0.25944316  0.61510073  1
  O  O305  1  0.74622816  0.76361693  0.11416925  1
  O  O306  1  0.75414968  0.75207998  0.61927723  1
  O  O307  1  0.24276779  0.24450973  0.38054713  1
  O  O308  1  0.25348302  0.23898010  0.88694805  1
  O  O309  1  0.24209420  0.74727878  0.38133587  1
  O  O310  1  0.24173456  0.73409933  0.88266671  1
  O  O311  1  0.74871745  0.23717022  0.38047580  1
  O  O312  1  0.74937695  0.24318344  0.87858233  1
  O  O313  1  0.75111132  0.73732816  0.38431397  1
  O  O314  1  0.73996398  0.74577564  0.88005489  1
  O  O315  1  -0.00473479  0.11632639  0.01046060  1
  O  O316  1  0.01397657  0.12717077  0.49687511  1
  O  O317  1  -0.00619826  0.61293933  0.00091854  1
  O  O318  1  0.00274214  0.62213322  0.51254488  1
  O  O319  1  0.51802820  0.13269661  -0.00731782  1
  O  O320  1  0.51245970  0.13417638  0.50876361  1
  O  O321  1  0.50241469  0.63785168  0.00013472  1
  O  O322  1  0.50780896  0.61890699  0.50650793  1
  O  O323  1  0.49768587  0.37828246  0.49235700  1
  O  O324  1  0.48731199  0.36702898  0.99771633  1
  O  O325  1  0.48160274  0.87113187  0.50316863  1
  O  O326  1  0.48707264  0.87402584  0.99482424  1
  O  O327  1  0.98801738  0.37091877  0.50408572  1
  O  O328  1  0.99910394  0.38367295  0.99505149  1
  O  O329  1  0.99030944  0.86712896  0.48983587  1
  O  O330  1  0.99047448  0.88799983  1.00501513  1
  O  O331  1  0.49591848  0.48766689  0.37428739  1
  O  O332  1  0.48606243  0.50514687  0.86459343  1
  O  O333  1  0.48549274  1.00255512  0.37505983  1
  O  O334  1  0.50639953  0.98967745  0.86766821  1
  O  O335  1  0.98755690  0.50448822  0.37841154  1
  O  O336  1  1.00145332  0.49344806  0.88007713  1
  O  O337  1  1.00092717  0.98777014  0.36833681  1
  O  O338  1  0.99162718  1.00624241  0.88380671  1
  O  O339  1  0.00473566  0.00802658  0.11866638  1
  O  O340  1  0.01680066  0.00122485  0.63115235  1
  O  O341  1  0.00804196  0.50236249  0.11618765  1
  O  O342  1  0.00650244  0.50245917  0.62511532  1
  O  O343  1  0.49319342  0.01325485  0.13885271  1
  O  O344  1  0.50949461  0.01497398  0.63052584  1
  O  O345  1  0.51889954  0.51344809  0.16412493  1
  O  O346  1  0.50730004  0.50808300  0.61962147  1
  O  O347  1  0.23990906  0.38436732  0.25669331  1
  O  O348  1  0.24453416  0.37947739  0.74824712  1
  O  O349  1  0.24637736  0.88074449  0.23848545  1
  O  O350  1  0.25412552  0.87885549  0.74501661  1
  O  O351  1  0.73954460  0.35700302  0.24822247  1
  O  O352  1  0.73223450  0.36340551  0.73501180  1
  O  O353  1  0.75314980  0.88239571  0.24037543  1
  O  O354  1  0.74468036  0.88495227  0.74273551  1
  O  O355  1  0.24392287  0.12675823  0.26399513  1
  O  O356  1  0.25477352  0.12315656  0.76135633  1
  O  O357  1  0.25643506  0.61806629  0.25857362  1
  O  O358  1  0.24607690  0.61023308  0.75801706  1
  O  O359  1  0.75429892  0.12104309  0.25584800  1
  O  O360  1  0.74693728  0.11826345  0.75797141  1
  O  O361  1  0.75773556  0.63004673  0.25777277  1
  O  O362  1  0.73762035  0.62500333  0.76599909  1
  O  O363  1  0.36387657  0.12006758  0.38370492  1
  O  O364  1  0.37165554  0.12857551  0.86669963  1
  O  O365  1  0.36501051  0.61706617  0.37285727  1
  O  O366  1  0.35819756  0.61802533  0.87722798  1
  O  O367  1  0.86828570  0.12247071  0.36884430  1
  O  O368  1  0.86505839  0.11383143  0.87991984  1
  O  O369  1  0.86906412  0.61820887  0.36755847  1
  O  O370  1  0.85997814  0.62563883  0.86862459  1
  O  O371  1  0.12292466  0.38643932  0.14062458  1
  O  O372  1  0.13193374  0.37926110  0.63309227  1
  O  O373  1  0.13142710  0.88152005  0.12888542  1
  O  O374  1  0.12562223  0.88662922  0.62257524  1
  O  O375  1  0.62123268  0.37196826  0.13951402  1
  O  O376  1  0.62878582  0.38368097  0.62749592  1
  O  O377  1  0.63306431  0.88362067  0.12322136  1
  O  O378  1  0.62883826  0.88389874  0.62308894  1
  O  O379  1  0.11992282  0.25711447  0.25391229  1
  O  O380  1  0.12106389  0.25932939  0.74721871  1
  O  O381  1  0.12095891  0.75712680  0.26142866  1
  O  O382  1  0.12664919  0.75222744  0.76660255  1
  O  O383  1  0.61488877  0.25405968  0.25053886  1
  O  O384  1  0.61773320  0.25538016  0.75481876  1
  O  O385  1  0.62481387  0.75088481  0.25342804  1
  O  O386  1  0.62255153  0.75372521  0.76271097  1
  O  O387  1  0.37936628  0.25520207  0.23694552  1
  O  O388  1  0.38315015  0.24513824  0.75000491  1
  O  O389  1  0.37019198  0.74295248  0.24076047  1
  O  O390  1  0.36176973  0.76373717  0.73904509  1
  O  O391  1  0.88255831  0.24634318  0.24336820  1
  O  O392  1  0.88846061  0.25719512  0.75316837  1
  O  O393  1  0.88389061  0.74044303  0.25484618  1
  O  O394  1  0.86941728  0.75321742  0.73895619  1
  O  O395  1  0.38065104  0.49364438  0.49270306  1
  O  O396  1  0.37062385  0.49008910  0.99055761  1
  O  O397  1  0.36616303  0.99244427  0.49339700  1
  O  O398  1  0.37450745  0.98758434  1.00806595  1
  O  O399  1  0.87833419  0.48942385  0.49285402  1
  O  O400  1  0.88556324  0.49187431  0.99419234  1
  O  O401  1  0.86778761  0.98313422  0.49696671  1
  O  O402  1  0.88144898  0.99559874  0.99240324  1
  O  O403  1  0.11611816  -0.00549357  0.01067703  1
  O  O404  1  0.13244639  0.00585088  0.51197342  1
  O  O405  1  0.11871866  0.49307948  0.01154904  1
  O  O406  1  0.12391399  0.49598382  0.51323368  1
  O  O407  1  0.62874700  0.01631860  -0.00058965  1
  O  O408  1  0.63261489  0.01050501  0.51366787  1
  O  O409  1  0.60244699  0.51769105  -0.00910085  1
  O  O410  1  0.61935710  0.50389794  0.50746201  1
  O  O411  1  0.37524837  0.36913911  0.11671118  1
  O  O412  1  0.36996898  0.37402113  0.61912301  1
  O  O413  1  0.36702079  0.86798401  0.11687840  1
  O  O414  1  0.37034311  0.87955918  0.62179111  1
  O  O415  1  0.88382861  0.36555882  0.11290696  1
  O  O416  1  0.86516915  0.36932189  0.61343521  1
  O  O417  1  0.86553711  0.88140854  0.11049914  1
  O  O418  1  0.86888780  0.86635878  0.61717654  1
  O  O419  1  0.13061141  0.13318864  0.38000718  1
  O  O420  1  0.13342247  0.12768436  0.87286267  1
  O  O421  1  0.12862304  0.63456831  0.37647622  1
  O  O422  1  0.13733537  0.62999082  0.87236607  1
  O  O423  1  0.63157943  0.12572551  0.38488527  1
  O  O424  1  0.63728099  0.13251708  0.88247375  1
  O  O425  1  0.63388365  0.61996226  0.38900095  1
  O  O426  1  0.62870050  0.63367315  0.88603244  1
