# generated using pymatgen
data_V85Zn86O256
_symmetry_space_group_name_H-M   'P 1'
_cell_length_a   16.96531783
_cell_length_b   16.96238404
_cell_length_c   16.96236730
_cell_angle_alpha   89.97754634
_cell_angle_beta   90.02117353
_cell_angle_gamma   89.99654837
_symmetry_Int_Tables_number   1
_chemical_formula_structural   V85Zn86O256
_chemical_formula_sum   'V85 Zn86 O256'
_cell_volume   4881.29765440
_cell_formula_units_Z   1
loop_
 _symmetry_equiv_pos_site_id
 _symmetry_equiv_pos_as_xyz
  1  'x, y, z'
loop_
 _atom_site_type_symbol
 _atom_site_label
 _atom_site_symmetry_multiplicity
 _atom_site_fract_x
 _atom_site_fract_y
 _atom_site_fract_z
 _atom_site_occupancy
  V  V0  1  0.87315428  0.12986151  0.25469202  1
  V  V1  1  0.37910796  0.36274761  0.49638492  1
  V  V2  1  0.86406860  0.37107739  0.00272330  1
  V  V3  1  0.50359418  0.75021204  0.24869374  1
  V  V4  1  -0.00307379  0.00187838  0.00809772  1
  V  V5  1  0.12810405  0.49887771  0.12440501  1
  V  V6  1  0.69110120  0.68052432  0.82384411  1
  V  V7  1  0.11972130  0.12710132  0.00376896  1
  V  V8  1  0.12336902  0.62106538  0.50155847  1
  V  V9  1  0.61758634  0.25679101  0.88075103  1
  V  V10  1  0.86956903  0.49621264  0.37507944  1
  V  V11  1  0.74958844  0.88003585  0.12435164  1
  V  V12  1  -0.00930702  0.62648353  0.62482944  1
  V  V13  1  0.37072359  0.48974668  0.86935984  1
  V  V14  1  0.74198477  0.74609056  -0.00057480  1
  V  V15  1  -0.00163811  0.49600168  0.50141173  1
  V  V16  1  0.87502925  0.74846643  0.12235169  1
  V  V17  1  0.49014568  0.25410196  0.24893305  1
  V  V18  1  0.25212901  0.12800022  0.87924481  1
  V  V19  1  0.12020075  0.00258108  0.12643424  1
  V  V20  1  0.87412012  0.87737498  0.00164203  1
  V  V21  1  0.37731913  0.74814716  0.62857945  1
  V  V22  1  0.87000572  0.62179582  0.24930453  1
  V  V23  1  0.24902415  -0.00236923  0.75120502  1
  V  V24  1  0.00339939  0.74600921  0.24812032  1
  V  V25  1  0.74453130  0.49782354  0.75468599  1
  V  V26  1  0.75331638  0.49332987  0.24317977  1
  V  V27  1  0.74684157  0.37153673  0.62600109  1
  V  V28  1  0.62508577  0.24198909  0.37648744  1
  V  V29  1  0.25046469  0.74967122  -0.00283146  1
  V  V30  1  0.25619322  0.49781554  0.25533663  1
  V  V31  1  0.37590736  -0.00014077  0.87363692  1
  V  V32  1  0.63047112  0.37043972  0.25108293  1
  V  V33  1  0.50201934  0.62233474  0.12054998  1
  V  V34  1  0.74672960  0.88363390  0.63080810  1
  V  V35  1  0.37763341  -0.00997361  0.37551235  1
  V  V36  1  0.12024833  0.00410595  0.63034536  1
  V  V37  1  0.25948869  0.37034270  0.12688132  1
  V  V38  1  0.86716232  0.00699945  0.86830781  1
  V  V39  1  0.87269068  0.36621976  0.50213069  1
  V  V40  1  0.50124703  0.00055782  0.00344232  1
  V  V41  1  0.12475592  0.24819644  0.37778780  1
  V  V42  1  0.12389408  0.38100000  0.74899990  1
  V  V43  1  0.25787743  0.37578124  0.63136554  1
  V  V44  1  0.49781374  0.25477021  0.73891528  1
  V  V45  1  0.37708122  0.62105653  0.24951281  1
  V  V46  1  0.85638893  0.24944737  0.11632730  1
  V  V47  1  0.25148926  0.75404055  0.50262354  1
  V  V48  1  0.49930164  0.49195199  -0.00664361  1
  V  V49  1  0.00260542  0.62306628  0.12477269  1
  V  V50  1  0.74395359  0.23582698  0.49976541  1
  V  V51  1  0.00215109  0.87918772  0.87123385  1
  V  V52  1  0.74937189  0.00765290  0.26112434  1
  V  V53  1  0.49190985  0.13281555  0.12410391  1
  V  V54  1  0.62837727  0.49326597  0.12171420  1
  V  V55  1  0.12584963  0.37429425  0.25022349  1
  V  V56  1  0.24731710  0.87519632  0.62909365  1
  V  V57  1  0.63448446  0.12776970  0.00412105  1
  V  V58  1  0.62461738  0.50997955  0.60727338  1
  V  V59  1  0.12585747  0.62445483  -0.00303740  1
  V  V60  1  0.62764352  0.87447443  0.25353196  1
  V  V61  1  -0.00561034  0.75332526  0.74672464  1
  V  V62  1  -0.00003146  0.36671263  0.37557334  1
  V  V63  1  0.24808561  0.00184563  0.24975654  1
  V  V64  1  0.00071231  0.24536341  0.23632546  1
  V  V65  1  0.51205211  0.86859050  0.86499854  1
  V  V66  1  0.25098126  0.12362943  0.38213617  1
  V  V67  1  0.76421586  0.73913514  0.49930433  1
  V  V68  1  0.87228108  0.23307271  0.63641030  1
  V  V69  1  0.60714869  0.10695901  0.50350318  1
  V  V70  1  0.37502583  0.13482303  0.74004261  1
  V  V71  1  0.12533950  0.87456718  0.25136070  1
  V  V72  1  0.37714578  0.87317205  -0.00114242  1
  V  V73  1  0.87103021  0.50644422  0.87674549  1
  V  V74  1  0.11779341  0.12468402  0.50660478  1
  V  V75  1  0.43433484  0.55700798  0.43663627  1
  V  V76  1  0.63707239  0.73300559  0.37660669  1
  V  V77  1  -0.00155561  0.37400323  0.87591473  1
  V  V78  1  0.37623483  0.74813963  0.12315690  1
  V  V79  1  0.25705250  0.24852528  0.00743882  1
  V  V80  1  0.37091635  0.62202908  0.75244207  1
  V  V81  1  0.12578841  0.75463983  0.86808939  1
  V  V82  1  0.25055908  0.61940125  0.37857095  1
  V  V83  1  0.74569806  0.12723999  0.85637077  1
  V  V84  1  0.12715857  0.74844219  0.37408708  1
  Zn  Zn85  1  0.12415601  0.49999489  0.63032188  1
  Zn  Zn86  1  0.37157302  0.12859307  0.24762859  1
  Zn  Zn87  1  0.38098851  0.36841295  -0.00022807  1
  Zn  Zn88  1  -0.00678738  -0.00720550  0.50857537  1
  Zn  Zn89  1  0.50552704  0.74850792  0.75173442  1
  Zn  Zn90  1  0.00383739  0.23937864  0.74060148  1
  Zn  Zn91  1  -0.00124032  0.49904727  0.00014992  1
  Zn  Zn92  1  0.50002275  0.38111679  0.37928295  1
  Zn  Zn93  1  0.87022798  0.62831807  0.74975837  1
  Zn  Zn94  1  -0.00374576  0.87265794  0.38866185  1
  Zn  Zn95  1  0.87580739  -0.00639043  0.38382847  1
  Zn  Zn96  1  0.50011685  0.62142001  0.62010218  1
  Zn  Zn97  1  0.91132548  0.81553486  0.56000320  1
  Zn  Zn98  1  0.12601176  0.25215210  0.87357002  1
  Zn  Zn99  1  0.24675263  0.61952585  0.86789143  1
  Zn  Zn100  1  0.25156515  0.87495126  0.12261183  1
  Zn  Zn101  1  0.62907903  0.62244987  -0.00369662  1
  Zn  Zn102  1  0.62339262  0.00283473  0.12878911  1
  Zn  Zn103  1  0.50940996  0.88322507  0.37633323  1
  Zn  Zn104  1  0.61791412  0.37745474  0.75103273  1
  Zn  Zn105  1  0.42788915  0.91666989  0.54654364  1
  Zn  Zn106  1  0.25191511  0.24525949  0.50905086  1
  Zn  Zn107  1  0.18530290  0.18575431  0.18866842  1
  Zn  Zn108  1  0.18915910  0.19327388  0.68997555  1
  Zn  Zn109  1  0.19228598  0.68538703  0.18557582  1
  Zn  Zn110  1  0.18413190  0.68354961  0.68932084  1
  Zn  Zn111  1  0.68305336  0.18644870  0.18687726  1
  Zn  Zn112  1  0.67214747  0.17817774  0.68272323  1
  Zn  Zn113  1  0.68946657  0.68505770  0.18461426  1
  Zn  Zn114  1  0.67229651  0.71740307  0.65225898  1
  Zn  Zn115  1  0.31255946  0.31357564  0.32065033  1
  Zn  Zn116  1  0.30874445  0.31314567  0.81272755  1
  Zn  Zn117  1  0.31057616  0.80962213  0.30985507  1
  Zn  Zn118  1  0.31655075  0.81329769  0.81157773  1
  Zn  Zn119  1  0.81146695  0.30594062  0.31362664  1
  Zn  Zn120  1  0.80688821  0.31265420  0.81676998  1
  Zn  Zn121  1  0.81371388  0.81255115  0.31339760  1
  Zn  Zn122  1  0.81693760  0.82148355  0.80964896  1
  Zn  Zn123  1  0.19109047  0.43488198  0.44293296  1
  Zn  Zn124  1  0.18986586  0.43575646  0.93722958  1
  Zn  Zn125  1  0.18519202  0.93882926  0.44036356  1
  Zn  Zn126  1  0.18709171  0.93691576  0.93814921  1
  Zn  Zn127  1  0.69054534  0.43013941  0.43442229  1
  Zn  Zn128  1  0.68822179  0.43611764  0.93745495  1
  Zn  Zn129  1  0.69389164  0.93010456  0.44429238  1
  Zn  Zn130  1  0.68656395  0.94212461  0.93573867  1
  Zn  Zn131  1  0.31277330  0.06187152  0.06417921  1
  Zn  Zn132  1  0.33859230  0.05300013  0.57407105  1
  Zn  Zn133  1  0.31335837  0.55965301  0.05878580  1
  Zn  Zn134  1  0.30588603  0.56084393  0.57173205  1
  Zn  Zn135  1  0.81740743  0.06579132  0.06900711  1
  Zn  Zn136  1  0.80144106  0.05298986  0.56886882  1
  Zn  Zn137  1  0.81175646  0.56070183  0.06095094  1
  Zn  Zn138  1  0.80834123  0.56244215  0.56107840  1
  Zn  Zn139  1  0.44093933  0.43647377  0.18732033  1
  Zn  Zn140  1  0.44094920  0.43704118  0.68390449  1
  Zn  Zn141  1  0.43660118  0.93735820  0.18875012  1
  Zn  Zn142  1  0.53882160  1.01455524  0.65964900  1
  Zn  Zn143  1  0.93938177  0.43173994  0.18282638  1
  Zn  Zn144  1  0.93428518  0.43573289  0.68997251  1
  Zn  Zn145  1  0.92494703  0.92515617  0.21660358  1
  Zn  Zn146  1  0.93369369  0.94242725  0.69147447  1
  Zn  Zn147  1  0.05505121  0.06380935  0.31970213  1
  Zn  Zn148  1  0.06472906  0.06251576  0.81457733  1
  Zn  Zn149  1  0.06185861  0.55769516  0.31377748  1
  Zn  Zn150  1  0.05808772  0.56211831  0.81245068  1
  Zn  Zn151  1  0.56096037  0.06588785  0.31258021  1
  Zn  Zn152  1  0.55957085  0.06679321  0.81971562  1
  Zn  Zn153  1  0.56785903  0.56264865  0.30443033  1
  Zn  Zn154  1  0.55214288  0.55656008  0.80574702  1
  Zn  Zn155  1  0.43683188  0.18643565  0.43013917  1
  Zn  Zn156  1  0.43961743  0.18883888  0.93786617  1
  Zn  Zn157  1  0.45481023  0.73558829  0.45442757  1
  Zn  Zn158  1  0.44006511  0.68298369  0.93440232  1
  Zn  Zn159  1  0.90967104  0.14931075  0.46458129  1
  Zn  Zn160  1  0.95014813  0.17179497  0.90211209  1
  Zn  Zn161  1  0.94083907  0.68010459  0.42857020  1
  Zn  Zn162  1  0.93763559  0.68966111  0.93715196  1
  Zn  Zn163  1  0.06333907  0.31557608  0.05675745  1
  Zn  Zn164  1  0.06096620  0.30725654  0.56698066  1
  Zn  Zn165  1  0.06361310  0.81492817  0.06135835  1
  Zn  Zn166  1  0.07572950  0.81404586  0.56690536  1
  Zn  Zn167  1  0.56532345  0.31238374  0.06446669  1
  Zn  Zn168  1  0.56263593  0.31403467  0.56270007  1
  Zn  Zn169  1  0.56379480  0.81501478  0.06181723  1
  Zn  Zn170  1  0.57150801  0.81011136  0.55610927  1
  O  O171  1  0.12697537  0.11105685  0.11929186  1
  O  O172  1  0.13778909  0.11690557  0.61821289  1
  O  O173  1  0.12298130  0.61939471  0.11782273  1
  O  O174  1  0.11328656  0.62231054  0.61825738  1
  O  O175  1  0.61153851  0.12390654  0.11952266  1
  O  O176  1  0.61335529  0.11791511  0.60689003  1
  O  O177  1  0.61992545  0.61078875  0.12570728  1
  O  O178  1  0.62494170  0.61422866  0.62027828  1
  O  O179  1  0.37631858  0.37881832  0.39185991  1
  O  O180  1  0.37081777  0.38638037  0.87848500  1
  O  O181  1  0.37590177  0.88660673  0.36337871  1
  O  O182  1  0.38171313  0.88507696  0.88027263  1
  O  O183  1  0.88231544  0.37549745  0.37996724  1
  O  O184  1  0.87977189  0.38099656  0.88172601  1
  O  O185  1  0.89338525  0.88682281  0.33253541  1
  O  O186  1  0.87980218  0.88515708  0.88447059  1
  O  O187  1  0.25147004  0.00329679  0.36408514  1
  O  O188  1  0.25612085  0.00515068  0.87208000  1
  O  O189  1  0.24377410  0.50535160  0.36528272  1
  O  O190  1  0.26657451  0.50233371  0.88167386  1
  O  O191  1  0.75578899  -0.00786562  0.36323965  1
  O  O192  1  0.75380003  0.01454678  0.87977814  1
  O  O193  1  0.76330449  0.48997089  0.36259455  1
  O  O194  1  0.75716899  0.49521754  0.86662132  1
  O  O195  1  0.24503468  0.49421348  0.13204760  1
  O  O196  1  0.24070727  0.48213856  0.62037677  1
  O  O197  1  0.24310043  0.99990661  0.13644560  1
  O  O198  1  0.25079551  0.99255582  0.63438584  1
  O  O199  1  0.74433033  0.49897642  0.13478193  1
  O  O200  1  0.74119819  0.49481131  0.63103273  1
  O  O201  1  0.74895712  0.98900076  0.12973297  1
  O  O202  1  0.73002637  0.98220211  0.61746341  1
  O  O203  1  0.00779463  0.37009360  0.25653652  1
  O  O204  1  0.00426768  0.37075135  0.75806949  1
  O  O205  1  0.01915127  0.86287055  0.23692789  1
  O  O206  1  -0.00442546  0.87029658  0.76357831  1
  O  O207  1  0.51006092  0.37034671  0.25203326  1
  O  O208  1  0.49900822  0.36039765  0.74939652  1
  O  O209  1  0.51099231  0.86852355  0.24818942  1
  O  O210  1  0.50072797  0.86915407  0.76601004  1
  O  O211  1  0.49865268  0.13554663  0.24175708  1
  O  O212  1  0.48101842  0.13595873  0.75686948  1
  O  O213  1  0.49468258  0.62756549  0.24011938  1
  O  O214  1  0.48582421  0.62912311  0.74659674  1
  O  O215  1  0.99214608  0.13673115  0.25241950  1
  O  O216  1  0.99167448  0.14218802  0.79608351  1
  O  O217  1  0.99470790  0.62706207  0.24411770  1
  O  O218  1  0.99949856  0.63353678  0.74049332  1
  O  O219  1  0.36214437  0.24976964  -0.00169940  1
  O  O220  1  0.37199830  0.25926739  0.49557718  1
  O  O221  1  0.37058314  0.75214088  0.00311163  1
  O  O222  1  0.35646050  0.73876339  0.51013020  1
  O  O223  1  0.87770104  0.25614871  0.01372116  1
  O  O224  1  0.86212368  0.24607588  0.51176800  1
  O  O225  1  0.86720116  0.75625323  0.00444018  1
  O  O226  1  0.86805804  0.75334111  0.47515593  1
  O  O227  1  0.12883491  0.24338545  0.49529157  1
  O  O228  1  0.13467004  0.24040894  1.00165224  1
  O  O229  1  0.13343331  0.73968034  0.49560823  1
  O  O230  1  0.12910361  0.74398655  0.99127879  1
  O  O231  1  0.62740324  0.24802108  0.49266654  1
  O  O232  1  0.61904684  0.24338921  0.98901251  1
  O  O233  1  0.63928401  0.74292518  0.48194654  1
  O  O234  1  0.63798195  0.74846507  1.00411360  1
  O  O235  1  0.50352004  0.24416824  0.13453026  1
  O  O236  1  0.50249284  0.25035303  0.63998553  1
  O  O237  1  0.49739895  0.74233642  0.12833766  1
  O  O238  1  0.49014658  0.74336245  0.62511898  1
  O  O239  1  1.00260155  0.25616856  0.13546988  1
  O  O240  1  0.97785524  0.25024073  0.62564839  1
  O  O241  1  0.99658669  0.74272282  0.12768934  1
  O  O242  1  0.99742950  0.74700345  0.63105934  1
  O  O243  1  0.00466094  0.26159776  0.36569442  1
  O  O244  1  0.00609489  0.27005683  0.88801280  1
  O  O245  1  0.01041601  0.75020879  0.36421321  1
  O  O246  1  0.00669514  0.75865637  0.87161726  1
  O  O247  1  0.50721684  0.25450269  0.36548703  1
  O  O248  1  0.51365901  0.24540356  0.87031478  1
  O  O249  1  0.52023493  0.74854962  0.36203930  1
  O  O250  1  0.49716563  0.76417572  0.87726760  1
  O  O251  1  0.24675404  0.12354722  0.48900183  1
  O  O252  1  0.24282007  0.12967888  0.99967053  1
  O  O253  1  0.24108939  0.62700933  0.49639647  1
  O  O254  1  0.23864159  0.63072544  0.99864058  1
  O  O255  1  0.73403517  0.13367987  0.50467950  1
  O  O256  1  0.73464789  0.12086246  1.00847164  1
  O  O257  1  0.76004359  0.63799978  0.49078760  1
  O  O258  1  0.74863862  0.63732285  1.00473941  1
  O  O259  1  0.24944382  0.36512182  0.01054059  1
  O  O260  1  0.26235182  0.37224036  0.50752983  1
  O  O261  1  0.25868892  0.86812470  -0.00035057  1
  O  O262  1  0.24129180  0.86300621  0.50919865  1
  O  O263  1  0.76439304  0.37481676  -0.00284261  1
  O  O264  1  0.75496952  0.36392498  0.50742878  1
  O  O265  1  0.75396571  0.87088860  0.00687727  1
  O  O266  1  0.75005546  0.85796647  0.50957335  1
  O  O267  1  0.13586291  0.49541240  0.24479599  1
  O  O268  1  0.11898565  0.48649397  0.75074711  1
  O  O269  1  0.12698122  0.99403582  0.24494493  1
  O  O270  1  0.14098998  1.01006641  0.74685333  1
  O  O271  1  0.63485827  0.49131080  0.24386709  1
  O  O272  1  0.63482620  0.49863342  0.74746389  1
  O  O273  1  0.63183670  0.99447603  0.24994592  1
  O  O274  1  0.60619767  1.01059022  0.74034317  1
  O  O275  1  0.36248087  0.00129916  0.25473174  1
  O  O276  1  0.36432589  0.01926925  0.76529040  1
  O  O277  1  0.36383397  0.50406916  0.24489396  1
  O  O278  1  0.38150422  0.50327527  0.76262146  1
  O  O279  1  0.86441125  0.01764182  0.24177603  1
  O  O280  1  0.88002215  0.00440384  0.77010494  1
  O  O281  1  0.86977532  0.49933747  0.25121065  1
  O  O282  1  0.86126896  0.50263421  0.75637064  1
  O  O283  1  0.11951136  0.36994197  0.37091370  1
  O  O284  1  0.11820163  0.37727903  0.86904284  1
  O  O285  1  0.12486969  0.86746898  0.36590718  1
  O  O286  1  0.11457857  0.86654260  0.88195751  1
  O  O287  1  0.62030748  0.36715081  0.36717216  1
  O  O288  1  0.62939104  0.35925503  0.87275606  1
  O  O289  1  0.62829374  0.86916366  0.36210658  1
  O  O290  1  0.61023246  0.87891491  0.88156997  1
  O  O291  1  0.38699868  0.12219005  0.12771751  1
  O  O292  1  0.35911475  0.14203394  0.64302993  1
  O  O293  1  0.38140695  0.62858226  0.12779727  1
  O  O294  1  0.37370845  0.63056396  0.63262942  1
  O  O295  1  0.87424230  0.14336996  0.13260454  1
  O  O296  1  0.86237730  0.13492753  0.63159945  1
  O  O297  1  0.88338775  0.62681411  0.12971652  1
  O  O298  1  0.88754947  0.61762147  0.62707574  1
  O  O299  1  0.24523582  0.25827749  0.12108841  1
  O  O300  1  0.24555232  0.26998595  0.62351740  1
  O  O301  1  0.25755063  0.75054734  0.11581088  1
  O  O302  1  0.24841275  0.75457781  0.62096341  1
  O  O303  1  0.75772816  0.25170847  0.12564332  1
  O  O304  1  0.74978581  0.25516841  0.62114350  1
  O  O305  1  0.75510688  0.75937430  0.11841311  1
  O  O306  1  0.77226614  0.74151521  0.60312449  1
  O  O307  1  0.24272655  0.23961712  0.37560215  1
  O  O308  1  0.24722181  0.24300722  0.88553137  1
  O  O309  1  0.24688662  0.74201575  0.38254126  1
  O  O310  1  0.24173785  0.74962874  0.87942534  1
  O  O311  1  0.73902036  0.25547843  0.38753925  1
  O  O312  1  0.73441476  0.23669942  0.86984011  1
  O  O313  1  0.74209263  0.75288093  0.37549672  1
  O  O314  1  0.75028299  0.74751480  0.87912723  1
  O  O315  1  0.01295072  0.11708468  -0.00791933  1
  O  O316  1  0.01711446  0.12749459  0.50172864  1
  O  O317  1  0.01193642  0.62437609  0.00455679  1
  O  O318  1  0.00402727  0.61929499  0.50521815  1
  O  O319  1  0.50530630  0.11885961  0.00592018  1
  O  O320  1  0.50924280  0.12461520  0.49112297  1
  O  O321  1  0.50447492  0.61441861  0.00627929  1
  O  O322  1  0.48587218  0.62500771  0.49258744  1
  O  O323  1  0.48353498  0.37353317  0.50225176  1
  O  O324  1  0.49817070  0.38740137  1.00744383  1
  O  O325  1  0.49182716  0.84711643  0.48633163  1
  O  O326  1  0.49411125  0.88358222  0.99831566  1
  O  O327  1  0.99328198  0.37483538  0.49349883  1
  O  O328  1  0.99218440  0.38133693  0.99424211  1
  O  O329  1  0.99848571  0.87242537  0.50621061  1
  O  O330  1  0.99356302  0.88097228  0.99335483  1
  O  O331  1  0.49992480  0.50323824  0.37760104  1
  O  O332  1  0.48726505  0.50153007  0.88340300  1
  O  O333  1  0.48195203  0.99861560  0.36495095  1
  O  O334  1  0.49094607  0.99495204  0.88747610  1
  O  O335  1  0.99129142  0.48618664  0.37792704  1
  O  O336  1  0.99021551  0.49070733  0.87572164  1
  O  O337  1  0.99798578  0.99332561  0.38504610  1
  O  O338  1  0.99607703  0.99247926  0.88817888  1
  O  O339  1  0.00587902  -0.00640179  0.11282727  1
  O  O340  1  0.01716227  -0.00236380  0.63222072  1
  O  O341  1  0.01035221  0.50546237  0.12530682  1
  O  O342  1  -0.00018116  0.50516711  0.61758389  1
  O  O343  1  0.49864552  0.00561499  0.11522025  1
  O  O344  1  0.44503128  0.00545009  0.60917364  1
  O  O345  1  0.50788994  0.50498095  0.11941150  1
  O  O346  1  0.52000549  0.50137796  0.62685930  1
  O  O347  1  0.24685840  0.38020511  0.24692693  1
  O  O348  1  0.24379542  0.37382772  0.73924567  1
  O  O349  1  0.23912043  0.88083285  0.24717034  1
  O  O350  1  0.25774479  0.88798516  0.74503948  1
  O  O351  1  0.73912015  0.37831241  0.25251883  1
  O  O352  1  0.74502655  0.38243549  0.74276666  1
  O  O353  1  0.74396429  0.88153536  0.24052665  1
  O  O354  1  0.75368627  0.86803583  0.73158657  1
  O  O355  1  0.24792507  0.11701834  0.25961238  1
  O  O356  1  0.25762308  0.12640496  0.76281530  1
  O  O357  1  0.25735847  0.61749597  0.25727079  1
  O  O358  1  0.26294615  0.62632628  0.75002582  1
  O  O359  1  0.75412229  0.11647586  0.24372054  1
  O  O360  1  0.74340388  0.12545551  0.75842373  1
  O  O361  1  0.76414518  0.61392231  0.24216414  1
  O  O362  1  0.74886788  0.62307233  0.75849562  1
  O  O363  1  0.36578629  0.11414736  0.36945390  1
  O  O364  1  0.36418496  0.11831767  0.88088561  1
  O  O365  1  0.37339092  0.61628516  0.37310096  1
  O  O366  1  0.37173418  0.61519146  0.86852536  1
  O  O367  1  0.87187329  0.13579430  0.35614669  1
  O  O368  1  0.84947516  0.12105285  0.88771000  1
  O  O369  1  0.88427394  0.60739153  0.35978396  1
  O  O370  1  0.88268432  0.60959537  0.87517841  1
  O  O371  1  0.13412275  0.38142916  0.13117077  1
  O  O372  1  0.12923961  0.37629443  0.63258114  1
  O  O373  1  0.13033806  0.88692145  0.12738025  1
  O  O374  1  0.13975530  0.88515871  0.63034286  1
  O  O375  1  0.62246041  0.38607653  0.13362560  1
  O  O376  1  0.63508130  0.38379027  0.62532756  1
  O  O377  1  0.63311854  0.87675262  0.13473764  1
  O  O378  1  0.64771674  0.83467886  0.63044175  1
  O  O379  1  0.11789503  0.25375605  0.25635711  1
  O  O380  1  0.12145040  0.26264737  0.75393287  1
  O  O381  1  0.12656259  0.75523396  0.25276435  1
  O  O382  1  0.11444082  0.74559653  0.76268317  1
  O  O383  1  0.61942713  0.25578358  0.25648526  1
  O  O384  1  0.61007204  0.24698823  0.75790002  1
  O  O385  1  0.62649327  0.75655694  0.25274355  1
  O  O386  1  0.62948370  0.73126642  0.76123282  1
  O  O387  1  0.38659353  0.25188374  0.25586727  1
  O  O388  1  0.38464506  0.24222416  0.76266463  1
  O  O389  1  0.38060868  0.74151487  0.24414268  1
  O  O390  1  0.37609418  0.74171569  0.74360299  1
  O  O391  1  0.88109857  0.25019852  0.23785447  1
  O  O392  1  0.86924534  0.25662229  0.73656252  1
  O  O393  1  0.87953735  0.73707392  0.24213994  1
  O  O394  1  0.89086977  0.74512546  0.76120715  1
  O  O395  1  0.37690647  0.49940433  0.49796713  1
  O  O396  1  0.38318354  0.49779741  0.99010807  1
  O  O397  1  0.35966620  0.99180289  0.47703383  1
  O  O398  1  0.37907154  0.99541497  0.99265297  1
  O  O399  1  0.87747636  0.49097139  0.49023236  1
  O  O400  1  0.87553196  0.49193225  0.99379622  1
  O  O401  1  0.88259568  1.03573276  0.49295627  1
  O  O402  1  0.88204773  0.99768338  0.99851400  1
  O  O403  1  0.12035929  0.00547216  0.00825834  1
  O  O404  1  0.12650182  0.00797363  0.51292137  1
  O  O405  1  0.12576560  0.50866046  0.00530505  1
  O  O406  1  0.11556604  0.50667887  0.49768544  1
  O  O407  1  0.61513394  0.00835710  0.00407172  1
  O  O408  1  0.61921737  0.00833679  0.48443655  1
  O  O409  1  0.61997647  0.49884762  0.00630692  1
  O  O410  1  0.63354827  0.49809770  0.50905842  1
  O  O411  1  0.36221028  0.37953840  0.12350409  1
  O  O412  1  0.36525777  0.38185610  0.61489566  1
  O  O413  1  0.37414723  0.86697310  0.11826821  1
  O  O414  1  0.35982882  0.85474411  0.62135567  1
  O  O415  1  0.87865396  0.36204482  0.11640040  1
  O  O416  1  0.86074190  0.37357490  0.61898407  1
  O  O417  1  0.86739384  0.86845952  0.12425017  1
  O  O418  1  0.86038120  0.88883704  0.62484542  1
  O  O419  1  0.13156790  0.12897644  0.38302009  1
  O  O420  1  0.14038883  0.12268075  0.88798606  1
  O  O421  1  0.12894868  0.62911641  0.38046142  1
  O  O422  1  0.12508256  0.63137604  0.88169037  1
  O  O423  1  0.62220561  0.13703718  0.38050914  1
  O  O424  1  0.63223149  0.13174992  0.88513110  1
  O  O425  1  0.63401920  0.63539476  0.36182249  1
  O  O426  1  0.62758870  0.61989842  0.87609362  1
