# generated using pymatgen
data_V85Zn86O256
_symmetry_space_group_name_H-M   'P 1'
_cell_length_a   16.91745171
_cell_length_b   16.91813645
_cell_length_c   16.91734251
_cell_angle_alpha   89.95543808
_cell_angle_beta   90.07920572
_cell_angle_gamma   89.98392213
_symmetry_Int_Tables_number   1
_chemical_formula_structural   V85Zn86O256
_chemical_formula_sum   'V85 Zn86 O256'
_cell_volume   4841.93603061
_cell_formula_units_Z   1
loop_
 _symmetry_equiv_pos_site_id
 _symmetry_equiv_pos_as_xyz
  1  'x, y, z'
loop_
 _atom_site_type_symbol
 _atom_site_label
 _atom_site_symmetry_multiplicity
 _atom_site_fract_x
 _atom_site_fract_y
 _atom_site_fract_z
 _atom_site_occupancy
  V  V0  1  0.48650614  0.75087384  0.24803711  1
  V  V1  1  0.12507906  0.50089045  0.62229979  1
  V  V2  1  0.37575823  0.62754535  0.75159204  1
  V  V3  1  0.74630579  0.11998512  0.37170229  1
  V  V4  1  0.62386857  0.11949598  -0.00345919  1
  V  V5  1  -0.00194401  0.49804909  0.49840432  1
  V  V6  1  0.38597103  0.00300981  0.88025135  1
  V  V7  1  0.24430884  0.13065381  0.37306067  1
  V  V8  1  0.00546909  0.24599584  0.25442800  1
  V  V9  1  0.00048333  0.88689175  0.88179714  1
  V  V10  1  0.24970114  0.75086360  0.49852632  1
  V  V11  1  -0.00402962  0.38090845  0.87353874  1
  V  V12  1  -0.00105736  0.62565679  0.12353418  1
  V  V13  1  0.87508217  0.49641362  0.37369203  1
  V  V14  1  0.62344710  0.63344394  0.00121031  1
  V  V15  1  0.38096122  0.14054020  0.24813375  1
  V  V16  1  0.37504115  0.87955762  0.49994282  1
  V  V17  1  0.24511543  0.88360790  0.12123508  1
  V  V18  1  0.12565697  0.74868764  0.37082242  1
  V  V19  1  0.74814107  0.36919724  0.62326651  1
  V  V20  1  0.49927224  0.37517410  0.87416985  1
  V  V21  1  0.87397280  0.37569362  -0.00454725  1
  V  V22  1  0.87618150  0.87264033  0.50828724  1
  V  V23  1  0.00275935  0.49849310  -0.00070822  1
  V  V24  1  0.87495497  0.62312428  0.24542320  1
  V  V25  1  0.51752228  0.75374106  0.75330603  1
  V  V26  1  0.62431120  0.74999782  0.37182131  1
  V  V27  1  0.25435994  0.37015475  0.12625465  1
  V  V28  1  -0.00108234  0.24909975  0.74902516  1
  V  V29  1  0.21682494  0.10034993  0.89187333  1
  V  V30  1  0.12599494  0.37300939  0.25783465  1
  V  V31  1  0.26538157  0.62521233  0.37082620  1
  V  V32  1  -0.00770990  0.63641437  0.62161539  1
  V  V33  1  0.87848553  0.24509583  0.12635794  1
  V  V34  1  -0.00003599  0.75023654  0.24694482  1
  V  V35  1  0.87130914  0.12063718  0.76809410  1
  V  V36  1  0.38401421  0.87253887  0.00419146  1
  V  V37  1  0.25131329  0.50207731  0.74982339  1
  V  V38  1  0.12163348  0.12999131  0.49672772  1
  V  V39  1  0.37446282  0.00403663  0.37156282  1
  V  V40  1  0.87400610  0.60953002  0.75679894  1
  V  V41  1  0.12278893  0.63237026  -0.00437547  1
  V  V42  1  0.74887962  0.37313140  0.12448455  1
  V  V43  1  0.24633473  0.63379434  0.87265161  1
  V  V44  1  0.62482651  0.24903618  0.37490623  1
  V  V45  1  0.01719866  0.11224833  0.11487905  1
  V  V46  1  0.75002183  -0.00292331  0.76375517  1
  V  V47  1  -0.00014819  0.87763023  0.37303924  1
  V  V48  1  0.75440958  0.74972314  0.50559438  1
  V  V49  1  0.63048717  0.37982320  0.75384635  1
  V  V50  1  0.48542748  0.62471298  0.13109432  1
  V  V51  1  0.24647144  0.87480936  0.62617627  1
  V  V52  1  0.63411413  0.88023078  0.25371604  1
  V  V53  1  -0.00451681  0.74951082  0.76449626  1
  V  V54  1  0.49788755  0.13731145  0.12305777  1
  V  V55  1  0.12791497  0.25516850  0.87723988  1
  V  V56  1  -0.00556695  0.12231777  0.62667093  1
  V  V57  1  0.12738753  0.50052193  0.12653383  1
  V  V58  1  0.12582801  0.37699348  0.74826691  1
  V  V59  1  0.75014792  0.62345269  0.37343599  1
  V  V60  1  0.62604983  0.62361480  0.49944572  1
  V  V61  1  0.50160850  0.62427337  0.62617545  1
  V  V62  1  0.74991107  0.24411700  -0.00918191  1
  V  V63  1  0.37489076  0.75104522  0.62792726  1
  V  V64  1  0.74373271  0.87854836  0.62931135  1
  V  V65  1  0.49317990  0.37807495  0.37380463  1
  V  V66  1  0.86560510  0.74930419  0.12061009  1
  V  V67  1  0.63073810  0.50256684  0.62979017  1
  V  V68  1  0.87182344  0.88680144  -0.00442585  1
  V  V69  1  0.24948999  0.25142705  0.50389184  1
  V  V70  1  0.87196981  0.11515425  0.24814538  1
  V  V71  1  0.25592392  0.74776607  0.00623810  1
  V  V72  1  0.37626775  0.37219286  0.00216055  1
  V  V73  1  0.62169002  0.36794523  0.24966471  1
  V  V74  1  0.25176784  0.24523049  0.00075181  1
  V  V75  1  0.51401409  0.87101964  0.87608704  1
  V  V76  1  0.50178990  0.24220263  0.74411617  1
  V  V77  1  0.86894654  0.36583106  0.49796172  1
  V  V78  1  0.25160536  -0.00212750  0.75143944  1
  V  V79  1  0.26201759  0.50500257  0.25284578  1
  V  V80  1  0.49867610  0.00874084  0.51031889  1
  V  V81  1  0.62102512  0.00083265  0.12942690  1
  V  V82  1  0.75153943  0.49707985  0.24647023  1
  V  V83  1  -0.00164378  0.00013276  0.49985953  1
  V  V84  1  0.62814726  0.13096120  0.51058944  1
  Zn  Zn85  1  0.49413789  0.50296330  0.49495842  1
  Zn  Zn86  1  0.62736420  0.24657912  0.87519449  1
  Zn  Zn87  1  0.37335569  0.38069681  0.50202418  1
  Zn  Zn88  1  0.00312463  0.36753220  0.37805362  1
  Zn  Zn89  1  0.86641393  -0.00503686  0.37085379  1
  Zn  Zn90  1  0.74052372  0.75609368  -0.01855091  1
  Zn  Zn91  1  0.38120440  0.24599063  0.62111667  1
  Zn  Zn92  1  0.11899739  0.88397669  0.23652532  1
  Zn  Zn93  1  0.86807094  0.24427284  0.62201082  1
  Zn  Zn94  1  0.74233761  0.61900488  0.86462544  1
  Zn  Zn95  1  0.37290891  0.12524627  0.75024219  1
  Zn  Zn96  1  0.12671096  0.86671617  0.75952973  1
  Zn  Zn97  1  0.61962025  0.50146663  0.12658665  1
  Zn  Zn98  1  0.24742414  0.00797989  0.23919351  1
  Zn  Zn99  1  0.62226315  0.00062011  0.63180976  1
  Zn  Zn100  1  0.12251493  -0.00082334  0.62929654  1
  Zn  Zn101  1  0.37457925  0.50102231  0.87579193  1
  Zn  Zn102  1  0.25539353  0.37504971  0.62540931  1
  Zn  Zn103  1  0.12530190  0.62468790  0.49683016  1
  Zn  Zn104  1  0.75202510  0.88406884  0.12876687  1
  Zn  Zn105  1  0.49841445  0.50160044  0.00282868  1
  Zn  Zn106  1  0.49941660  0.87789873  0.37484983  1
  Zn  Zn107  1  0.18938776  0.18870544  0.18722512  1
  Zn  Zn108  1  0.18785112  0.18247797  0.69055970  1
  Zn  Zn109  1  0.19072137  0.69058144  0.18619205  1
  Zn  Zn110  1  0.18038093  0.68872194  0.68721546  1
  Zn  Zn111  1  0.68816621  0.18664563  0.18623108  1
  Zn  Zn112  1  0.68956213  0.18767319  0.69354064  1
  Zn  Zn113  1  0.68249018  0.68574067  0.18376867  1
  Zn  Zn114  1  0.69706266  0.68603328  0.68826434  1
  Zn  Zn115  1  0.30863219  0.31116766  0.31545541  1
  Zn  Zn116  1  0.31361988  0.31084787  0.81336870  1
  Zn  Zn117  1  0.30956898  0.81869096  0.31096891  1
  Zn  Zn118  1  0.31844479  0.81330472  0.81705102  1
  Zn  Zn119  1  0.81028487  0.30460716  0.31394636  1
  Zn  Zn120  1  0.81334671  0.31289374  0.80932457  1
  Zn  Zn121  1  0.81409431  0.81009601  0.31450186  1
  Zn  Zn122  1  0.81377461  0.80457544  0.81068671  1
  Zn  Zn123  1  0.19119033  0.44044501  0.43647015  1
  Zn  Zn124  1  0.19023142  0.44113207  0.93708890  1
  Zn  Zn125  1  0.18451726  0.94365920  0.43286878  1
  Zn  Zn126  1  0.18827622  0.93014854  0.93594832  1
  Zn  Zn127  1  0.68520838  0.43767603  0.43850926  1
  Zn  Zn128  1  0.68214585  0.44554663  0.93691306  1
  Zn  Zn129  1  0.68508926  0.94046788  0.44050351  1
  Zn  Zn130  1  0.68848929  0.94120676  0.94514262  1
  Zn  Zn131  1  0.32093859  0.06158781  0.06060321  1
  Zn  Zn132  1  0.31340519  0.06749889  0.56630799  1
  Zn  Zn133  1  0.31278772  0.55880067  0.06202643  1
  Zn  Zn134  1  0.31417410  0.56232950  0.55858090  1
  Zn  Zn135  1  0.80645943  0.06176344  0.06774324  1
  Zn  Zn136  1  0.80953313  0.05939084  0.56047945  1
  Zn  Zn137  1  0.79380148  0.54508655  0.02489306  1
  Zn  Zn138  1  0.81318765  0.55855188  0.56593047  1
  Zn  Zn139  1  0.43740102  0.43305366  0.18978466  1
  Zn  Zn140  1  0.43861282  0.43558926  0.68325728  1
  Zn  Zn141  1  0.43935151  0.94092569  0.18657608  1
  Zn  Zn142  1  0.43763821  0.93599190  0.69127353  1
  Zn  Zn143  1  0.93926150  0.43412376  0.18469838  1
  Zn  Zn144  1  0.93783493  0.43627606  0.68141828  1
  Zn  Zn145  1  0.93884615  0.93808749  0.18131591  1
  Zn  Zn146  1  0.93291949  0.93628408  0.69158195  1
  Zn  Zn147  1  0.06369444  0.06082330  0.30742158  1
  Zn  Zn148  1  0.06276913  0.05674090  0.81642102  1
  Zn  Zn149  1  0.06635315  0.56126395  0.31168382  1
  Zn  Zn150  1  0.06074267  0.56469844  0.81140346  1
  Zn  Zn151  1  0.55774846  0.06312568  0.31433023  1
  Zn  Zn152  1  0.56768255  0.05936008  0.81394375  1
  Zn  Zn153  1  0.56140948  0.55996759  0.30689082  1
  Zn  Zn154  1  0.56149444  0.56172679  0.81530544  1
  Zn  Zn155  1  0.44034352  0.19223301  0.43664991  1
  Zn  Zn156  1  0.43930044  0.18923229  0.93707818  1
  Zn  Zn157  1  0.43943793  0.69039363  0.43939791  1
  Zn  Zn158  1  0.43968338  0.68922296  0.93795290  1
  Zn  Zn159  1  0.93454391  0.18506390  0.43403667  1
  Zn  Zn160  1  0.94345207  0.19031575  0.94054139  1
  Zn  Zn161  1  0.93649003  0.68742718  0.43540281  1
  Zn  Zn162  1  0.92936024  0.68917614  0.93748924  1
  Zn  Zn163  1  0.06596955  0.30756150  0.06543575  1
  Zn  Zn164  1  0.06162159  0.31058311  0.56304067  1
  Zn  Zn165  1  0.06074397  0.81265832  0.05755494  1
  Zn  Zn166  1  0.06541363  0.81235054  0.56081969  1
  Zn  Zn167  1  0.56329471  0.30952642  0.06153965  1
  Zn  Zn168  1  0.56362451  0.31370717  0.56080460  1
  Zn  Zn169  1  0.56077210  0.81300523  0.06926418  1
  Zn  Zn170  1  0.56212153  0.81399056  0.56118255  1
  O  O171  1  0.11636861  0.12539088  0.12736671  1
  O  O172  1  0.11096077  0.12163277  0.62111633  1
  O  O173  1  0.11976089  0.62064339  0.11812274  1
  O  O174  1  0.11406235  0.61426767  0.62232024  1
  O  O175  1  0.61367580  0.12246192  0.12372400  1
  O  O176  1  0.63066107  0.12541089  0.61316137  1
  O  O177  1  0.60873667  0.62416143  0.12140393  1
  O  O178  1  0.62457819  0.61944946  0.62103779  1
  O  O179  1  0.39096910  0.36880215  0.37201917  1
  O  O180  1  0.38201601  0.37715402  0.88201250  1
  O  O181  1  0.37245875  0.88686046  0.38131809  1
  O  O182  1  0.38437299  0.88209488  0.88410470  1
  O  O183  1  0.87513984  0.37916017  0.38032877  1
  O  O184  1  0.88348423  0.36991861  0.88362694  1
  O  O185  1  0.88560015  0.87399482  0.38196040  1
  O  O186  1  0.88243476  0.86840525  0.88969904  1
  O  O187  1  0.26250925  0.01445343  0.38139390  1
  O  O188  1  0.26972335  -0.00584766  0.86850372  1
  O  O189  1  0.24260926  0.51424872  0.36533708  1
  O  O190  1  0.25149964  0.51298470  0.86777942  1
  O  O191  1  0.74805754  0.01333298  0.37658672  1
  O  O192  1  0.75119346  -0.00604696  0.86259696  1
  O  O193  1  0.75514403  0.50482610  0.36860531  1
  O  O194  1  0.76290200  0.51803762  0.91443702  1
  O  O195  1  0.24422922  0.49394430  0.13135806  1
  O  O196  1  0.23943521  0.50277526  0.63093537  1
  O  O197  1  0.25096238  0.98796251  0.11768599  1
  O  O198  1  0.24930935  0.99187909  0.63439001  1
  O  O199  1  0.75310182  0.48353605  0.12492881  1
  O  O200  1  0.73756346  0.48986508  0.62148009  1
  O  O201  1  0.73084624  1.00153097  0.13050411  1
  O  O202  1  0.74874016  0.99199921  0.63191943  1
  O  O203  1  0.00915048  0.36641699  0.24918827  1
  O  O204  1  0.00388524  0.37185673  0.75575055  1
  O  O205  1  -0.00107934  0.86968965  0.25678502  1
  O  O206  1  -0.00598338  0.86494628  0.76226652  1
  O  O207  1  0.50999839  0.37615333  0.25947987  1
  O  O208  1  0.51066113  0.36929486  0.75672409  1
  O  O209  1  0.50573308  0.86316094  0.25212843  1
  O  O210  1  0.49934364  0.86054059  0.75610449  1
  O  O211  1  0.48741234  0.12635851  0.24466590  1
  O  O212  1  0.50558100  0.14034243  0.75624851  1
  O  O213  1  0.50120781  0.63607407  0.24213056  1
  O  O214  1  0.49607345  0.63481261  0.74708587  1
  O  O215  1  0.99374949  0.13030480  0.24185339  1
  O  O216  1  0.98921971  0.12452175  0.74404778  1
  O  O217  1  0.99594866  0.62907915  0.24386925  1
  O  O218  1  0.99609735  0.63239439  0.74178437  1
  O  O219  1  0.36534218  0.26211069  -0.00680333  1
  O  O220  1  0.36396262  0.25223252  0.49964016  1
  O  O221  1  0.36664081  0.75914313  -0.00497704  1
  O  O222  1  0.37014288  0.75858321  0.50707664  1
  O  O223  1  0.87045397  0.25633886  0.00717121  1
  O  O224  1  0.87936550  0.26216858  0.50027361  1
  O  O225  1  0.87018034  0.75577453  0.00924778  1
  O  O226  1  0.86489484  0.75812301  0.49265197  1
  O  O227  1  0.12752435  0.23717108  0.50211201  1
  O  O228  1  0.13806850  0.25709387  0.98965200  1
  O  O229  1  0.13211632  0.74827419  0.49004899  1
  O  O230  1  0.13196947  0.73686379  1.00283454  1
  O  O231  1  0.62218081  0.23733377  0.49395684  1
  O  O232  1  0.63487316  0.24304305  0.99989391  1
  O  O233  1  0.63058493  0.74545042  0.48893534  1
  O  O234  1  0.62140434  0.73920789  1.00580894  1
  O  O235  1  0.50289727  0.23670269  0.12935253  1
  O  O236  1  0.50450631  0.25434612  0.64116111  1
  O  O237  1  0.49935808  0.74210868  0.14121485  1
  O  O238  1  0.49701320  0.74676744  0.63519967  1
  O  O239  1  0.99388782  0.24426440  0.13392186  1
  O  O240  1  0.99670399  0.24133340  0.63295552  1
  O  O241  1  0.99229197  0.74642618  0.12911281  1
  O  O242  1  1.00075870  0.73851893  0.62168399  1
  O  O243  1  -0.00401134  0.24897819  0.35931334  1
  O  O244  1  0.00577960  0.26339012  0.87016371  1
  O  O245  1  0.00592704  0.75564973  0.36829290  1
  O  O246  1  -0.00179923  0.75386120  0.86701581  1
  O  O247  1  0.51465286  0.26109756  0.37580774  1
  O  O248  1  0.50394736  0.26174964  0.86917181  1
  O  O249  1  0.50817927  0.75045912  0.36596868  1
  O  O250  1  0.49809852  0.75512660  0.86045783  1
  O  O251  1  0.24045004  0.13047366  0.49407500  1
  O  O252  1  0.26118733  0.13389567  0.99140638  1
  O  O253  1  0.24734857  0.63408725  0.49067801  1
  O  O254  1  0.24513156  0.63018794  0.99441773  1
  O  O255  1  0.73526181  0.12153080  0.49203118  1
  O  O256  1  0.73899454  0.13413495  1.00888841  1
  O  O257  1  0.74712196  0.63131635  0.49611069  1
  O  O258  1  0.72837809  0.63870597  1.02227258  1
  O  O259  1  0.25593290  0.37013694  0.00642829  1
  O  O260  1  0.24780492  0.36481004  0.49961861  1
  O  O261  1  0.25579118  0.86739856  0.00477402  1
  O  O262  1  0.25440498  0.87288976  0.50616431  1
  O  O263  1  0.75686510  0.36711337  0.00702930  1
  O  O264  1  0.75758068  0.37890985  0.50824229  1
  O  O265  1  0.75931066  0.87120574  0.00495884  1
  O  O266  1  0.75697742  0.86914751  0.50365337  1
  O  O267  1  0.13003167  0.49202174  0.24235687  1
  O  O268  1  0.12819603  0.49647665  0.74175469  1
  O  O269  1  0.13842591  0.99123334  0.26438973  1
  O  O270  1  0.13779459  0.99118046  0.75181893  1
  O  O271  1  0.63455877  0.48816665  0.24624025  1
  O  O272  1  0.62256943  0.49310670  0.74346991  1
  O  O273  1  0.61619257  0.98814074  0.24951775  1
  O  O274  1  0.64428794  1.00679921  0.74758130  1
  O  O275  1  0.37030625  0.00749884  0.25806895  1
  O  O276  1  0.36695441  -0.00168468  0.75888661  1
  O  O277  1  0.36075697  0.49544417  0.24917565  1
  O  O278  1  0.36948842  0.51038698  0.74814260  1
  O  O279  1  0.87783655  0.01130249  0.24948344  1
  O  O280  1  0.86648865  0.01373198  0.74818521  1
  O  O281  1  0.87156065  0.50196166  0.25321871  1
  O  O282  1  0.88595266  0.51053000  0.74964383  1
  O  O283  1  0.12371691  0.37968972  0.36147291  1
  O  O284  1  0.12078781  0.37110222  0.86890506  1
  O  O285  1  0.11301292  0.86493665  0.37939338  1
  O  O286  1  0.10615575  0.87195128  0.87870354  1
  O  O287  1  0.62352753  0.36749900  0.36812841  1
  O  O288  1  0.61954557  0.37588156  0.86960835  1
  O  O289  1  0.62257596  0.86737190  0.37166291  1
  O  O290  1  0.61306826  0.87991473  0.88296431  1
  O  O291  1  0.38641700  0.12121211  0.13587824  1
  O  O292  1  0.36669588  0.13345452  0.63704488  1
  O  O293  1  0.38588078  0.62617906  0.12097865  1
  O  O294  1  0.38069112  0.63257285  0.63163983  1
  O  O295  1  0.87747344  0.13338396  0.13051261  1
  O  O296  1  0.88483458  0.12512430  0.62272099  1
  O  O297  1  0.88204903  0.63244614  0.12924922  1
  O  O298  1  0.88639721  0.61707600  0.63294818  1
  O  O299  1  0.24653908  0.25834504  0.11386358  1
  O  O300  1  0.24280213  0.25047042  0.61303408  1
  O  O301  1  0.25014294  0.75840748  0.11210917  1
  O  O302  1  0.25246775  0.75593540  0.62029778  1
  O  O303  1  0.75837813  0.25751822  0.11945908  1
  O  O304  1  0.74920804  0.26378715  0.62872771  1
  O  O305  1  0.76243312  0.75498941  0.13493373  1
  O  O306  1  0.74732611  0.75663849  0.61164203  1
  O  O307  1  0.25080777  0.23823255  0.38518611  1
  O  O308  1  0.24223022  0.24461794  0.88164288  1
  O  O309  1  0.24267569  0.74739324  0.37578986  1
  O  O310  1  0.25170508  0.74039678  0.88379362  1
  O  O311  1  0.73680330  0.23827402  0.37430832  1
  O  O312  1  0.75046825  0.25289224  0.88749384  1
  O  O313  1  0.74334069  0.74352285  0.38279904  1
  O  O314  1  0.75484968  0.73320395  0.87160184  1
  O  O315  1  0.00109850  0.13127093  0.01642976  1
  O  O316  1  0.00343348  0.12154786  0.50490310  1
  O  O317  1  0.00593753  0.62105148  0.00252124  1
  O  O318  1  -0.00159865  0.61761999  0.50530854  1
  O  O319  1  0.50510486  0.13092587  0.01491220  1
  O  O320  1  0.51298686  0.11958433  0.49558557  1
  O  O321  1  0.50298430  0.62771389  0.01390518  1
  O  O322  1  0.50934520  0.62863474  0.50827083  1
  O  O323  1  0.50315231  0.37577040  0.48483455  1
  O  O324  1  0.49285759  0.37367123  0.99500631  1
  O  O325  1  0.49132814  0.88276874  0.49749823  1
  O  O326  1  0.49276666  0.86508981  0.99212505  1
  O  O327  1  0.99300253  0.38174326  0.49848633  1
  O  O328  1  0.99544241  0.37463511  0.99330298  1
  O  O329  1  0.99352178  0.87785330  0.49455095  1
  O  O330  1  0.98902285  0.87240194  0.98998234  1
  O  O331  1  0.50911289  0.48329025  0.37456850  1
  O  O332  1  0.49632975  0.48693945  0.87649168  1
  O  O333  1  0.48730246  1.00078698  0.38544389  1
  O  O334  1  0.49068097  0.98807836  0.86336540  1
  O  O335  1  0.99606231  0.49941768  0.38546630  1
  O  O336  1  1.00806004  0.48736812  0.88169044  1
  O  O337  1  0.99681932  0.99101277  0.38051999  1
  O  O338  1  0.99193819  0.98494031  0.87057417  1
  O  O339  1  0.00329595  0.01255834  0.12530837  1
  O  O340  1  -0.00035836  0.00428082  0.61989327  1
  O  O341  1  0.00880412  0.50439158  0.12041382  1
  O  O342  1  0.00490530  0.50588748  0.61272625  1
  O  O343  1  0.51146996  0.01335679  0.13180440  1
  O  O344  1  0.50151987  -0.00537748  0.61493169  1
  O  O345  1  0.49691079  0.51333471  0.13016367  1
  O  O346  1  0.51263576  0.50801510  0.62521467  1
  O  O347  1  0.24450926  0.37887101  0.24452048  1
  O  O348  1  0.24323616  0.38229464  0.74987567  1
  O  O349  1  0.25272201  0.87334216  0.22751718  1
  O  O350  1  0.24945617  0.87671359  0.74421812  1
  O  O351  1  0.74657047  0.37660133  0.24246224  1
  O  O352  1  0.73815220  0.37327249  0.74501593  1
  O  O353  1  0.73813037  0.87152963  0.25280500  1
  O  O354  1  0.76425518  0.88721690  0.74165477  1
  O  O355  1  0.26058789  0.12720148  0.25610015  1
  O  O356  1  0.24484253  0.11232335  0.77028075  1
  O  O357  1  0.24534413  0.61773854  0.25730142  1
  O  O358  1  0.25296775  0.62517640  0.75612126  1
  O  O359  1  0.76031902  0.13075057  0.25695664  1
  O  O360  1  0.76393953  0.11638750  0.74928174  1
  O  O361  1  0.75451978  0.61735041  0.25183848  1
  O  O362  1  0.76847282  0.61945436  0.74551194  1
  O  O363  1  0.37196980  0.12388569  0.36410369  1
  O  O364  1  0.38101714  0.10901477  0.87353850  1
  O  O365  1  0.36455631  0.63158998  0.37626875  1
  O  O366  1  0.36794815  0.62422777  0.86799801  1
  O  O367  1  0.86501238  0.12328173  0.36624338  1
  O  O368  1  0.88025821  0.12778239  0.86612819  1
  O  O369  1  0.86967050  0.61759443  0.36673768  1
  O  O370  1  0.88552764  0.61984232  0.85860265  1
  O  O371  1  0.13586355  0.38047424  0.13069703  1
  O  O372  1  0.12328630  0.38796119  0.62889422  1
  O  O373  1  0.13965741  0.87357984  0.11726241  1
  O  O374  1  0.13716038  0.87684429  0.62503632  1
  O  O375  1  0.63251914  0.37329078  0.13174911  1
  O  O376  1  0.62961452  0.38231364  0.63133054  1
  O  O377  1  0.62422575  0.88271433  0.13609536  1
  O  O378  1  0.63981238  0.87702516  0.61869118  1
  O  O379  1  0.11783489  0.26004143  0.24453456  1
  O  O380  1  0.11958666  0.26227713  0.75071129  1
  O  O381  1  0.11888615  0.75750875  0.25463542  1
  O  O382  1  0.10223747  0.75181817  0.74233358  1
  O  O383  1  0.63069726  0.26108556  0.25657943  1
  O  O384  1  0.61807829  0.25718627  0.75519527  1
  O  O385  1  0.62094287  0.75496840  0.26077075  1
  O  O386  1  0.61565786  0.74520546  0.74599068  1
  O  O387  1  0.37210341  0.23883945  0.24985140  1
  O  O388  1  0.39204879  0.24929924  0.75523778  1
  O  O389  1  0.38834048  0.75427038  0.25647727  1
  O  O390  1  0.37902438  0.74313377  0.74457770  1
  O  O391  1  0.88206125  0.24237678  0.24203547  1
  O  O392  1  0.87946335  0.23663517  0.74759977  1
  O  O393  1  0.88231740  0.74406847  0.24506503  1
  O  O394  1  0.89170988  0.73877438  0.74533879  1
  O  O395  1  0.38043807  0.49537506  0.50209726  1
  O  O396  1  0.37643990  0.48650495  0.99779243  1
  O  O397  1  0.38077808  1.00016216  0.49569471  1
  O  O398  1  0.37760479  0.99180979  0.98609031  1
  O  O399  1  0.88123681  0.49065481  0.49484008  1
  O  O400  1  0.88943494  0.48064540  1.01414791  1
  O  O401  1  0.88067485  0.99045115  0.49515031  1
  O  O402  1  0.86892206  0.98565133  1.00596197  1
  O  O403  1  0.14618887  0.03606713  -0.06603789  1
  O  O404  1  0.11713610  0.01148941  0.50248437  1
  O  O405  1  0.12275177  0.50884641  0.00702307  1
  O  O406  1  0.11695342  0.50180052  0.50529262  1
  O  O407  1  0.62517335  0.00981672  0.01204466  1
  O  O408  1  0.61552097  0.01189487  0.50171997  1
  O  O409  1  0.61643452  0.51169119  0.01020799  1
  O  O410  1  0.62257377  0.50942466  0.50738572  1
  O  O411  1  0.36310064  0.37684023  0.11907321  1
  O  O412  1  0.37275937  0.36536487  0.62291170  1
  O  O413  1  0.36777147  0.88276750  0.11044205  1
  O  O414  1  0.36415731  0.87088612  0.62154395  1
  O  O415  1  0.87070542  0.36161817  0.12063157  1
  O  O416  1  0.86563100  0.37387512  0.61692979  1
  O  O417  1  0.87552528  0.86774203  0.11444935  1
  O  O418  1  0.86758975  0.87665328  0.61297990  1
  O  O419  1  0.13278737  0.12259687  0.38323617  1
  O  O420  1  0.11738737  0.15170110  0.85605190  1
  O  O421  1  0.12679337  0.63928166  0.37415274  1
  O  O422  1  0.13325205  0.62078766  0.88344399  1
  O  O423  1  0.62806777  0.13116922  0.37861717  1
  O  O424  1  0.61836789  0.12631774  0.89217958  1
  O  O425  1  0.63009823  0.63066783  0.37749811  1
  O  O426  1  0.61948105  0.61988685  0.89627149  1
