# generated using pymatgen
data_V85Zn86O256
_symmetry_space_group_name_H-M   'P 1'
_cell_length_a   16.94418672
_cell_length_b   16.94535423
_cell_length_c   16.94307908
_cell_angle_alpha   89.96781583
_cell_angle_beta   90.00654513
_cell_angle_gamma   90.01263571
_symmetry_Int_Tables_number   1
_chemical_formula_structural   V85Zn86O256
_chemical_formula_sum   'V85 Zn86 O256'
_cell_volume   4864.78483211
_cell_formula_units_Z   1
loop_
 _symmetry_equiv_pos_site_id
 _symmetry_equiv_pos_as_xyz
  1  'x, y, z'
loop_
 _atom_site_type_symbol
 _atom_site_label
 _atom_site_symmetry_multiplicity
 _atom_site_fract_x
 _atom_site_fract_y
 _atom_site_fract_z
 _atom_site_occupancy
  V  V0  1  0.62802541  0.74770774  0.37162459  1
  V  V1  1  0.37156485  0.35997121  0.51288387  1
  V  V2  1  0.12423725  0.50042801  0.12796191  1
  V  V3  1  0.63199525  0.61529958  0.49795951  1
  V  V4  1  0.25736763  0.87532249  0.63030398  1
  V  V5  1  0.75159185  0.00371349  0.75447521  1
  V  V6  1  0.49364674  0.25014108  0.74408502  1
  V  V7  1  0.49972659  -0.00075964  0.49486458  1
  V  V8  1  0.37808340  0.87365103  0.49726460  1
  V  V9  1  0.63935242  -0.00146939  0.12582265  1
  V  V10  1  0.25524810  0.74617417  0.50028563  1
  V  V11  1  0.37794306  0.62312085  0.75124833  1
  V  V12  1  0.74573104  0.12106166  0.36722484  1
  V  V13  1  0.75179894  0.87367388  0.62093443  1
  V  V14  1  -0.00621148  0.75423852  0.75400510  1
  V  V15  1  0.12452044  0.61691606  0.50828409  1
  V  V16  1  0.62750179  0.12787091  -0.00326332  1
  V  V17  1  0.37181345  0.00429056  0.87461511  1
  V  V18  1  0.48857598  0.12849333  0.62082822  1
  V  V19  1  0.87316585  0.76707642  0.12314922  1
  V  V20  1  0.50235730  0.24818623  0.25744087  1
  V  V21  1  0.62217465  0.38189054  0.73681553  1
  V  V22  1  0.75563166  0.25392485  0.00053966  1
  V  V23  1  0.88406554  0.49039929  0.37567346  1
  V  V24  1  0.23596617  0.49859451  0.74090846  1
  V  V25  1  0.50915144  0.61555533  0.62647033  1
  V  V26  1  0.62282149  0.87732586  0.74520395  1
  V  V27  1  0.12205033  -0.00164160  0.61444269  1
  V  V28  1  0.50152568  0.12569362  0.12537656  1
  V  V29  1  0.74435689  0.50331914  0.25619085  1
  V  V30  1  -0.00585039  0.49541472  0.00293318  1
  V  V31  1  0.12654659  0.25277372  0.38789098  1
  V  V32  1  0.12564768  0.62629185  0.00295079  1
  V  V33  1  0.62522147  0.61614324  0.00332886  1
  V  V34  1  0.37884657  0.49366744  0.38239056  1
  V  V35  1  0.50105061  0.00219593  -0.00082856  1
  V  V36  1  0.37992677  0.74694746  0.62610785  1
  V  V37  1  0.87158786  0.62578612  0.25531328  1
  V  V38  1  0.87284617  0.62650173  0.74098011  1
  V  V39  1  0.36988155  0.24861463  0.12325403  1
  V  V40  1  0.62565738  0.24678136  0.87124945  1
  V  V41  1  0.87667827  0.25736762  0.12675696  1
  V  V42  1  0.75995830  0.37730541  0.62013188  1
  V  V43  1  -0.00263759  0.25059097  0.25963512  1
  V  V44  1  0.11708894  0.74997727  0.37437112  1
  V  V45  1  0.62404688  0.00256411  0.62009384  1
  V  V46  1  -0.03784480  0.14118671  0.61934670  1
  V  V47  1  0.24587033  0.00264920  0.75452101  1
  V  V48  1  0.87259263  0.49905193  0.87808925  1
  V  V49  1  0.36888317  -0.00262367  0.36308728  1
  V  V50  1  0.62058367  0.13599934  0.49009709  1
  V  V51  1  0.37846927  0.62481654  0.25147074  1
  V  V52  1  0.37423393  0.87312222  0.00237602  1
  V  V53  1  0.50362429  0.75104946  0.75083102  1
  V  V54  1  0.74453069  0.38345184  0.12230372  1
  V  V55  1  0.63236641  0.76446799  0.88866363  1
  V  V56  1  0.87556411  -0.00430401  0.88428363  1
  V  V57  1  0.12446620  0.75289468  0.87773410  1
  V  V58  1  0.24519489  0.14023764  0.88103128  1
  V  V59  1  0.80806530  0.17078326  0.81667122  1
  V  V60  1  0.74986175  0.62838083  0.87523523  1
  V  V61  1  0.37579398  0.49968930  0.87606112  1
  V  V62  1  0.11946619  0.37412796  0.25756692  1
  V  V63  1  0.36792940  0.36993959  -0.00169264  1
  V  V64  1  0.88432449  -0.00949128  0.38922133  1
  V  V65  1  0.12806524  0.88468237  0.25853575  1
  V  V66  1  0.13561971  -0.00002125  0.12556617  1
  V  V67  1  0.75822636  0.24777058  0.49669694  1
  V  V68  1  0.25031732  0.49793275  0.25198499  1
  V  V69  1  0.25157450  0.62359821  0.37694103  1
  V  V70  1  0.25095387  0.62359944  0.87619454  1
  V  V71  1  0.50475662  0.61828429  0.12685816  1
  V  V72  1  0.50092853  0.37398868  0.87447594  1
  V  V73  1  0.24663247  0.12614811  0.37511214  1
  V  V74  1  0.87264551  0.11432501  0.24870160  1
  V  V75  1  0.23543261  0.35598638  0.63001334  1
  V  V76  1  0.62311434  0.37471745  0.25358264  1
  V  V77  1  0.01131753  0.37360367  0.87179898  1
  V  V78  1  0.12800782  0.13731675  0.00271306  1
  V  V79  1  0.92138611  0.80821156  0.56937970  1
  V  V80  1  0.63601479  0.87913908  0.24610338  1
  V  V81  1  0.74878265  0.75268180  0.49726081  1
  V  V82  1  0.49742773  0.87923661  0.87174886  1
  V  V83  1  -0.00294475  0.62869697  0.12786527  1
  V  V84  1  0.24854303  0.37193348  0.12428136  1
  Zn  Zn85  1  0.25660759  0.87409469  0.13416185  1
  Zn  Zn86  1  0.88507894  0.36546105  0.49557933  1
  Zn  Zn87  1  0.00292413  0.12583050  0.12683951  1
  Zn  Zn88  1  0.50373124  0.49344936  0.50602121  1
  Zn  Zn89  1  -0.00573006  0.87521098  0.88203476  1
  Zn  Zn90  1  0.50098825  0.87296404  0.36995698  1
  Zn  Zn91  1  0.36552938  0.13282472  0.74305094  1
  Zn  Zn92  1  0.00156182  -0.00263544  0.00736869  1
  Zn  Zn93  1  0.74393288  0.50597201  0.74030557  1
  Zn  Zn94  1  0.37810984  0.74788268  0.12392009  1
  Zn  Zn95  1  0.12071446  0.87762957  0.75262250  1
  Zn  Zn96  1  0.50335610  0.49158051  0.00891264  1
  Zn  Zn97  1  0.50311134  0.36811519  0.38235810  1
  Zn  Zn98  1  0.12013842  0.12117608  0.50156336  1
  Zn  Zn99  1  0.50453753  0.75027041  0.24598141  1
  Zn  Zn100  1  0.25257098  0.74964033  0.00384145  1
  Zn  Zn101  1  0.36815974  0.11996512  0.24526464  1
  Zn  Zn102  1  -0.00699354  0.25584598  0.75339156  1
  Zn  Zn103  1  0.01139733  0.48417635  0.50770252  1
  Zn  Zn104  1  0.76195214  0.75940471  0.00233090  1
  Zn  Zn105  1  0.00127212  0.61904912  0.62668027  1
  Zn  Zn106  1  -0.00110783  0.75518363  0.25342391  1
  Zn  Zn107  1  0.18836622  0.18734228  0.19354975  1
  Zn  Zn108  1  0.16768080  0.18415761  0.69892039  1
  Zn  Zn109  1  0.19142721  0.69223354  0.18877202  1
  Zn  Zn110  1  0.18820978  0.68863542  0.69194994  1
  Zn  Zn111  1  0.68742637  0.19056941  0.18684887  1
  Zn  Zn112  1  0.67935763  0.19307828  0.67583367  1
  Zn  Zn113  1  0.69094061  0.68849069  0.18360940  1
  Zn  Zn114  1  0.68773185  0.69133056  0.68685970  1
  Zn  Zn115  1  0.31175861  0.30945500  0.31336692  1
  Zn  Zn116  1  0.30903107  0.31531245  0.80744326  1
  Zn  Zn117  1  0.31030527  0.80976940  0.31226141  1
  Zn  Zn118  1  0.31300759  0.81151736  0.81577776  1
  Zn  Zn119  1  0.80635604  0.30818323  0.31271078  1
  Zn  Zn120  1  0.81404976  0.33349023  0.81047929  1
  Zn  Zn121  1  0.81272660  0.81321477  0.31101310  1
  Zn  Zn122  1  0.81306036  0.81652880  0.80989317  1
  Zn  Zn123  1  0.19445500  0.43204965  0.44305298  1
  Zn  Zn124  1  0.18735667  0.43971623  0.93863170  1
  Zn  Zn125  1  0.19371851  0.93406261  0.43501971  1
  Zn  Zn126  1  0.18521987  0.93893030  0.94187781  1
  Zn  Zn127  1  0.69198025  0.43442855  0.43226314  1
  Zn  Zn128  1  0.68838099  0.43576131  0.93289519  1
  Zn  Zn129  1  0.69142745  0.93860068  0.43138444  1
  Zn  Zn130  1  0.68914352  0.94026839  0.93657345  1
  Zn  Zn131  1  0.31049072  0.06190776  0.06109510  1
  Zn  Zn132  1  0.30789037  0.06221149  0.55604993  1
  Zn  Zn133  1  0.31446791  0.56113961  0.06383925  1
  Zn  Zn134  1  0.31489147  0.55867786  0.56463835  1
  Zn  Zn135  1  0.81396746  0.07217513  0.06008230  1
  Zn  Zn136  1  0.80580830  0.05709450  0.55351231  1
  Zn  Zn137  1  0.81121262  0.56741026  0.06490486  1
  Zn  Zn138  1  0.81177472  0.55924628  0.55968621  1
  Zn  Zn139  1  0.43815088  0.43659012  0.18984325  1
  Zn  Zn140  1  0.43226762  0.43634349  0.68793736  1
  Zn  Zn141  1  0.44802931  0.93383168  0.18590047  1
  Zn  Zn142  1  0.43407518  0.94441001  0.68681482  1
  Zn  Zn143  1  0.93541707  0.43697841  0.19054526  1
  Zn  Zn144  1  0.93992101  0.44126892  0.68795218  1
  Zn  Zn145  1  0.95069576  0.93999515  0.19242140  1
  Zn  Zn146  1  0.94571995  0.95961786  0.70026909  1
  Zn  Zn147  1  0.05999287  0.06326953  0.31324473  1
  Zn  Zn148  1  0.05704336  0.08174605  0.79965352  1
  Zn  Zn149  1  0.06166460  0.56531457  0.31487473  1
  Zn  Zn150  1  0.05811729  0.56664093  0.81429054  1
  Zn  Zn151  1  0.56130192  0.05911472  0.30905926  1
  Zn  Zn152  1  0.56237364  0.06565411  0.80853501  1
  Zn  Zn153  1  0.56427970  0.55937373  0.31609825  1
  Zn  Zn154  1  0.56490934  0.56263400  0.81713335  1
  Zn  Zn155  1  0.43005322  0.18469347  0.43513741  1
  Zn  Zn156  1  0.43553793  0.18873256  0.93647320  1
  Zn  Zn157  1  0.44511744  0.68390538  0.43704182  1
  Zn  Zn158  1  0.44749049  0.68804767  0.94144839  1
  Zn  Zn159  1  0.93877418  0.17697695  0.43577789  1
  Zn  Zn160  1  0.94403492  0.18984147  0.94762032  1
  Zn  Zn161  1  0.93874064  0.67813531  0.43483343  1
  Zn  Zn162  1  0.93682388  0.68709303  0.94054894  1
  Zn  Zn163  1  0.05957267  0.31491431  0.06574678  1
  Zn  Zn164  1  0.05488375  0.31003117  0.56638106  1
  Zn  Zn165  1  0.06188342  0.81835624  0.06444426  1
  Zn  Zn166  1  0.08171174  0.81059748  0.56392863  1
  Zn  Zn167  1  0.56313375  0.31308943  0.06410384  1
  Zn  Zn168  1  0.56182572  0.31124097  0.56100417  1
  Zn  Zn169  1  0.57224505  0.81196940  0.05907511  1
  Zn  Zn170  1  0.56428415  0.80997169  0.55985203  1
  O  O171  1  0.13134617  0.12058883  0.11690475  1
  O  O172  1  0.13008152  0.10379884  0.62002953  1
  O  O173  1  0.11541336  0.62104306  0.12534801  1
  O  O174  1  0.12689838  0.63306020  0.61083711  1
  O  O175  1  0.61823320  0.12071909  0.11974494  1
  O  O176  1  0.61308781  0.11903086  0.61190527  1
  O  O177  1  0.61939907  0.62567888  0.11575116  1
  O  O178  1  0.61947268  0.63069255  0.61351185  1
  O  O179  1  0.37137609  0.37913573  0.38859840  1
  O  O180  1  0.37729085  0.37943128  0.88092179  1
  O  O181  1  0.37608750  0.88037159  0.37953913  1
  O  O182  1  0.38023645  0.88378060  0.87966818  1
  O  O183  1  0.87102841  0.38767417  0.37015886  1
  O  O184  1  0.87866490  0.39480095  0.87946649  1
  O  O185  1  0.87083992  0.89297462  0.36563666  1
  O  O186  1  0.87074598  0.89171909  0.87742802  1
  O  O187  1  0.25970212  0.00737291  0.37597715  1
  O  O188  1  0.25404427  0.00381803  0.86873479  1
  O  O189  1  0.26138951  0.50324425  0.37243947  1
  O  O190  1  0.25690169  0.50336666  0.86624555  1
  O  O191  1  0.75940258  0.01469060  0.37900157  1
  O  O192  1  0.75768437  0.00348123  0.86905553  1
  O  O193  1  0.75950944  0.49802537  0.36046152  1
  O  O194  1  0.75686626  0.50999609  0.87423000  1
  O  O195  1  0.24472412  0.49389391  0.13253292  1
  O  O196  1  0.25113948  0.49801468  0.63911707  1
  O  O197  1  0.24142123  0.99799894  0.12689775  1
  O  O198  1  0.24980185  0.99132042  0.63245919  1
  O  O199  1  0.75962277  0.48752041  0.13302257  1
  O  O200  1  0.74848720  0.48338172  0.62153637  1
  O  O201  1  0.73797564  1.00412682  0.11416960  1
  O  O202  1  0.74424108  0.99145799  0.63027615  1
  O  O203  1  0.01233835  0.36921096  0.24781497  1
  O  O204  1  -0.00711191  0.37411824  0.76699123  1
  O  O205  1  0.02202011  0.86993528  0.24962607  1
  O  O206  1  0.00030349  0.86904993  0.76002577  1
  O  O207  1  0.50595081  0.36602581  0.25030198  1
  O  O208  1  0.50522179  0.36915846  0.75235712  1
  O  O209  1  0.51308799  0.86829676  0.25259699  1
  O  O210  1  0.50271392  0.87282846  0.74955058  1
  O  O211  1  0.49760864  0.13089732  0.24106131  1
  O  O212  1  0.49739157  0.13212298  0.73786569  1
  O  O213  1  0.49468262  0.62360003  0.24635477  1
  O  O214  1  0.50025306  0.63046435  0.74509896  1
  O  O215  1  0.99201587  0.13491415  0.24755508  1
  O  O216  1  0.98015208  0.08283808  0.70331234  1
  O  O217  1  0.99323927  0.62738500  0.24235136  1
  O  O218  1  0.99094577  0.63456945  0.74756613  1
  O  O219  1  0.37918819  0.25869091  0.01021801  1
  O  O220  1  0.37543824  0.26174418  0.50041714  1
  O  O221  1  0.37658450  0.76018135  -0.00285085  1
  O  O222  1  0.37534110  0.75207169  0.50554122  1
  O  O223  1  0.86673937  0.24783084  0.01201634  1
  O  O224  1  0.86161882  0.24759815  0.48996175  1
  O  O225  1  0.87778863  0.75013679  0.01676989  1
  O  O226  1  0.86775860  0.74351957  0.50470001  1
  O  O227  1  0.11953530  0.24534176  0.48967175  1
  O  O228  1  0.12320122  0.23674853  1.00783017  1
  O  O229  1  0.13633358  0.74031366  0.49242648  1
  O  O230  1  0.12756986  0.74336537  0.99428238  1
  O  O231  1  0.62672360  0.23924497  0.49638748  1
  O  O232  1  0.63031273  0.24859113  0.98942973  1
  O  O233  1  0.63276539  0.74355223  0.49265038  1
  O  O234  1  0.59540183  0.72195996  0.98875376  1
  O  O235  1  0.49417509  0.23967910  0.12899509  1
  O  O236  1  0.50421965  0.24010737  0.63194586  1
  O  O237  1  0.49795978  0.73384210  0.12637527  1
  O  O238  1  0.49796993  0.74131715  0.63078920  1
  O  O239  1  0.99198683  0.25106744  0.13616990  1
  O  O240  1  0.99000426  0.24108491  0.63531550  1
  O  O241  1  0.99248632  0.74281923  0.12792087  1
  O  O242  1  0.99177046  0.75358639  0.63014448  1
  O  O243  1  0.00780959  0.24283474  0.36524327  1
  O  O244  1  -0.00888983  0.27408240  0.88620546  1
  O  O245  1  0.01379576  0.74372176  0.37539987  1
  O  O246  1  0.00722603  0.74927266  0.87020468  1
  O  O247  1  0.49254838  0.24849208  0.36118255  1
  O  O248  1  0.50765502  0.25516382  0.86815631  1
  O  O249  1  0.51626038  0.75091137  0.37496648  1
  O  O250  1  0.50543491  0.76105955  0.86695890  1
  O  O251  1  0.24655182  0.12301259  0.48256623  1
  O  O252  1  0.24446075  0.12758408  0.99039331  1
  O  O253  1  0.24491506  0.62731391  0.49796042  1
  O  O254  1  0.24364973  0.62268047  0.99366722  1
  O  O255  1  0.73720797  0.13125560  0.49305519  1
  O  O256  1  0.74014943  0.14344681  1.00391297  1
  O  O257  1  0.73801494  0.63556324  0.50838462  1
  O  O258  1  0.74096390  0.63151134  0.99496850  1
  O  O259  1  0.26048394  0.37887577  0.00568918  1
  O  O260  1  0.25924425  0.37386812  0.51949008  1
  O  O261  1  0.26604673  0.87545302  -0.00129836  1
  O  O262  1  0.25932262  0.86616937  0.50908489  1
  O  O263  1  0.74239635  0.36467071  0.00713437  1
  O  O264  1  0.75341295  0.36765943  0.50493332  1
  O  O265  1  0.68177062  0.83722259  -0.01873407  1
  O  O266  1  0.74517799  0.86548921  0.50769287  1
  O  O267  1  0.12861947  0.49330845  0.24869195  1
  O  O268  1  0.13816039  0.50820607  0.75432255  1
  O  O269  1  0.12551505  0.99046995  0.24831497  1
  O  O270  1  0.13603983  0.99807483  0.74281082  1
  O  O271  1  0.63386078  0.49273911  0.25229972  1
  O  O272  1  0.62736847  0.48645016  0.75851207  1
  O  O273  1  0.62307127  0.98862722  0.24099119  1
  O  O274  1  0.63233582  0.99842211  0.74166168  1
  O  O275  1  0.38428391  -0.00174180  0.26071549  1
  O  O276  1  0.36304744  0.00647898  0.75509502  1
  O  O277  1  0.37090174  0.50627092  0.25964467  1
  O  O278  1  0.36898902  0.50436547  0.76074612  1
  O  O279  1  0.87861633  0.01305240  0.24602744  1
  O  O280  1  0.85634294  0.00068734  0.76093275  1
  O  O281  1  0.87026624  0.50575835  0.25834661  1
  O  O282  1  0.86970262  0.51075984  0.76014151  1
  O  O283  1  0.13597065  0.36650466  0.36726595  1
  O  O284  1  0.11074486  0.38146261  0.87697095  1
  O  O285  1  0.13067912  0.86593658  0.36789069  1
  O  O286  1  0.13192021  0.86061883  0.87307558  1
  O  O287  1  0.62164359  0.37633234  0.36075780  1
  O  O288  1  0.62233680  0.36319344  0.86604679  1
  O  O289  1  0.62547293  0.86985532  0.36334717  1
  O  O290  1  0.61324446  0.88393619  0.85800693  1
  O  O291  1  0.38133857  0.13155176  0.12424059  1
  O  O292  1  0.38477664  0.11981729  0.62253293  1
  O  O293  1  0.38162480  0.62231335  0.13641769  1
  O  O294  1  0.38473323  0.62865373  0.63173116  1
  O  O295  1  0.87524274  0.13839680  0.13281374  1
  O  O296  1  0.86278881  0.13562510  0.61428155  1
  O  O297  1  0.88533130  0.62746036  0.13446322  1
  O  O298  1  0.86844929  0.62421455  0.63846693  1
  O  O299  1  0.26174130  0.25605672  0.13190865  1
  O  O300  1  0.24215301  0.25696259  0.64575663  1
  O  O301  1  0.25937515  0.75272072  0.12148662  1
  O  O302  1  0.26027618  0.75549880  0.62400645  1
  O  O303  1  0.75543647  0.26057364  0.11810899  1
  O  O304  1  0.73966940  0.26432188  0.60997810  1
  O  O305  1  0.76859616  0.75080614  0.12333391  1
  O  O306  1  0.74639739  0.76585707  0.61910494  1
  O  O307  1  0.24041751  0.23866851  0.37172681  1
  O  O308  1  0.24920602  0.23872970  0.86976802  1
  O  O309  1  0.24639410  0.74029512  0.38276903  1
  O  O310  1  0.24332752  0.73995681  0.87516595  1
  O  O311  1  0.74805033  0.23589324  0.38222090  1
  O  O312  1  0.74877756  0.24789875  0.87524461  1
  O  O313  1  0.74116694  0.75427152  0.38555795  1
  O  O314  1  0.75050548  0.74296809  0.87640376  1
  O  O315  1  0.01608208  0.12030461  0.00385472  1
  O  O316  1  -0.00238266  0.12298401  0.52025426  1
  O  O317  1  0.00640785  0.61826535  0.00906124  1
  O  O318  1  0.01665472  0.62511680  0.50220539  1
  O  O319  1  0.50658815  0.12351343  0.00579353  1
  O  O320  1  0.50225686  0.11970144  0.50155679  1
  O  O321  1  0.50071476  0.61096779  0.01000356  1
  O  O322  1  0.51371311  0.62168635  0.50935956  1
  O  O323  1  0.48767650  0.37555601  0.50183276  1
  O  O324  1  0.49023807  0.37488955  0.99391544  1
  O  O325  1  0.49640324  0.88262772  0.49738002  1
  O  O326  1  0.49309345  0.88234629  0.99325013  1
  O  O327  1  0.99672286  0.37304834  0.49657009  1
  O  O328  1  1.00368393  0.39087776  0.99676760  1
  O  O329  1  0.98613811  0.85291025  0.51049265  1
  O  O330  1  1.00948912  0.88539368  0.99277256  1
  O  O331  1  0.48778977  0.49484208  0.37800029  1
  O  O332  1  0.49041091  0.49144693  0.87413704  1
  O  O333  1  0.49247873  0.99964730  0.38417599  1
  O  O334  1  0.49225340  0.99978879  0.87734474  1
  O  O335  1  0.98650589  0.50321579  0.37644639  1
  O  O336  1  0.99355486  0.49685828  0.88325833  1
  O  O337  1  0.98387060  1.00658234  0.37520811  1
  O  O338  1  0.98032559  1.00762563  0.86516451  1
  O  O339  1  0.01817335  0.00717930  0.12754233  1
  O  O340  1  0.02667005  -0.03004313  0.61811229  1
  O  O341  1  0.00236080  0.50664985  0.12085462  1
  O  O342  1  -0.00638575  0.50688913  0.61845662  1
  O  O343  1  0.50586877  0.01298093  0.11895325  1
  O  O344  1  0.50254384  0.00638742  0.61271206  1
  O  O345  1  0.49641085  0.51133323  0.12685456  1
  O  O346  1  0.49713200  0.51219115  0.62744562  1
  O  O347  1  0.24238696  0.37981918  0.24508571  1
  O  O348  1  0.25269568  0.38768634  0.73913545  1
  O  O349  1  0.23504940  0.86919673  0.25087716  1
  O  O350  1  0.25364701  0.88243335  0.74412594  1
  O  O351  1  0.74089736  0.37939570  0.24317756  1
  O  O352  1  0.74108100  0.37614507  0.73452889  1
  O  O353  1  0.73499025  0.87273648  0.24866018  1
  O  O354  1  0.74234342  0.88378209  0.74319081  1
  O  O355  1  0.25232192  0.12554431  0.26601615  1
  O  O356  1  0.24846070  0.11861406  0.76347707  1
  O  O357  1  0.25814611  0.61708018  0.25640130  1
  O  O358  1  0.25680568  0.61584665  0.75491016  1
  O  O359  1  0.75838259  0.13244214  0.25626066  1
  O  O360  1  0.74166904  0.12251974  0.74868723  1
  O  O361  1  0.75883474  0.61388569  0.24032471  1
  O  O362  1  0.75411128  0.62624622  0.75704118  1
  O  O363  1  0.36503785  0.11548598  0.37169254  1
  O  O364  1  0.36151245  0.12109719  0.87677758  1
  O  O365  1  0.37274939  0.61580172  0.37245532  1
  O  O366  1  0.37369520  0.61753278  0.87189974  1
  O  O367  1  0.86663702  0.11649030  0.36624481  1
  O  O368  1  0.87180518  0.12110718  0.88117798  1
  O  O369  1  0.87609658  0.61696022  0.36088273  1
  O  O370  1  0.86581944  0.62130294  0.87019041  1
  O  O371  1  0.12987168  0.38101582  0.13343155  1
  O  O372  1  0.13698143  0.36921205  0.62495886  1
  O  O373  1  0.13180896  0.88341216  0.13620350  1
  O  O374  1  0.14572024  0.87591420  0.63066661  1
  O  O375  1  0.63418426  0.37251310  0.13449079  1
  O  O376  1  0.62768328  0.37357599  0.63311099  1
  O  O377  1  0.61917734  0.88464884  0.13606225  1
  O  O378  1  0.63054350  0.88206870  0.62755496  1
  O  O379  1  0.11657540  0.25722746  0.25726557  1
  O  O380  1  0.08291889  0.19037135  0.77027622  1
  O  O381  1  0.12520957  0.75411155  0.26116349  1
  O  O382  1  0.11282303  0.74930120  0.75755936  1
  O  O383  1  0.61224464  0.25818436  0.24300658  1
  O  O384  1  0.61478010  0.25659931  0.75416770  1
  O  O385  1  0.62867835  0.75600153  0.25601924  1
  O  O386  1  0.62281665  0.76082494  0.75917456  1
  O  O387  1  0.38399473  0.25028548  0.23839181  1
  O  O388  1  0.38956013  0.24965220  0.75611775  1
  O  O389  1  0.37851620  0.73359550  0.25521285  1
  O  O390  1  0.38242668  0.74246096  0.74691275  1
  O  O391  1  0.88180798  0.24520359  0.24741437  1
  O  O392  1  0.86839126  0.23928739  0.76641088  1
  O  O393  1  0.87687614  0.74284488  0.24297872  1
  O  O394  1  0.88589766  0.74390716  0.75723915  1
  O  O395  1  0.37728376  0.49061703  0.49558722  1
  O  O396  1  0.37401822  0.49161723  0.98828515  1
  O  O397  1  0.38240923  0.99316237  0.49194581  1
  O  O398  1  0.38201524  0.99538613  0.99419221  1
  O  O399  1  0.86975677  0.50119130  0.48023635  1
  O  O400  1  0.88437927  0.51305804  0.99255079  1
  O  O401  1  0.87406431  0.99419070  0.48977472  1
  O  O402  1  0.87549089  1.00688584  0.98781630  1
  O  O403  1  0.12894111  0.00966051  0.01197769  1
  O  O404  1  0.13497904  -0.00443887  0.51096501  1
  O  O405  1  0.11861190  0.50756622  0.00883136  1
  O  O406  1  0.12952702  0.51426913  0.49301314  1
  O  O407  1  0.61886923  0.00877201  0.00401764  1
  O  O408  1  0.61614669  0.00600346  0.50083286  1
  O  O409  1  0.62225568  0.51125079  -0.01062099  1
  O  O410  1  0.62611433  0.51210529  0.49256914  1
  O  O411  1  0.37096988  0.36893251  0.11752305  1
  O  O412  1  0.36703898  0.37387746  0.61740103  1
  O  O413  1  0.37799833  0.87398222  0.11615434  1
  O  O414  1  0.37111658  0.86995855  0.62038606  1
  O  O415  1  0.86521037  0.36385886  0.13346041  1
  O  O416  1  0.86151071  0.37316194  0.62517158  1
  O  O417  1  0.88245919  0.86483403  0.13339119  1
  O  O418  1  0.87023802  0.87806637  0.62782261  1
  O  O419  1  0.13183336  0.13029516  0.37711703  1
  O  O420  1  0.13910117  0.11522021  0.89367970  1
  O  O421  1  0.13288471  0.63091404  0.38259524  1
  O  O422  1  0.12882650  0.63461427  0.88122271  1
  O  O423  1  0.63055479  0.11737871  0.38005456  1
  O  O424  1  0.62029283  0.13920509  0.87760092  1
  O  O425  1  0.62330325  0.63226833  0.38852046  1
  O  O426  1  0.63777738  0.63256661  0.87796107  1
