# generated using pymatgen
data_V85Zn86O256
_symmetry_space_group_name_H-M   'P 1'
_cell_length_a   16.99011315
_cell_length_b   16.98528392
_cell_length_c   16.99362487
_cell_angle_alpha   89.94325924
_cell_angle_beta   90.03909313
_cell_angle_gamma   89.97070359
_symmetry_Int_Tables_number   1
_chemical_formula_structural   V85Zn86O256
_chemical_formula_sum   'V85 Zn86 O256'
_cell_volume   4904.04829057
_cell_formula_units_Z   1
loop_
 _symmetry_equiv_pos_site_id
 _symmetry_equiv_pos_as_xyz
  1  'x, y, z'
loop_
 _atom_site_type_symbol
 _atom_site_label
 _atom_site_symmetry_multiplicity
 _atom_site_fract_x
 _atom_site_fract_y
 _atom_site_fract_z
 _atom_site_occupancy
  V  V0  1  -0.06276487  0.43151131  0.31437633  1
  V  V1  1  0.24750801  0.74918825  0.49991988  1
  V  V2  1  0.86675548  0.27627271  0.12398561  1
  V  V3  1  0.12566985  0.00498453  0.12131764  1
  V  V4  1  0.10900413  0.62431568  0.49944772  1
  V  V5  1  0.37298228  0.24982525  0.12234354  1
  V  V6  1  0.63654364  0.12392156  0.00326118  1
  V  V7  1  0.37551627  0.50120828  0.87439533  1
  V  V8  1  0.25255653  0.12270889  0.37393872  1
  V  V9  1  0.87434158  0.62405471  0.74211562  1
  V  V10  1  0.25500572  0.13696436  0.86720286  1
  V  V11  1  0.75133157  0.11211893  0.37228513  1
  V  V12  1  -0.00568659  0.12620380  0.11887002  1
  V  V13  1  0.23530883  0.37767596  0.63490769  1
  V  V14  1  0.37998570  0.88037350  -0.00661412  1
  V  V15  1  0.37066808  0.88059442  0.49185318  1
  V  V16  1  0.62406261  0.62450662  0.49876235  1
  V  V17  1  0.22987956  0.24591410  0.00180965  1
  V  V18  1  0.12234997  0.12269297  0.49751876  1
  V  V19  1  0.74716457  -0.00626914  0.75554154  1
  V  V20  1  0.11917967  0.75638431  0.36866288  1
  V  V21  1  0.49437907  0.62300825  0.12120329  1
  V  V22  1  0.37655829  0.75228442  0.12373093  1
  V  V23  1  0.12250435  0.37456224  0.25479805  1
  V  V24  1  0.11848239  0.25290737  0.37530570  1
  V  V25  1  0.63218587  -0.01058308  0.13770071  1
  V  V26  1  0.05932699  0.57000168  0.67804185  1
  V  V27  1  0.75138172  0.25931477  0.50484655  1
  V  V28  1  0.37558569  0.62351773  0.74699337  1
  V  V29  1  0.50798040  0.87960690  0.87333130  1
  V  V30  1  0.74765164  0.87180464  0.62843840  1
  V  V31  1  0.49916239  0.25209124  0.24918117  1
  V  V32  1  0.87062824  -0.00016512  0.88866799  1
  V  V33  1  0.49978886  0.62328433  0.62384207  1
  V  V34  1  0.62951467  0.74747617  0.86976365  1
  V  V35  1  0.49519381  0.00145874  0.49533819  1
  V  V36  1  0.87016383  0.25654154  0.62637018  1
  V  V37  1  0.37221189  0.62394184  0.25110865  1
  V  V38  1  0.00280623  0.75725527  0.74260097  1
  V  V39  1  0.50580114  0.75310832  0.74755430  1
  V  V40  1  0.64256696  0.49402723  0.12514440  1
  V  V41  1  0.63490804  0.37736916  0.24776146  1
  V  V42  1  0.62549889  0.37114694  0.74178161  1
  V  V43  1  0.75589361  0.61002707  0.37325053  1
  V  V44  1  0.50180915  0.87672166  0.37120839  1
  V  V45  1  0.24724107  0.49901773  0.25092261  1
  V  V46  1  0.87141412  0.10712696  0.25259595  1
  V  V47  1  0.37154999  0.49772918  0.37635440  1
  V  V48  1  0.37274446  0.24572931  0.63126039  1
  V  V49  1  0.50018588  0.37400685  0.87469870  1
  V  V50  1  0.62378499  -0.00298711  0.63078012  1
  V  V51  1  -0.00541721  0.48470484  0.49690728  1
  V  V52  1  -0.00306793  0.12157291  0.62617423  1
  V  V53  1  0.27637578  -0.00009870  0.75549276  1
  V  V54  1  0.25260257  0.62750309  0.87700231  1
  V  V55  1  0.24542803  0.37681643  0.12494133  1
  V  V56  1  0.37017770  0.37333818  0.50463058  1
  V  V57  1  0.24735770  0.62518966  0.37809014  1
  V  V58  1  0.66974979  0.66546509  0.04295179  1
  V  V59  1  0.37516929  0.11668418  0.25165104  1
  V  V60  1  0.74978539  0.26737919  0.00100615  1
  V  V61  1  0.50288279  0.12625481  0.12425162  1
  V  V62  1  0.50025961  0.75117137  0.25027900  1
  V  V63  1  -0.00710633  0.24990185  0.25265349  1
  V  V64  1  0.25098213  0.75575087  -0.00128488  1
  V  V65  1  0.74782171  0.62335980  0.87065101  1
  V  V66  1  0.75191064  0.74923298  0.49745118  1
  V  V67  1  0.12715306  0.88709205  0.74986872  1
  V  V68  1  0.00013468  0.87960162  0.87716582  1
  V  V69  1  0.87458246  0.12335025  0.75271088  1
  V  V70  1  0.62434601  0.24865251  0.37474115  1
  V  V71  1  0.87248860  0.48537043  0.87696704  1
  V  V72  1  0.62471383  0.12517671  0.50258670  1
  V  V73  1  0.12037700  0.87417875  0.24412368  1
  V  V74  1  0.50229720  0.50046634  0.00257942  1
  V  V75  1  0.49950059  0.00303507  -0.00357230  1
  V  V76  1  0.00481681  0.00706341  -0.00381782  1
  V  V77  1  0.49718028  0.37479707  0.37383908  1
  V  V78  1  0.87435488  0.88535404  0.49547676  1
  V  V79  1  -0.00210541  0.49526947  0.00072601  1
  V  V80  1  0.75095995  0.49226089  0.73925705  1
  V  V81  1  0.49783875  0.49907982  0.50102148  1
  V  V82  1  0.49582155  0.24153526  0.75309663  1
  V  V83  1  0.25038658  0.87908472  0.62192390  1
  V  V84  1  0.01977642  0.36621120  0.87036750  1
  Zn  Zn85  1  0.11906042  0.50463640  0.12548122  1
  Zn  Zn86  1  0.62892726  0.49355574  0.62050043  1
  Zn  Zn87  1  0.49306377  0.12035881  0.63071197  1
  Zn  Zn88  1  0.12347530  0.62910958  0.00747769  1
  Zn  Zn89  1  0.74802903  0.12571048  0.87700931  1
  Zn  Zn90  1  0.12894498  0.75762566  0.87486969  1
  Zn  Zn91  1  0.62483666  0.24881310  0.87693286  1
  Zn  Zn92  1  0.25196683  -0.00162330  0.24909268  1
  Zn  Zn93  1  0.00443852  0.64817354  0.15382397  1
  Zn  Zn94  1  -0.00726085  0.00465293  0.49290658  1
  Zn  Zn95  1  0.25323374  0.88229657  0.12254927  1
  Zn  Zn96  1  0.87498874  0.62962990  0.25357666  1
  Zn  Zn97  1  0.37213676  0.37410797  -0.00185815  1
  Zn  Zn98  1  0.86900563  0.84975029  0.01009126  1
  Zn  Zn99  1  0.37614698  0.75014141  0.62225683  1
  Zn  Zn100  1  0.24679055  0.25070558  0.50177635  1
  Zn  Zn101  1  0.62222773  0.75192185  0.37555846  1
  Zn  Zn102  1  0.23577335  0.49980637  0.75056516  1
  Zn  Zn103  1  0.88307870  0.74663700  0.61551411  1
  Zn  Zn104  1  0.12643369  0.00376395  0.62497306  1
  Zn  Zn105  1  -0.01293690  0.88778850  0.35887172  1
  Zn  Zn106  1  0.02211514  0.24963832  0.75232737  1
  Zn  Zn107  1  0.18301643  0.18579163  0.18775424  1
  Zn  Zn108  1  0.18957458  0.18604999  0.68774940  1
  Zn  Zn109  1  0.18715126  0.68822047  0.18448939  1
  Zn  Zn110  1  0.19342813  0.69745225  0.69225259  1
  Zn  Zn111  1  0.69167080  0.18581561  0.18552960  1
  Zn  Zn112  1  0.68665045  0.18427039  0.68897014  1
  Zn  Zn113  1  0.71023495  0.72428689  0.22000694  1
  Zn  Zn114  1  0.68757807  0.68502635  0.68440299  1
  Zn  Zn115  1  0.30882633  0.30733434  0.31247159  1
  Zn  Zn116  1  0.31018645  0.31351944  0.81274781  1
  Zn  Zn117  1  0.30867255  0.81589218  0.31059744  1
  Zn  Zn118  1  0.31940251  0.81510131  0.81203334  1
  Zn  Zn119  1  0.80637222  0.29938961  0.31302325  1
  Zn  Zn120  1  0.80930491  0.30791192  0.81103032  1
  Zn  Zn121  1  0.80321371  0.82617643  0.31517245  1
  Zn  Zn122  1  0.81655818  0.81154736  0.81623479  1
  Zn  Zn123  1  0.18251786  0.43759107  0.44394523  1
  Zn  Zn124  1  0.18753436  0.43881615  0.93964976  1
  Zn  Zn125  1  0.18315208  0.94312364  0.43195539  1
  Zn  Zn126  1  0.18880726  0.95021914  0.93318921  1
  Zn  Zn127  1  0.68373418  0.43515702  0.43707319  1
  Zn  Zn128  1  0.68250456  0.44325074  0.93340330  1
  Zn  Zn129  1  0.68258567  0.93612803  0.44095606  1
  Zn  Zn130  1  0.68584329  0.93179826  0.94997040  1
  Zn  Zn131  1  0.31423117  0.06528712  0.05954527  1
  Zn  Zn132  1  0.30981628  0.06345191  0.56193972  1
  Zn  Zn133  1  0.31209769  0.56121217  0.06020710  1
  Zn  Zn134  1  0.30563097  0.55991899  0.56635015  1
  Zn  Zn135  1  0.85180409  -0.00226808  0.11831046  1
  Zn  Zn136  1  0.80706251  0.06628021  0.56604695  1
  Zn  Zn137  1  0.84358284  0.67748847  0.06427187  1
  Zn  Zn138  1  0.81635224  0.56219524  0.55995629  1
  Zn  Zn139  1  0.43524780  0.43578833  0.18803716  1
  Zn  Zn140  1  0.43627225  0.43491339  0.68767507  1
  Zn  Zn141  1  0.44580184  0.93680795  0.18089843  1
  Zn  Zn142  1  0.44224237  0.92896740  0.67940760  1
  Zn  Zn143  1  0.86646384  0.49289008  0.13007049  1
  Zn  Zn144  1  0.93932009  0.42953801  0.69538928  1
  Zn  Zn145  1  0.92970475  0.81173364  0.19059366  1
  Zn  Zn146  1  0.93298963  0.94060234  0.68598054  1
  Zn  Zn147  1  0.05958722  0.06159799  0.30867764  1
  Zn  Zn148  1  0.08434425  0.09180388  0.80736912  1
  Zn  Zn149  1  0.06364577  0.56377809  0.31585866  1
  Zn  Zn150  1  0.05769502  0.56848513  0.84892656  1
  Zn  Zn151  1  0.56068171  0.06345276  0.31409163  1
  Zn  Zn152  1  0.56545751  0.06344180  0.81552089  1
  Zn  Zn153  1  0.56471871  0.56267344  0.30975333  1
  Zn  Zn154  1  0.56447567  0.56008082  0.80948877  1
  Zn  Zn155  1  0.43584602  0.18810939  0.43856263  1
  Zn  Zn156  1  0.43325910  0.18585269  0.93868860  1
  Zn  Zn157  1  0.43393393  0.68919266  0.43718218  1
  Zn  Zn158  1  0.44104291  0.69150231  0.93733579  1
  Zn  Zn159  1  0.93342489  0.18900049  0.43762100  1
  Zn  Zn160  1  0.93118223  0.19125941  0.94032314  1
  Zn  Zn161  1  0.91917034  0.71514894  0.39043418  1
  Zn  Zn162  1  0.94297535  0.68368510  0.92248321  1
  Zn  Zn163  1  0.05372848  0.31885455  0.06571922  1
  Zn  Zn164  1  0.05876910  0.30380685  0.56572722  1
  Zn  Zn165  1  0.06331389  0.81458059  0.06091481  1
  Zn  Zn166  1  0.06254114  0.81660043  0.56015779  1
  Zn  Zn167  1  0.56359383  0.31478285  0.06235938  1
  Zn  Zn168  1  0.55807620  0.30902219  0.56372089  1
  Zn  Zn169  1  0.74582271  0.86753701  0.12429714  1
  Zn  Zn170  1  0.56277106  0.81323740  0.56102322  1
  O  O171  1  0.10532037  0.11936882  0.13349971  1
  O  O172  1  0.11667211  0.12561247  0.61411924  1
  O  O173  1  0.11640063  0.62288527  0.12432684  1
  O  O174  1  0.12406355  0.62801107  0.62268918  1
  O  O175  1  0.61828389  0.12531551  0.11891893  1
  O  O176  1  0.62072287  0.11626045  0.61769216  1
  O  O177  1  0.61282861  0.60976596  0.11642962  1
  O  O178  1  0.61953852  0.62043071  0.61307050  1
  O  O179  1  0.37542138  0.37740308  0.38351721  1
  O  O180  1  0.38514244  0.38190340  0.87383293  1
  O  O181  1  0.38066882  0.87264261  0.38631863  1
  O  O182  1  0.39207345  0.86617023  0.88625107  1
  O  O183  1  0.87830998  0.37126663  0.36684966  1
  O  O184  1  0.87177771  0.38441981  0.86938341  1
  O  O185  1  0.87090075  0.87999539  0.39081642  1
  O  O186  1  0.88570236  0.88605435  0.87141266  1
  O  O187  1  0.24558922  0.01808244  0.36912808  1
  O  O188  1  0.26705865  -0.01636600  0.85513868  1
  O  O189  1  0.25332591  0.50444906  0.37264721  1
  O  O190  1  0.25593950  0.50861918  0.87107101  1
  O  O191  1  0.73928452  0.01322434  0.37893600  1
  O  O192  1  0.75462401  -0.00196385  0.87071393  1
  O  O193  1  0.74493825  0.51172900  0.38082862  1
  O  O194  1  0.75415042  0.50581898  0.86537741  1
  O  O195  1  0.24794561  0.49129318  0.12978070  1
  O  O196  1  0.24906398  0.48376730  0.63085050  1
  O  O197  1  0.23950973  1.00564342  0.12395809  1
  O  O198  1  0.25056665  0.99621306  0.63652682  1
  O  O199  1  0.73955134  0.50133701  0.12043009  1
  O  O200  1  0.75014291  0.50225621  0.63619119  1
  O  O201  1  0.73421381  1.00182827  0.12735867  1
  O  O202  1  0.74205790  0.99285629  0.63324681  1
  O  O203  1  0.00367688  0.36968097  0.25681778  1
  O  O204  1  0.00411175  0.36526918  0.76404710  1
  O  O205  1  0.01657622  0.87236869  0.24632851  1
  O  O206  1  0.00710586  0.87533387  0.75447157  1
  O  O207  1  0.50245351  0.36937511  0.25613091  1
  O  O208  1  0.50475196  0.36708514  0.75726520  1
  O  O209  1  0.48868606  0.86440943  0.25972020  1
  O  O210  1  0.49544966  0.86316448  0.75751861  1
  O  O211  1  0.49219721  0.13388594  0.24638821  1
  O  O212  1  0.50364644  0.13798214  0.75142926  1
  O  O213  1  0.48815344  0.62372397  0.24267830  1
  O  O214  1  0.49506545  0.62986328  0.74324541  1
  O  O215  1  0.98597018  0.13159300  0.24581186  1
  O  O216  1  0.98751567  0.11779561  0.74331985  1
  O  O217  1  0.99105325  0.62678540  0.26445931  1
  O  O218  1  0.99985528  0.62951488  0.74654524  1
  O  O219  1  0.37320189  0.25435814  0.01415079  1
  O  O220  1  0.37338170  0.26212490  0.50647819  1
  O  O221  1  0.37228714  0.75845575  0.00475816  1
  O  O222  1  0.36045411  0.75596069  0.49907053  1
  O  O223  1  0.85981052  0.24897505  0.01399294  1
  O  O224  1  0.86308807  0.24196882  0.51232921  1
  O  O225  1  0.86850105  0.74068328  -0.02127473  1
  O  O226  1  0.86596590  0.76063185  0.49763385  1
  O  O227  1  0.12342069  0.23956850  0.49236267  1
  O  O228  1  0.13221329  0.25173506  1.00876109  1
  O  O229  1  0.13339937  0.74693149  0.49622671  1
  O  O230  1  0.13857361  0.75172255  0.99504249  1
  O  O231  1  0.62622449  0.24062040  0.49785387  1
  O  O232  1  0.63574643  0.24685235  1.00271319  1
  O  O233  1  0.62950133  0.74008646  0.50009631  1
  O  O234  1  0.61952432  0.73138089  0.98702360  1
  O  O235  1  0.49140743  0.24761269  0.12890454  1
  O  O236  1  0.49076156  0.24817189  0.63585097  1
  O  O237  1  0.48995584  0.73525709  0.13387327  1
  O  O238  1  0.49854433  0.74461919  0.63108363  1
  O  O239  1  0.98255649  0.24715726  0.12715198  1
  O  O240  1  0.99169015  0.23698275  0.63249700  1
  O  O241  1  0.98638125  0.75169782  0.11078698  1
  O  O242  1  1.00014670  0.75768949  0.63791561  1
  O  O243  1  0.00772307  0.24377386  0.36757410  1
  O  O244  1  -0.00745615  0.26549334  0.87876358  1
  O  O245  1  0.01848007  0.76910970  0.38725832  1
  O  O246  1  0.00608417  0.76249060  0.85995916  1
  O  O247  1  0.50466441  0.25549366  0.37024573  1
  O  O248  1  0.49806906  0.25791183  0.87094994  1
  O  O249  1  0.49501020  0.75850998  0.36881791  1
  O  O250  1  0.51146236  0.75188390  0.86645529  1
  O  O251  1  0.24212159  0.12925595  0.49258083  1
  O  O252  1  0.25263797  0.14539060  1.00320627  1
  O  O253  1  0.24221922  0.63270750  0.49854106  1
  O  O254  1  0.25199812  0.63456888  0.99192461  1
  O  O255  1  0.73715548  0.12792074  0.49511115  1
  O  O256  1  0.73744174  0.13368244  1.00237190  1
  O  O257  1  0.74221041  0.63010045  0.49774550  1
  O  O258  1  0.73996070  0.61637512  0.98601613  1
  O  O259  1  0.25024627  0.36440715  0.00703082  1
  O  O260  1  0.25510422  0.37308918  0.51217112  1
  O  O261  1  0.26080285  0.87174597  -0.00293397  1
  O  O262  1  0.25319093  0.87233761  0.50076514  1
  O  O263  1  0.74229359  0.36570988  -0.00389894  1
  O  O264  1  0.73958611  0.35816064  0.49891106  1
  O  O265  1  0.75599921  0.87457978  0.01033308  1
  O  O266  1  0.75536044  0.86883515  0.50613450  1
  O  O267  1  0.13088670  0.49177202  0.25175744  1
  O  O268  1  0.11475678  0.52001923  0.74613813  1
  O  O269  1  0.12545075  0.99429019  0.23535744  1
  O  O270  1  0.13103940  0.99281202  0.74856701  1
  O  O271  1  0.61841918  0.49272988  0.23360722  1
  O  O272  1  0.63285209  0.49026564  0.74650229  1
  O  O273  1  0.61410623  1.00405238  0.23652583  1
  O  O274  1  0.63038928  1.00317748  0.73851590  1
  O  O275  1  0.37714834  0.01448610  0.24144760  1
  O  O276  1  0.37377758  -0.00232024  0.74109883  1
  O  O277  1  0.36652084  0.50322255  0.25666427  1
  O  O278  1  0.37941082  0.51241839  0.75635528  1
  O  O279  1  0.87272493  0.01041627  0.24998233  1
  O  O280  1  0.86579085  0.00673180  0.75881074  1
  O  O281  1  0.88193647  0.48687859  0.25233857  1
  O  O282  1  0.86852608  0.50313454  0.75355401  1
  O  O283  1  0.13350294  0.36011928  0.37157145  1
  O  O284  1  0.11855583  0.37273480  0.87349137  1
  O  O285  1  0.13455788  0.86902104  0.36126679  1
  O  O286  1  0.11804781  0.88017590  0.86677147  1
  O  O287  1  0.61496319  0.36983832  0.36800393  1
  O  O288  1  0.61160810  0.37487441  0.86650455  1
  O  O289  1  0.60612411  0.87114298  0.38424216  1
  O  O290  1  0.61503929  0.86301186  0.88012968  1
  O  O291  1  0.38123973  0.13391746  0.13088421  1
  O  O292  1  0.37529091  0.14172794  0.61643417  1
  O  O293  1  0.37818298  0.62856578  0.13056391  1
  O  O294  1  0.37832960  0.62654194  0.63166068  1
  O  O295  1  0.88356808  0.11584254  0.13758976  1
  O  O296  1  0.88006959  0.12625925  0.63360007  1
  O  O297  1  0.88378948  0.60757883  0.13747855  1
  O  O298  1  0.87177136  0.62883847  0.63756551  1
  O  O299  1  0.25230171  0.25587286  0.11846962  1
  O  O300  1  0.25586372  0.25845839  0.62692812  1
  O  O301  1  0.25874319  0.75101011  0.11187737  1
  O  O302  1  0.25202372  0.76007572  0.61567309  1
  O  O303  1  0.76015100  0.25328316  0.11687125  1
  O  O304  1  0.75725324  0.23996364  0.61673254  1
  O  O305  1  0.73384786  0.71672064  0.10525048  1
  O  O306  1  0.74978439  0.75639230  0.61574638  1
  O  O307  1  0.24012017  0.23998564  0.37663102  1
  O  O308  1  0.25033197  0.24450204  0.88691812  1
  O  O309  1  0.24332624  0.74520665  0.38336670  1
  O  O310  1  0.25695028  0.74680756  0.88432391  1
  O  O311  1  0.74052694  0.23825723  0.38531093  1
  O  O312  1  0.74898083  0.24752494  0.89051588  1
  O  O313  1  0.74234194  0.74394107  0.38993579  1
  O  O314  1  0.73665987  0.74146788  0.86113675  1
  O  O315  1  -0.00585089  0.12041634  0.00678619  1
  O  O316  1  0.00473073  0.12542152  0.50749018  1
  O  O317  1  0.01402330  0.60359238  -0.03653074  1
  O  O318  1  0.01022200  0.62223520  0.49915866  1
  O  O319  1  0.50671745  0.12151944  0.00444745  1
  O  O320  1  0.50801602  0.11840969  0.50038636  1
  O  O321  1  0.49069022  0.61644618  0.01156845  1
  O  O322  1  0.50426723  0.62104494  0.50376228  1
  O  O323  1  0.49031133  0.37873284  0.49518181  1
  O  O324  1  0.49773032  0.38226014  0.99207202  1
  O  O325  1  0.49005519  0.88157484  0.49533132  1
  O  O326  1  0.49420276  0.88785856  0.98963411  1
  O  O327  1  1.00590633  0.38652497  0.50760114  1
  O  O328  1  1.00491228  0.38614789  0.98590637  1
  O  O329  1  0.97981352  0.87901312  0.50821431  1
  O  O330  1  0.99890639  0.88359710  0.98558995  1
  O  O331  1  0.49127583  0.49486526  0.38076835  1
  O  O332  1  0.49783612  0.49576690  0.88365700  1
  O  O333  1  0.50208240  0.99398281  0.38782353  1
  O  O334  1  0.50747725  0.99101076  0.88182382  1
  O  O335  1  0.99695557  0.48881051  0.38251620  1
  O  O336  1  0.99059369  0.47972420  0.87287829  1
  O  O337  1  1.01110323  0.99484538  0.38203060  1
  O  O338  1  0.99512253  0.99859256  0.88342635  1
  O  O339  1  0.00365278  0.00906322  0.10741011  1
  O  O340  1  0.00003889  0.01161393  0.62101285  1
  O  O341  1  -0.00235703  0.49437756  0.10214042  1
  O  O342  1  0.00500812  0.50149327  0.62515319  1
  O  O343  1  0.50730242  0.00957839  0.11532498  1
  O  O344  1  0.50725484  -0.00012492  0.61544925  1
  O  O345  1  0.49499063  0.50457890  0.11558892  1
  O  O346  1  0.49888614  0.50584543  0.61758181  1
  O  O347  1  0.24422997  0.37816366  0.24295081  1
  O  O348  1  0.24996614  0.37922442  0.73999126  1
  O  O349  1  0.24395702  0.88058873  0.24237818  1
  O  O350  1  0.24910527  0.88147554  0.74194315  1
  O  O351  1  0.73318777  0.36894227  0.25672454  1
  O  O352  1  0.73791375  0.38100084  0.75573017  1
  O  O353  1  0.73178886  0.83426311  0.23249648  1
  O  O354  1  0.75535103  0.88546025  0.74325830  1
  O  O355  1  0.25891763  0.12718523  0.25496863  1
  O  O356  1  0.25809893  0.11122983  0.76040520  1
  O  O357  1  0.25332082  0.61871555  0.25677905  1
  O  O358  1  0.26053036  0.62504417  0.75498899  1
  O  O359  1  0.76279424  0.13066476  0.25792575  1
  O  O360  1  0.75353790  0.11031321  0.75302137  1
  O  O361  1  0.75171824  0.62871473  0.26979788  1
  O  O362  1  0.75663644  0.61694924  0.75297752  1
  O  O363  1  0.36625181  0.13494317  0.36375288  1
  O  O364  1  0.35360208  0.12139521  0.88664421  1
  O  O365  1  0.36662020  0.61765394  0.37247987  1
  O  O366  1  0.36924552  0.62315979  0.86833816  1
  O  O367  1  0.86565029  0.12995437  0.36179576  1
  O  O368  1  0.87051550  0.11671971  0.86961064  1
  O  O369  1  0.85751971  0.61932457  0.38567022  1
  O  O370  1  0.86658784  0.61252916  0.85847920  1
  O  O371  1  0.13324147  0.37632532  0.13340403  1
  O  O372  1  0.13762335  0.36460954  0.62599501  1
  O  O373  1  0.12966918  0.88422132  0.12861218  1
  O  O374  1  0.13353617  0.88099786  0.62968484  1
  O  O375  1  0.62053332  0.38735661  0.13255762  1
  O  O376  1  0.61688851  0.37488372  0.63792568  1
  O  O377  1  0.62003174  0.89265228  0.12317578  1
  O  O378  1  0.63748229  0.88319393  0.61810005  1
  O  O379  1  0.11507518  0.25516274  0.25560490  1
  O  O380  1  0.12096808  0.19874479  0.77316677  1
  O  O381  1  0.13478101  0.75901968  0.25908823  1
  O  O382  1  0.12204137  0.76820627  0.75061029  1
  O  O383  1  0.61804303  0.25579815  0.25277862  1
  O  O384  1  0.61832898  0.25536489  0.75371127  1
  O  O385  1  0.60042578  0.73146922  0.25754755  1
  O  O386  1  0.61359988  0.74444596  0.75356181  1
  O  O387  1  0.37785062  0.24568416  0.23824238  1
  O  O388  1  0.38298676  0.25515712  0.74300334  1
  O  O389  1  0.37832322  0.74312417  0.24499666  1
  O  O390  1  0.38572085  0.73900143  0.74856388  1
  O  O391  1  0.87497596  0.24894297  0.23312136  1
  O  O392  1  0.86681592  0.23222935  0.74542116  1
  O  O393  1  0.88335934  0.75097630  0.27836635  1
  O  O394  1  0.88605838  0.74111750  0.75005176  1
  O  O395  1  0.37589570  0.48905217  0.49813543  1
  O  O396  1  0.38237031  0.49590020  0.99212895  1
  O  O397  1  0.38296980  0.99323731  0.50420003  1
  O  O398  1  0.38924602  0.99462304  1.00543554  1
  O  O399  1  0.89681770  0.50194189  0.50852589  1
  O  O400  1  0.89105770  0.50311413  0.98795163  1
  O  O401  1  0.86850986  0.98790968  0.50669868  1
  O  O402  1  0.88339337  1.00233708  0.99151904  1
  O  O403  1  0.11760522  -0.00502904  0.01197736  1
  O  O404  1  0.12666398  0.01429683  0.50298296  1
  O  O405  1  0.11644468  0.50321062  0.00084670  1
  O  O406  1  0.11156062  0.51091932  0.49556653  1
  O  O407  1  0.61537154  0.00970439  0.00665296  1
  O  O408  1  0.61751351  0.00646479  0.51048967  1
  O  O409  1  0.61404707  0.49560182  0.01236017  1
  O  O410  1  0.61565299  0.50498066  0.50196882  1
  O  O411  1  0.36063222  0.36810616  0.12631254  1
  O  O412  1  0.36866635  0.36650206  0.61964331  1
  O  O413  1  0.37759084  0.86941613  0.11161998  1
  O  O414  1  0.36840351  0.87105359  0.60998486  1
  O  O415  1  0.87330215  0.37361338  0.12200008  1
  O  O416  1  0.87755241  0.35530245  0.63571526  1
  O  O417  1  0.86830743  0.88367573  0.12331553  1
  O  O418  1  0.86124321  0.87254338  0.61837021  1
  O  O419  1  0.13007537  0.13455247  0.37841789  1
  O  O420  1  0.16602172  0.09111935  0.89112777  1
  O  O421  1  0.13073029  0.63542233  0.38393952  1
  O  O422  1  0.14622515  0.63625509  0.87032977  1
  O  O423  1  0.62755246  0.13101205  0.38250257  1
  O  O424  1  0.62692145  0.12896409  0.88770027  1
  O  O425  1  0.62888634  0.62346262  0.38760038  1
  O  O426  1  0.63826052  0.62930949  0.86499670  1
