# generated using pymatgen
data_V85Zn86O256
_symmetry_space_group_name_H-M   'P 1'
_cell_length_a   16.94395350
_cell_length_b   16.95047849
_cell_length_c   16.94409166
_cell_angle_alpha   90.05800088
_cell_angle_beta   89.98043367
_cell_angle_gamma   89.92359685
_symmetry_Int_Tables_number   1
_chemical_formula_structural   V85Zn86O256
_chemical_formula_sum   'V85 Zn86 O256'
_cell_volume   4866.47359273
_cell_formula_units_Z   1
loop_
 _symmetry_equiv_pos_site_id
 _symmetry_equiv_pos_as_xyz
  1  'x, y, z'
loop_
 _atom_site_type_symbol
 _atom_site_label
 _atom_site_symmetry_multiplicity
 _atom_site_fract_x
 _atom_site_fract_y
 _atom_site_fract_z
 _atom_site_occupancy
  V  V0  1  0.62422469  0.49872874  0.12468053  1
  V  V1  1  0.36399724  0.12262266  0.74984775  1
  V  V2  1  -0.00325458  0.51344569  0.00469235  1
  V  V3  1  0.12249248  0.86953878  0.75080667  1
  V  V4  1  0.50036438  0.62741546  0.12393882  1
  V  V5  1  0.86251806  0.50034990  0.86644358  1
  V  V6  1  0.12152802  0.24855023  0.37358703  1
  V  V7  1  0.11295969  0.12366965  0.50368929  1
  V  V8  1  0.63091005  0.00209513  0.62968681  1
  V  V9  1  0.37435845  0.25859077  0.62407269  1
  V  V10  1  0.87673167  0.36430231  0.50743276  1
  V  V11  1  0.63024050  0.00110578  0.12759558  1
  V  V12  1  0.74954552  0.24857816  -0.00194639  1
  V  V13  1  0.49641073  0.00148481  -0.00035821  1
  V  V14  1  0.63188760  0.74368528  0.87654289  1
  V  V15  1  0.49867840  0.75143248  0.75151242  1
  V  V16  1  0.62804431  0.12364235  0.49976738  1
  V  V17  1  0.24741889  0.75105397  0.50258306  1
  V  V18  1  0.00154720  0.49865394  0.50323745  1
  V  V19  1  0.88249953  0.62196815  0.24542655  1
  V  V20  1  0.37601349  0.63187260  0.24990571  1
  V  V21  1  0.87109238  0.11875883  0.73476292  1
  V  V22  1  0.88864563  0.74485822  0.12066320  1
  V  V23  1  0.37553982  0.87493209  0.00817801  1
  V  V24  1  0.50212901  0.62318426  0.62799561  1
  V  V25  1  0.25096624  0.12347964  0.37997927  1
  V  V26  1  0.62697171  0.62808843  0.50472626  1
  V  V27  1  -0.00314360  -0.01869256  0.49872243  1
  V  V28  1  0.75853070  0.87682556  0.62412938  1
  V  V29  1  0.50135627  0.87585920  0.37545152  1
  V  V30  1  0.12022028  0.00472413  0.63216183  1
  V  V31  1  0.62961074  0.24945919  0.37620507  1
  V  V32  1  0.36963705  0.25867175  0.12185457  1
  V  V33  1  0.12525112  0.38414024  0.74669326  1
  V  V34  1  0.87614965  0.88090317  -0.00428300  1
  V  V35  1  0.76262326  0.75176202  0.50190345  1
  V  V36  1  0.24640422  0.38623976  0.62426868  1
  V  V37  1  0.63287574  0.87799181  0.25072242  1
  V  V38  1  0.24925250  0.88441806  0.63151288  1
  V  V39  1  0.25123710  0.25439802  0.50166033  1
  V  V40  1  0.38060604  0.50074930  0.37863065  1
  V  V41  1  0.00178686  0.24635607  0.23911438  1
  V  V42  1  0.00587952  0.01017561  -0.00370279  1
  V  V43  1  0.37620336  0.00018279  0.37689867  1
  V  V44  1  0.50207836  0.75148725  0.24571135  1
  V  V45  1  0.49944304  0.25196147  0.25081830  1
  V  V46  1  0.62381413  0.25096359  0.87196781  1
  V  V47  1  0.63116794  0.88023024  0.75183212  1
  V  V48  1  0.24956433  0.62778601  0.37338056  1
  V  V49  1  0.36496712  0.00067084  0.87371880  1
  V  V50  1  0.35817214  0.50345307  0.87471464  1
  V  V51  1  0.37483306  0.87694933  0.50177217  1
  V  V52  1  0.25225641  0.86359407  0.12761369  1
  V  V53  1  0.75291973  0.37132239  0.12739800  1
  V  V54  1  0.24879018  0.00075468  0.24457912  1
  V  V55  1  0.37621651  0.12695300  0.25199841  1
  V  V56  1  0.50004881  0.12574008  0.62612515  1
  V  V57  1  0.62609329  0.39348571  0.74900979  1
  V  V58  1  0.62618074  0.37427748  0.25311239  1
  V  V59  1  0.87783585  -0.01473352  0.37095532  1
  V  V60  1  0.50306026  0.49604777  0.50750808  1
  V  V61  1  0.12705971  0.60980551  0.50180953  1
  V  V62  1  0.87498476  0.49855220  0.37550031  1
  V  V63  1  0.87778053  0.37443727  -0.00219286  1
  V  V64  1  0.25080266  0.74661894  -0.01102166  1
  V  V65  1  0.23750901  0.25183121  0.00066657  1
  V  V66  1  0.49357377  0.37879113  0.88090593  1
  V  V67  1  0.49748111  0.12611035  0.12456254  1
  V  V68  1  -0.00670252  0.87202052  0.86835912  1
  V  V69  1  0.50305037  0.37502842  0.38318809  1
  V  V70  1  0.85810071  0.62793303  0.75027053  1
  V  V71  1  0.00731652  0.62581324  0.63718486  1
  V  V72  1  -0.00972467  0.24820134  0.73366611  1
  V  V73  1  0.75364695  0.12047817  0.36769497  1
  V  V74  1  0.11980511  0.87073525  0.25476793  1
  V  V75  1  0.75612059  0.11305105  0.86854938  1
  V  V76  1  0.88054382  0.11949602  0.24426377  1
  V  V77  1  0.49656383  0.25051791  0.75269096  1
  V  V78  1  0.36144789  0.62273117  0.75377369  1
  V  V79  1  0.62817892  0.75100855  0.37590555  1
  V  V80  1  0.11829031  0.24037884  0.86950785  1
  V  V81  1  0.75174584  0.87085821  0.12315836  1
  V  V82  1  0.37512056  0.75281128  0.62818818  1
  V  V83  1  0.62426266  0.12425964  -0.00260407  1
  V  V84  1  0.49985507  0.87686663  0.87475118  1
  Zn  Zn85  1  0.75699005  0.74109653  -0.00535223  1
  Zn  Zn86  1  -0.00306264  0.37460758  0.87028525  1
  Zn  Zn87  1  0.11409358  0.75337826  0.38203653  1
  Zn  Zn88  1  0.13092255  0.37732041  0.24216860  1
  Zn  Zn89  1  -0.00053909  0.74897501  0.25481481  1
  Zn  Zn90  1  0.75219638  0.49950691  0.25327748  1
  Zn  Zn91  1  0.88213103  0.24031488  0.11913341  1
  Zn  Zn92  1  0.76357659  0.24168809  0.51177526  1
  Zn  Zn93  1  0.88373244  0.75435927  0.62884734  1
  Zn  Zn94  1  0.25246774  0.49285730  0.24083474  1
  Zn  Zn95  1  0.75331539  0.38171403  0.63617676  1
  Zn  Zn96  1  0.13977509  0.49793049  0.12293571  1
  Zn  Zn97  1  0.49608469  0.50362079  -0.00038850  1
  Zn  Zn98  1  0.50114051  -0.00080339  0.50157590  1
  Zn  Zn99  1  -0.00120603  0.37308866  0.37169652  1
  Zn  Zn100  1  0.36187118  0.38648239  0.01135183  1
  Zn  Zn101  1  0.62875593  0.62043829  -0.00409337  1
  Zn  Zn102  1  0.11239544  0.00678714  0.12546547  1
  Zn  Zn103  1  0.12402987  0.62775895  -0.00048527  1
  Zn  Zn104  1  0.75265296  0.62564719  0.37414993  1
  Zn  Zn105  1  0.23880266  0.11968254  0.87399155  1
  Zn  Zn106  1  0.12248782  0.74171484  0.86718096  1
  Zn  Zn107  1  0.18596861  0.18946485  0.18648058  1
  Zn  Zn108  1  0.18360573  0.19147882  0.68658903  1
  Zn  Zn109  1  0.18355914  0.68129332  0.18050627  1
  Zn  Zn110  1  0.18438322  0.68858869  0.68409963  1
  Zn  Zn111  1  0.69030814  0.18618381  0.18907238  1
  Zn  Zn112  1  0.69297219  0.19466095  0.68743771  1
  Zn  Zn113  1  0.69442864  0.68404906  0.18570926  1
  Zn  Zn114  1  0.68625613  0.69174872  0.68693406  1
  Zn  Zn115  1  0.31672295  0.31335426  0.31688397  1
  Zn  Zn116  1  0.30528133  0.31506672  0.81447167  1
  Zn  Zn117  1  0.31177732  0.81167230  0.31360865  1
  Zn  Zn118  1  0.31141363  0.81790184  0.81126722  1
  Zn  Zn119  1  0.81682927  0.30926754  0.31565638  1
  Zn  Zn120  1  0.80940021  0.31109090  0.81062010  1
  Zn  Zn121  1  0.81356732  0.80672217  0.30846015  1
  Zn  Zn122  1  0.81334254  0.81340121  0.80839342  1
  Zn  Zn123  1  0.20033925  0.42680627  0.41049716  1
  Zn  Zn124  1  0.17905274  0.43136671  0.93580185  1
  Zn  Zn125  1  0.18624664  0.93826003  0.43783916  1
  Zn  Zn126  1  0.18365498  0.93407103  0.93772612  1
  Zn  Zn127  1  0.71009390  0.45849054  0.47704085  1
  Zn  Zn128  1  0.68649218  0.43685456  0.93934677  1
  Zn  Zn129  1  0.69381060  0.93838168  0.43942790  1
  Zn  Zn130  1  0.68779091  0.93509054  0.93997111  1
  Zn  Zn131  1  0.27895319  0.08107169  0.07727607  1
  Zn  Zn132  1  0.30968900  0.06569091  0.56416092  1
  Zn  Zn133  1  0.31292577  0.56698220  0.06556643  1
  Zn  Zn134  1  0.31901281  0.56486422  0.56106535  1
  Zn  Zn135  1  0.81197923  0.05890278  0.05878723  1
  Zn  Zn136  1  0.81476519  0.05753517  0.55717087  1
  Zn  Zn137  1  0.81041709  0.56213662  0.05987124  1
  Zn  Zn138  1  0.81595305  0.55961399  0.57155076  1
  Zn  Zn139  1  0.43702569  0.44183913  0.19232584  1
  Zn  Zn140  1  0.43677083  0.43867002  0.69366886  1
  Zn  Zn141  1  0.43829378  0.93856200  0.18763513  1
  Zn  Zn142  1  0.44104735  0.94158198  0.68928101  1
  Zn  Zn143  1  0.94126679  0.43196999  0.18689878  1
  Zn  Zn144  1  0.94164615  0.44105831  0.68604482  1
  Zn  Zn145  1  0.93767284  0.93886297  0.18240939  1
  Zn  Zn146  1  0.93957700  0.94346513  0.68716303  1
  Zn  Zn147  1  0.06036915  0.06029552  0.31445006  1
  Zn  Zn148  1  0.04855265  0.06099203  0.81124757  1
  Zn  Zn149  1  0.06361514  0.56175374  0.31144013  1
  Zn  Zn150  1  0.05998995  0.56083109  0.82570781  1
  Zn  Zn151  1  0.56329569  0.06126694  0.31231215  1
  Zn  Zn152  1  0.55948722  0.06384132  0.81169967  1
  Zn  Zn153  1  0.56760793  0.56311240  0.31456498  1
  Zn  Zn154  1  0.55241584  0.56490804  0.81497978  1
  Zn  Zn155  1  0.43927926  0.18905634  0.44226644  1
  Zn  Zn156  1  0.42997131  0.18879942  0.93962298  1
  Zn  Zn157  1  0.43938541  0.69027153  0.43868298  1
  Zn  Zn158  1  0.43615639  0.68810334  0.93795033  1
  Zn  Zn159  1  0.93923410  0.18190296  0.43170488  1
  Zn  Zn160  1  0.93523644  0.18928230  0.92920126  1
  Zn  Zn161  1  0.94233218  0.68503006  0.43435761  1
  Zn  Zn162  1  0.93531795  0.68979481  0.92912830  1
  Zn  Zn163  1  0.06543792  0.31697809  0.06399614  1
  Zn  Zn164  1  0.06427046  0.31450141  0.56193989  1
  Zn  Zn165  1  0.06628745  0.82057099  0.06143701  1
  Zn  Zn166  1  0.06488783  0.80749225  0.56658354  1
  Zn  Zn167  1  0.55954852  0.31333342  0.06134087  1
  Zn  Zn168  1  0.57446845  0.30935522  0.56789003  1
  Zn  Zn169  1  0.56239898  0.81245189  0.06170852  1
  Zn  Zn170  1  0.56511432  0.81355396  0.56448306  1
  O  O171  1  0.17240996  0.10066316  0.12354170  1
  O  O172  1  0.13170885  0.11486836  0.61623364  1
  O  O173  1  0.13209087  0.61314356  0.11144114  1
  O  O174  1  0.11584921  0.62366945  0.61828886  1
  O  O175  1  0.62209536  0.11718680  0.12015851  1
  O  O176  1  0.62410560  0.11917874  0.61946981  1
  O  O177  1  0.61577832  0.61522524  0.13071253  1
  O  O178  1  0.61056170  0.63337118  0.61996195  1
  O  O179  1  0.39357172  0.38551400  0.37494635  1
  O  O180  1  0.37858536  0.38725422  0.87165172  1
  O  O181  1  0.38056598  0.88018938  0.38076229  1
  O  O182  1  0.38136331  0.88473027  0.87837628  1
  O  O183  1  0.88174943  0.38188454  0.38082107  1
  O  O184  1  0.87122384  0.38383237  0.87920983  1
  O  O185  1  0.87024005  0.88693207  0.36878757  1
  O  O186  1  0.88390149  0.87145575  0.87869734  1
  O  O187  1  0.25714279  0.00292990  0.36747677  1
  O  O188  1  0.26100244  0.00092199  0.87986292  1
  O  O189  1  0.26585981  0.51910378  0.38659051  1
  O  O190  1  0.25968617  0.49549128  0.87806529  1
  O  O191  1  0.76769777  0.00597691  0.38208244  1
  O  O192  1  0.74128586  0.01513146  0.87578280  1
  O  O193  1  0.76404458  0.50125213  0.37963719  1
  O  O194  1  0.76389292  0.49962572  0.88228590  1
  O  O195  1  0.26053415  0.49388756  0.12770733  1
  O  O196  1  0.26025655  0.48439007  0.61451933  1
  O  O197  1  0.27289521  0.98382894  0.14343090  1
  O  O198  1  0.23867358  0.99034769  0.61675689  1
  O  O199  1  0.74251659  0.48520859  0.12639682  1
  O  O200  1  0.73806477  0.48342627  0.58751382  1
  O  O201  1  0.73738328  0.98819552  0.11799865  1
  O  O202  1  0.73820387  0.99243501  0.61714552  1
  O  O203  1  0.00200577  0.36053066  0.25310095  1
  O  O204  1  0.00565091  0.36438358  0.74556560  1
  O  O205  1  0.01835664  0.87858655  0.24349218  1
  O  O206  1  0.00376219  0.87976040  0.76045334  1
  O  O207  1  0.50658811  0.36992854  0.25834604  1
  O  O208  1  0.50483128  0.37026051  0.76423442  1
  O  O209  1  0.50940036  0.86823833  0.25284618  1
  O  O210  1  0.50996932  0.87064661  0.75354113  1
  O  O211  1  0.49558528  0.13170810  0.24544011  1
  O  O212  1  0.49234601  0.13262164  0.74376797  1
  O  O213  1  0.49725352  0.63368248  0.24815140  1
  O  O214  1  0.49174271  0.63270701  0.74295391  1
  O  O215  1  0.99180233  0.12883515  0.25132255  1
  O  O216  1  0.98199422  0.13630913  0.75069474  1
  O  O217  1  0.98667069  0.62485067  0.25112815  1
  O  O218  1  1.00003833  0.61613592  0.73772845  1
  O  O219  1  0.36924619  0.25833314  0.00908415  1
  O  O220  1  0.36467912  0.24363940  0.51223302  1
  O  O221  1  0.36562477  0.76535479  -0.00991450  1
  O  O222  1  0.36661413  0.75569087  0.50701702  1
  O  O223  1  0.86671084  0.25437959  0.00001799  1
  O  O224  1  0.88441645  0.26013919  0.49646428  1
  O  O225  1  0.87545921  0.75943352  0.00459697  1
  O  O226  1  0.86462795  0.74166296  0.50497247  1
  O  O227  1  0.12913349  0.23940236  0.49617197  1
  O  O228  1  0.13125144  0.25076777  0.99003282  1
  O  O229  1  0.13782352  0.74261012  0.50195867  1
  O  O230  1  0.14283383  0.75747534  1.00156559  1
  O  O231  1  0.62164039  0.23518213  0.49223612  1
  O  O232  1  0.62683419  0.24503545  0.99003314  1
  O  O233  1  0.62813582  0.74225651  0.49586115  1
  O  O234  1  0.62358739  0.75508638  0.98266828  1
  O  O235  1  0.49357089  0.24363169  0.12985326  1
  O  O236  1  0.49243233  0.24564158  0.62992734  1
  O  O237  1  0.50869948  0.74393034  0.13822767  1
  O  O238  1  0.49375151  0.74653852  0.63160423  1
  O  O239  1  1.00196951  0.24506502  0.13460177  1
  O  O240  1  1.00256366  0.24769015  0.63557536  1
  O  O241  1  0.99040437  0.75855073  0.12666494  1
  O  O242  1  0.99864995  0.73128142  0.62074327  1
  O  O243  1  0.00889579  0.24345380  0.36301948  1
  O  O244  1  0.00423396  0.25408558  0.86440946  1
  O  O245  1  0.00236814  0.75042737  0.36936926  1
  O  O246  1  0.00352867  0.76768818  0.87841998  1
  O  O247  1  0.50515682  0.25716636  0.37290042  1
  O  O248  1  0.50334823  0.25634136  0.87305958  1
  O  O249  1  0.50755100  0.75691236  0.36673830  1
  O  O250  1  0.50564662  0.75858179  0.86921036  1
  O  O251  1  0.24119241  0.13225577  0.49632153  1
  O  O252  1  0.26314191  0.14816949  0.98638696  1
  O  O253  1  0.24585808  0.63309708  0.49898347  1
  O  O254  1  0.26166407  0.64668591  0.99995027  1
  O  O255  1  0.74530859  0.12592834  0.48957602  1
  O  O256  1  0.74417018  0.12825402  0.98926775  1
  O  O257  1  0.74074742  0.63464930  0.50292426  1
  O  O258  1  0.74023525  0.63042013  1.00760021  1
  O  O259  1  0.25071064  0.35744700  -0.01048413  1
  O  O260  1  0.24314766  0.35994628  0.50417895  1
  O  O261  1  0.25766522  0.87362411  0.00901977  1
  O  O262  1  0.25411107  0.86856191  0.50657050  1
  O  O263  1  0.75746535  0.36910824  0.00654916  1
  O  O264  1  0.77329021  0.36168153  0.48578161  1
  O  O265  1  0.75733368  0.87057294  0.00578936  1
  O  O266  1  0.74241375  0.86363234  0.51185014  1
  O  O267  1  0.13236121  0.49783590  0.25227828  1
  O  O268  1  0.11463238  0.48185182  0.75556486  1
  O  O269  1  0.13483331  0.99105665  0.25247236  1
  O  O270  1  0.11367238  0.99374300  0.73642440  1
  O  O271  1  0.62799971  0.49325846  0.24142725  1
  O  O272  1  0.62101555  0.49166951  0.75974384  1
  O  O273  1  0.61922865  0.99055556  0.23922198  1
  O  O274  1  0.62090834  0.99299107  0.74166438  1
  O  O275  1  0.37311928  0.00497506  0.26011574  1
  O  O276  1  0.38077390  0.01021643  0.75977136  1
  O  O277  1  0.37830915  0.51301775  0.26462364  1
  O  O278  1  0.37643110  0.50946065  0.76340799  1
  O  O279  1  0.88392640  0.00358910  0.26251805  1
  O  O280  1  0.87653767  0.01931579  0.74594619  1
  O  O281  1  0.87571753  0.50238853  0.25704856  1
  O  O282  1  0.87563433  0.50504833  0.75954772  1
  O  O283  1  0.11477786  0.35404188  0.38490163  1
  O  O284  1  0.12083041  0.36270455  0.85961734  1
  O  O285  1  0.13561705  0.87113732  0.35895581  1
  O  O286  1  0.11525409  0.87437952  0.86506175  1
  O  O287  1  0.61635786  0.36986935  0.36909048  1
  O  O288  1  0.61623621  0.36875844  0.87152253  1
  O  O289  1  0.62259270  0.87404727  0.36756615  1
  O  O290  1  0.61980182  0.87106094  0.86783730  1
  O  O291  1  0.37624266  0.13723309  0.13326437  1
  O  O292  1  0.37882216  0.13122840  0.63265337  1
  O  O293  1  0.39179196  0.62355637  0.13639486  1
  O  O294  1  0.38425028  0.63298418  0.63095592  1
  O  O295  1  0.86120611  0.12254184  0.14051862  1
  O  O296  1  0.85892879  0.12866333  0.63564622  1
  O  O297  1  0.87023625  0.63502019  0.13087171  1
  O  O298  1  0.88565763  0.62185718  0.63816877  1
  O  O299  1  0.25565877  0.25051229  0.11112462  1
  O  O300  1  0.25631930  0.25613648  0.61893296  1
  O  O301  1  0.25415248  0.76124561  0.11907335  1
  O  O302  1  0.25539213  0.76097961  0.61900131  1
  O  O303  1  0.74610144  0.25910401  0.11757469  1
  O  O304  1  0.72826286  0.27013321  0.61588401  1
  O  O305  1  0.75444988  0.76240787  0.12357152  1
  O  O306  1  0.75091051  0.75942949  0.61824590  1
  O  O307  1  0.24537718  0.24150026  0.38429119  1
  O  O308  1  0.23670282  0.24719098  0.87840781  1
  O  O309  1  0.25233641  0.74097355  0.38560250  1
  O  O310  1  0.24556063  0.76116842  0.88611682  1
  O  O311  1  0.74425398  0.23823954  0.37625159  1
  O  O312  1  0.73930444  0.24361362  0.87979904  1
  O  O313  1  0.74533500  0.75041719  0.38443496  1
  O  O314  1  0.73447688  0.75532427  0.87299203  1
  O  O315  1  -0.01106405  0.10830288  -0.00994493  1
  O  O316  1  0.01089192  0.11661541  0.49613120  1
  O  O317  1  -0.00879510  0.61500863  -0.00153796  1
  O  O318  1  0.00957300  0.61693376  0.50704078  1
  O  O319  1  0.50459344  0.12224780  0.00587057  1
  O  O320  1  0.50904489  0.12230146  0.50792906  1
  O  O321  1  0.50555527  0.62736597  0.01069795  1
  O  O322  1  0.50505224  0.62336455  0.50956205  1
  O  O323  1  0.51229099  0.38492705  0.49608456  1
  O  O324  1  0.49429214  0.37578674  0.98926678  1
  O  O325  1  0.49352086  0.87554656  0.49510742  1
  O  O326  1  0.49351269  0.87981935  0.99558889  1
  O  O327  1  0.99350880  0.38149401  0.49932313  1
  O  O328  1  0.98310343  0.36919185  0.99685626  1
  O  O329  1  1.00601883  0.88295235  0.50033816  1
  O  O330  1  0.99361697  0.88056947  0.98931174  1
  O  O331  1  0.49910758  0.49391952  0.38176462  1
  O  O332  1  0.49143531  0.49230363  0.87925360  1
  O  O333  1  0.49448454  0.99288850  0.37715388  1
  O  O334  1  0.49437285  0.99476360  0.88111751  1
  O  O335  1  0.99155154  0.50072211  0.38597514  1
  O  O336  1  0.98359164  0.49287003  0.88582560  1
  O  O337  1  0.99005671  0.99914171  0.38618697  1
  O  O338  1  0.99969351  0.98591647  0.88441181  1
  O  O339  1  -0.00149943  -0.00396731  0.10449324  1
  O  O340  1  0.00652546  -0.00242925  0.60891240  1
  O  O341  1  -0.01002730  0.49437869  0.10427099  1
  O  O342  1  -0.00113031  0.51087683  0.61160075  1
  O  O343  1  0.50739981  0.00658523  0.12023060  1
  O  O344  1  0.51264211  0.00658777  0.62321546  1
  O  O345  1  0.50720141  0.50739416  0.12550095  1
  O  O346  1  0.49180274  0.50969855  0.61830293  1
  O  O347  1  0.23911633  0.38942097  0.29604038  1
  O  O348  1  0.23399762  0.36996794  0.73978634  1
  O  O349  1  0.24663072  0.87927834  0.24511354  1
  O  O350  1  0.24125516  0.87759994  0.73991680  1
  O  O351  1  0.74520480  0.37247435  0.24353673  1
  O  O352  1  0.73069321  0.37456920  0.75415417  1
  O  O353  1  0.73881601  0.87202222  0.24226657  1
  O  O354  1  0.73766178  0.87213658  0.74224713  1
  O  O355  1  0.25848132  0.11736557  0.26155647  1
  O  O356  1  0.26121680  0.12884537  0.75070925  1
  O  O357  1  0.26094030  0.63027295  0.25926938  1
  O  O358  1  0.26272819  0.63041285  0.74183183  1
  O  O359  1  0.75470550  0.12400136  0.26207306  1
  O  O360  1  0.75721691  0.13230385  0.76032476  1
  O  O361  1  0.76255460  0.62000721  0.25321622  1
  O  O362  1  0.75973582  0.62094750  0.74106292  1
  O  O363  1  0.37256150  0.11993467  0.37281740  1
  O  O364  1  0.37745144  0.11640614  0.86540139  1
  O  O365  1  0.37397693  0.62241499  0.36960649  1
  O  O366  1  0.37844224  0.61325138  0.86756717  1
  O  O367  1  0.86957121  0.11617845  0.36522032  1
  O  O368  1  0.85862549  0.12779927  0.86647374  1
  O  O369  1  0.87350919  0.61467933  0.36836939  1
  O  O370  1  0.87736302  0.61521593  0.85871486  1
  O  O371  1  0.12430575  0.38314364  0.12846357  1
  O  O372  1  0.13234932  0.37204196  0.63550419  1
  O  O373  1  0.13804544  0.88384796  0.13493249  1
  O  O374  1  0.13079082  0.88199216  0.63012614  1
  O  O375  1  0.62872454  0.37928690  0.13150329  1
  O  O376  1  0.60958758  0.38067978  0.64906317  1
  O  O377  1  0.63040835  0.88050261  0.13045731  1
  O  O378  1  0.63022625  0.88308568  0.63301363  1
  O  O379  1  0.12066530  0.24823194  0.25783042  1
  O  O380  1  0.11096665  0.25303511  0.75248043  1
  O  O381  1  0.12757688  0.76270207  0.24656563  1
  O  O382  1  0.12606500  0.76540518  0.74644999  1
  O  O383  1  0.61853188  0.25275228  0.25649650  1
  O  O384  1  0.61559090  0.25126170  0.76297143  1
  O  O385  1  0.62149449  0.75705446  0.25555356  1
  O  O386  1  0.61936651  0.75798772  0.75929998  1
  O  O387  1  0.37956739  0.24665671  0.24674012  1
  O  O388  1  0.37822555  0.24373530  0.74539621  1
  O  O389  1  0.38694690  0.74074124  0.25720298  1
  O  O390  1  0.37966398  0.74700719  0.74698609  1
  O  O391  1  0.88466501  0.23886835  0.24788377  1
  O  O392  1  0.88472603  0.24695225  0.75026333  1
  O  O393  1  0.87610462  0.74141118  0.23876064  1
  O  O394  1  0.87128808  0.73252349  0.74859574  1
  O  O395  1  0.39175998  0.50888306  0.48816930  1
  O  O396  1  0.37643236  0.50154606  0.98754824  1
  O  O397  1  0.37514083  0.99549727  0.49400570  1
  O  O398  1  0.38112889  0.99204232  0.99195780  1
  O  O399  1  0.88516101  0.49207975  0.49324193  1
  O  O400  1  0.87886411  0.49290851  0.99172303  1
  O  O401  1  0.88938746  0.99961978  0.49006775  1
  O  O402  1  0.87933521  0.98580978  1.00103743  1
  O  O403  1  0.11021007  -0.00143225  -0.00167167  1
  O  O404  1  0.11505179  0.00360116  0.50378322  1
  O  O405  1  0.10278017  0.49474776  -0.00681825  1
  O  O406  1  0.12254104  0.50726279  0.48881368  1
  O  O407  1  0.61716121  0.00434847  0.00699196  1
  O  O408  1  0.62468284  0.01058318  0.50490932  1
  O  O409  1  0.61995609  0.49729061  0.01373853  1
  O  O410  1  0.61116522  0.51962958  0.49192704  1
  O  O411  1  0.38213256  0.36247850  0.12979420  1
  O  O412  1  0.36907381  0.36303128  0.63435059  1
  O  O413  1  0.37590351  0.87421262  0.11394685  1
  O  O414  1  0.36798148  0.87505022  0.62284199  1
  O  O415  1  0.86598454  0.36866511  0.11782932  1
  O  O416  1  0.87586331  0.37886642  0.61031689  1
  O  O417  1  0.86733112  0.86889783  0.11843694  1
  O  O418  1  0.86269158  0.87436468  0.63378320  1
  O  O419  1  0.13077496  0.12988450  0.38261922  1
  O  O420  1  0.12161790  0.13495511  0.86315190  1
  O  O421  1  0.13582278  0.62923697  0.38354821  1
  O  O422  1  0.12045197  0.63077396  0.88570184  1
  O  O423  1  0.63277402  0.12472138  0.38114555  1
  O  O424  1  0.62985653  0.13268390  0.87749733  1
  O  O425  1  0.62803077  0.63446469  0.38334909  1
  O  O426  1  0.61683826  0.64121185  0.87387664  1
