# generated using pymatgen
data_V85Zn86O256
_symmetry_space_group_name_H-M   'P 1'
_cell_length_a   16.90753559
_cell_length_b   16.90697327
_cell_length_c   16.90877156
_cell_angle_alpha   90.02264691
_cell_angle_beta   90.02910977
_cell_angle_gamma   89.91534388
_symmetry_Int_Tables_number   1
_chemical_formula_structural   V85Zn86O256
_chemical_formula_sum   'V85 Zn86 O256'
_cell_volume   4833.45488803
_cell_formula_units_Z   1
loop_
 _symmetry_equiv_pos_site_id
 _symmetry_equiv_pos_as_xyz
  1  'x, y, z'
loop_
 _atom_site_type_symbol
 _atom_site_label
 _atom_site_symmetry_multiplicity
 _atom_site_fract_x
 _atom_site_fract_y
 _atom_site_fract_z
 _atom_site_occupancy
  V  V0  1  0.62633517  0.86174293  0.75665432  1
  V  V1  1  0.88028592  0.37332015  0.50168101  1
  V  V2  1  0.11353442  0.87890023  0.74353788  1
  V  V3  1  0.62845313  0.37554002  0.74633760  1
  V  V4  1  0.87241317  0.24712883  0.63829868  1
  V  V5  1  0.75447822  0.25106633  0.49555242  1
  V  V6  1  0.36468757  0.25459489  0.12540346  1
  V  V7  1  0.86747463  0.62230552  0.24857662  1
  V  V8  1  0.62117285  0.62391199  0.50550420  1
  V  V9  1  0.62491035  0.50191060  0.62766622  1
  V  V10  1  0.12356641  0.50012201  0.62379540  1
  V  V11  1  0.63064563  0.50024090  0.12687953  1
  V  V12  1  0.75071798  0.61781527  0.37527153  1
  V  V13  1  -0.00438884  0.87608229  0.37600338  1
  V  V14  1  0.24843289  0.88216881  0.62850598  1
  V  V15  1  0.01873373  0.12094140  0.12600173  1
  V  V16  1  0.00395770  0.12209676  0.62639698  1
  V  V17  1  0.12565375  0.62409387  0.49946663  1
  V  V18  1  0.50062186  0.00141136  0.49822886  1
  V  V19  1  0.62473729  0.25598161  0.87588413  1
  V  V20  1  0.63229523  0.37749059  0.25167780  1
  V  V21  1  0.62757017  0.00036292  0.63148192  1
  V  V22  1  0.37480762  0.87999056  0.49827658  1
  V  V23  1  -0.00454537  0.63101821  0.62879647  1
  V  V24  1  0.62690959  0.74918236  0.37526561  1
  V  V25  1  0.38878734  0.74874190  0.62717803  1
  V  V26  1  0.76116055  0.49587319  0.75325286  1
  V  V27  1  0.12402069  0.37263441  0.75370353  1
  V  V28  1  0.36953682  0.12421685  0.75655984  1
  V  V29  1  0.75703710  0.62544796  0.87601808  1
  V  V30  1  0.25087411  0.37458616  0.62486751  1
  V  V31  1  0.63237964  0.12541537  0.49394867  1
  V  V32  1  0.37057040  0.74755447  0.12611047  1
  V  V33  1  0.49974609  0.48943378  -0.00195402  1
  V  V34  1  0.25414879  0.49394957  0.24582151  1
  V  V35  1  0.49732815  0.85786130  0.87054397  1
  V  V36  1  0.01131103  0.22313693  0.77356230  1
  V  V37  1  0.50428195  0.37594728  0.37524969  1
  V  V38  1  0.37642846  0.49613704  0.87232773  1
  V  V39  1  -0.00918903  0.75171936  0.24685075  1
  V  V40  1  0.86924670  0.01361635  0.88021360  1
  V  V41  1  0.75193356  0.37566137  0.12497847  1
  V  V42  1  0.23747992  0.23769511  -0.01382806  1
  V  V43  1  0.50035161  0.12921208  0.62483877  1
  V  V44  1  0.87290274  0.87199415  0.00439775  1
  V  V45  1  -0.00555811  0.62855555  0.12503790  1
  V  V46  1  0.49716933  -0.00016019  -0.00757238  1
  V  V47  1  0.49694280  0.88018039  0.37371246  1
  V  V48  1  0.49958675  0.25613382  0.75451962  1
  V  V49  1  0.87764347  0.24380340  0.12225317  1
  V  V50  1  0.74906142  0.00627767  0.25310835  1
  V  V51  1  0.50069919  0.25081281  0.24853805  1
  V  V52  1  0.25219225  0.75117544  0.50058835  1
  V  V53  1  0.74999601  0.01439878  0.75899134  1
  V  V54  1  0.25289555  0.62556421  0.36768580  1
  V  V55  1  0.11848350  0.25097451  0.37899782  1
  V  V56  1  0.49865829  0.12507482  0.12273299  1
  V  V57  1  0.12383098  0.75033735  0.37308153  1
  V  V58  1  0.88025838  0.49301754  0.37112965  1
  V  V59  1  0.49697051  0.62307915  0.12884301  1
  V  V60  1  0.62676476  -0.00402251  0.12289948  1
  V  V61  1  0.24715776  0.75093488  -0.00256309  1
  V  V62  1  0.12383698  0.62514738  -0.00186438  1
  V  V63  1  0.25316847  0.12204042  0.37689879  1
  V  V64  1  0.37706170  0.11673166  0.25332315  1
  V  V65  1  0.11710770  0.37624006  0.25519485  1
  V  V66  1  0.37829772  0.50483210  0.37061934  1
  V  V67  1  0.11682723  0.74870662  0.86461734  1
  V  V68  1  0.37717287  0.37552871  0.49921376  1
  V  V69  1  0.62878312  0.12361275  -0.00794235  1
  V  V70  1  0.87091502  0.01000966  0.37780525  1
  V  V71  1  -0.00574346  0.50184512  -0.00143156  1
  V  V72  1  0.00812631  -0.00010101  0.50204282  1
  V  V73  1  0.12772838  0.49463904  0.12453992  1
  V  V74  1  0.75558059  0.24506601  -0.00773842  1
  V  V75  1  0.38642141  0.62955420  0.74631325  1
  V  V76  1  0.62175224  0.62887318  -0.00803032  1
  V  V77  1  0.49350175  0.74796199  0.25077908  1
  V  V78  1  0.87494807  0.37656416  -0.00671069  1
  V  V79  1  0.12259312  0.87931445  0.24177486  1
  V  V80  1  0.36321192  0.37456418  -0.00007678  1
  V  V81  1  0.24604256  0.00118834  0.24464223  1
  V  V82  1  0.74852286  0.75030596  0.00395390  1
  V  V83  1  0.01239976  -0.00208549  0.00226626  1
  V  V84  1  -0.00116627  0.38413803  0.87032259  1
  Zn  Zn85  1  0.00240471  0.49414498  0.49527151  1
  Zn  Zn86  1  0.37268662  0.87474775  -0.00210264  1
  Zn  Zn87  1  0.49996717  0.50287514  0.50702802  1
  Zn  Zn88  1  0.24126772  0.00615808  0.75345788  1
  Zn  Zn89  1  0.63224321  0.24590390  0.37074206  1
  Zn  Zn90  1  0.13120027  0.12263888  0.50468123  1
  Zn  Zn91  1  0.75110223  0.87330575  0.62643350  1
  Zn  Zn92  1  0.87178925  0.87442278  0.50653266  1
  Zn  Zn93  1  0.87206623  0.12892179  0.25157566  1
  Zn  Zn94  1  0.62566895  0.87472663  0.24920905  1
  Zn  Zn95  1  0.75673327  0.75074155  0.50371643  1
  Zn  Zn96  1  0.88296375  0.62934176  0.76034826  1
  Zn  Zn97  1  0.25029066  0.24930480  0.49863776  1
  Zn  Zn98  1  0.37561262  0.25194008  0.62484721  1
  Zn  Zn99  1  -0.01022554  0.86929440  0.86921631  1
  Zn  Zn100  1  -0.00244908  0.25197900  0.25156164  1
  Zn  Zn101  1  0.25021224  0.62581525  0.86911008  1
  Zn  Zn102  1  0.75582371  0.86813688  0.13133678  1
  Zn  Zn103  1  0.87238810  0.75772040  0.63623898  1
  Zn  Zn104  1  0.24711620  0.87971210  0.12107515  1
  Zn  Zn105  1  0.25230374  0.50227926  0.75015647  1
  Zn  Zn106  1  0.36608563  0.00192083  0.87851000  1
  Zn  Zn107  1  0.19099932  0.19343652  0.19019755  1
  Zn  Zn108  1  0.18627349  0.19126985  0.68619307  1
  Zn  Zn109  1  0.18337141  0.68565836  0.18744968  1
  Zn  Zn110  1  0.19426291  0.68930477  0.68736771  1
  Zn  Zn111  1  0.68816677  0.18665972  0.18182618  1
  Zn  Zn112  1  0.68888087  0.18937774  0.68446185  1
  Zn  Zn113  1  0.68427390  0.68727463  0.18662938  1
  Zn  Zn114  1  0.69283245  0.68455782  0.68828503  1
  Zn  Zn115  1  0.30929721  0.31251968  0.31321336  1
  Zn  Zn116  1  0.31351181  0.31323326  0.81443613  1
  Zn  Zn117  1  0.31340046  0.81486089  0.31146873  1
  Zn  Zn118  1  0.30960048  0.81244703  0.81104816  1
  Zn  Zn119  1  0.81367452  0.31124194  0.31378947  1
  Zn  Zn120  1  0.81690216  0.31271395  0.81427677  1
  Zn  Zn121  1  0.81037419  0.81543880  0.31424326  1
  Zn  Zn122  1  0.81027536  0.81066978  0.81587159  1
  Zn  Zn123  1  0.18928161  0.43639391  0.43604747  1
  Zn  Zn124  1  0.18785005  0.43541175  0.93619671  1
  Zn  Zn125  1  0.18824987  0.93941830  0.43082176  1
  Zn  Zn126  1  0.18924513  0.93438883  0.92693084  1
  Zn  Zn127  1  0.69578022  0.43579244  0.44133514  1
  Zn  Zn128  1  0.68832587  0.43752376  0.93441611  1
  Zn  Zn129  1  0.68803949  0.93674278  0.43776917  1
  Zn  Zn130  1  0.68783307  0.93322371  0.93449890  1
  Zn  Zn131  1  0.31049031  0.06492257  0.06198425  1
  Zn  Zn132  1  0.31500748  0.06165017  0.56521789  1
  Zn  Zn133  1  0.31214670  0.56488970  0.06160741  1
  Zn  Zn134  1  0.31360089  0.56287193  0.56287647  1
  Zn  Zn135  1  0.81254623  0.06063138  0.06219440  1
  Zn  Zn136  1  0.81487983  0.06177619  0.56478161  1
  Zn  Zn137  1  0.81135742  0.56452253  0.06305788  1
  Zn  Zn138  1  0.80898203  0.55936305  0.56294735  1
  Zn  Zn139  1  0.43892715  0.43554394  0.18677118  1
  Zn  Zn140  1  0.44119204  0.43886148  0.68874210  1
  Zn  Zn141  1  0.43654161  0.93564067  0.18361008  1
  Zn  Zn142  1  0.43994759  0.93727619  0.68814608  1
  Zn  Zn143  1  0.93625437  0.43846526  0.18510229  1
  Zn  Zn144  1  0.93827249  0.43583122  0.68195740  1
  Zn  Zn145  1  0.93483433  0.94215431  0.18602938  1
  Zn  Zn146  1  0.93160423  0.94410435  0.69036637  1
  Zn  Zn147  1  0.06282244  0.06496714  0.31271750  1
  Zn  Zn148  1  0.05600658  0.05349923  0.81335292  1
  Zn  Zn149  1  0.06080040  0.56296065  0.31164655  1
  Zn  Zn150  1  0.06496885  0.56008930  0.81068852  1
  Zn  Zn151  1  0.56291336  0.06167777  0.31199482  1
  Zn  Zn152  1  0.56028283  0.06565861  0.81313122  1
  Zn  Zn153  1  0.56370845  0.56186644  0.31107905  1
  Zn  Zn154  1  0.56199777  0.56099215  0.81366583  1
  Zn  Zn155  1  0.43988508  0.19039804  0.43575125  1
  Zn  Zn156  1  0.43726050  0.19271017  0.93742499  1
  Zn  Zn157  1  0.43853967  0.68822132  0.43949354  1
  Zn  Zn158  1  0.43384757  0.68151601  0.93931078  1
  Zn  Zn159  1  0.93982316  0.18711920  0.44073162  1
  Zn  Zn160  1  0.96170958  0.18267493  0.93454147  1
  Zn  Zn161  1  0.93622369  0.68663696  0.44250866  1
  Zn  Zn162  1  0.93264221  0.69057674  0.93806970  1
  Zn  Zn163  1  0.06409955  0.31368229  0.06328623  1
  Zn  Zn164  1  0.05933741  0.30740147  0.56648871  1
  Zn  Zn165  1  0.05995371  0.81200087  0.06045857  1
  Zn  Zn166  1  0.06125305  0.81168722  0.56191909  1
  Zn  Zn167  1  0.56138060  0.31204897  0.06326911  1
  Zn  Zn168  1  0.56676566  0.31454479  0.56398573  1
  Zn  Zn169  1  0.56083508  0.81208984  0.05923822  1
  Zn  Zn170  1  0.56940638  0.81456573  0.56224935  1
  O  O171  1  0.11695567  0.12658188  0.13011886  1
  O  O172  1  0.11043002  0.12911983  0.62377267  1
  O  O173  1  0.11355973  0.61601075  0.12131925  1
  O  O174  1  0.12243788  0.61767209  0.62045050  1
  O  O175  1  0.61863189  0.11602037  0.11397749  1
  O  O176  1  0.61563422  0.12059048  0.61967444  1
  O  O177  1  0.61856594  0.61594972  0.11770260  1
  O  O178  1  0.62794041  0.61732131  0.61652318  1
  O  O179  1  0.37968882  0.38344921  0.38060535  1
  O  O180  1  0.37560485  0.38325280  0.88471976  1
  O  O181  1  0.38515520  0.86899790  0.38522725  1
  O  O182  1  0.38742036  0.87583018  0.87348362  1
  O  O183  1  0.87092345  0.38413345  0.38234980  1
  O  O184  1  0.87434301  0.38475823  0.88871221  1
  O  O185  1  0.88675553  0.88346327  0.37346861  1
  O  O186  1  0.87320158  0.88199040  0.88906570  1
  O  O187  1  0.24924850  0.01354447  0.36389536  1
  O  O188  1  0.25398952  -0.00014865  0.86678179  1
  O  O189  1  0.25806675  0.50628755  0.36775132  1
  O  O190  1  0.26330420  0.50168472  0.87567012  1
  O  O191  1  0.75847491  -0.00258766  0.36733922  1
  O  O192  1  0.75928347  0.00250490  0.87500393  1
  O  O193  1  0.75946880  0.51147028  0.37584301  1
  O  O194  1  0.74539694  0.50677536  0.86229697  1
  O  O195  1  0.24153963  0.50947099  0.13441654  1
  O  O196  1  0.24075386  0.49077747  0.62326359  1
  O  O197  1  0.25530728  0.99818905  0.13899610  1
  O  O198  1  0.25401162  0.98640610  0.62873782  1
  O  O199  1  0.73862571  0.49323475  0.11935075  1
  O  O200  1  0.74014750  0.50505253  0.64243470  1
  O  O201  1  0.74073892  0.99725754  0.13033030  1
  O  O202  1  0.73936401  1.00148246  0.63490035  1
  O  O203  1  0.01263881  0.37496079  0.24566056  1
  O  O204  1  0.00754243  0.38011506  0.75696785  1
  O  O205  1  0.00290265  0.87033205  0.25358015  1
  O  O206  1  0.01008104  0.87685940  0.74805404  1
  O  O207  1  0.51183687  0.37087175  0.25391773  1
  O  O208  1  0.50842381  0.36286430  0.74744684  1
  O  O209  1  0.50018185  0.86801680  0.25701131  1
  O  O210  1  0.50907282  0.87857587  0.76295400  1
  O  O211  1  0.49406847  0.12929598  0.24544519  1
  O  O212  1  0.49612024  0.13633150  0.74272451  1
  O  O213  1  0.50424803  0.63136638  0.23714338  1
  O  O214  1  0.48622528  0.62299364  0.75244611  1
  O  O215  1  0.99682771  0.12424390  0.23506747  1
  O  O216  1  0.98927045  0.11616945  0.73141778  1
  O  O217  1  0.99174536  0.63246954  0.24421314  1
  O  O218  1  1.00027982  0.61513006  0.73339025  1
  O  O219  1  0.37053080  0.25757373  0.00600226  1
  O  O220  1  0.37561726  0.26434503  0.50061495  1
  O  O221  1  0.36496989  0.74939263  0.00629881  1
  O  O222  1  0.37143760  0.75885462  0.50544048  1
  O  O223  1  0.87171608  0.25543716  0.00257546  1
  O  O224  1  0.87162470  0.25436976  0.50545006  1
  O  O225  1  0.86458701  0.75920149  0.00032196  1
  O  O226  1  0.87564685  0.75443858  0.50741167  1
  O  O227  1  0.12835434  0.24877037  0.49271961  1
  O  O228  1  0.13890176  0.25458532  1.00276274  1
  O  O229  1  0.13214024  0.74550633  0.49226708  1
  O  O230  1  0.12967602  0.74398095  0.99440296  1
  O  O231  1  0.63602274  0.24335611  0.50233750  1
  O  O232  1  0.63179367  0.24581929  0.99419794  1
  O  O233  1  0.62309592  0.74255545  0.48760013  1
  O  O234  1  0.62843922  0.73741068  1.00400724  1
  O  O235  1  0.49317685  0.24353512  0.12923667  1
  O  O236  1  0.50105129  0.24407525  0.63208341  1
  O  O237  1  0.49432827  0.74375401  0.13074613  1
  O  O238  1  0.48789326  0.75599517  0.61908675  1
  O  O239  1  0.99569251  0.23743228  0.12266885  1
  O  O240  1  0.99472317  0.23818376  0.63829591  1
  O  O241  1  1.00369989  0.73974720  0.13360568  1
  O  O242  1  1.00328445  0.73299167  0.62345184  1
  O  O243  1  0.01380946  0.24231744  0.37046071  1
  O  O244  1  -0.02545679  0.27632977  0.86665393  1
  O  O245  1  0.00327768  0.75713332  0.36842750  1
  O  O246  1  0.01226020  0.75082610  0.88171312  1
  O  O247  1  0.50559933  0.25877667  0.36690452  1
  O  O248  1  0.51157363  0.24778486  0.86715842  1
  O  O249  1  0.50445112  0.75449474  0.36716393  1
  O  O250  1  0.49789826  0.75959998  0.88015687  1
  O  O251  1  0.25219242  0.12551334  0.49281684  1
  O  O252  1  0.25139532  0.13826320  0.99974459  1
  O  O253  1  0.24556275  0.62871208  0.48948821  1
  O  O254  1  0.24250094  0.63502413  0.99785413  1
  O  O255  1  0.74099294  0.13239401  0.50799668  1
  O  O256  1  0.74032600  0.13405728  1.00650835  1
  O  O257  1  0.74043925  0.62599539  0.49098339  1
  O  O258  1  0.74154790  0.62755657  0.99599898  1
  O  O259  1  0.25983727  0.37000100  0.00065948  1
  O  O260  1  0.26012154  0.37513432  0.50623133  1
  O  O261  1  0.24823982  0.86263092  0.00186484  1
  O  O262  1  0.25760056  0.87358437  0.50209104  1
  O  O263  1  0.75692347  0.36920166  0.00442900  1
  O  O264  1  0.76329319  0.36379367  0.50237470  1
  O  O265  1  0.75318430  0.86636308  0.00223934  1
  O  O266  1  0.74997108  0.87158438  0.50401081  1
  O  O267  1  0.13035615  0.49591216  0.24473928  1
  O  O268  1  0.12942894  0.49007163  0.74090528  1
  O  O269  1  0.13265012  0.99118828  0.25461824  1
  O  O270  1  0.12305768  0.98447801  0.75126944  1
  O  O271  1  0.62093952  0.49113600  0.23815715  1
  O  O272  1  0.63000068  0.49253559  0.74778277  1
  O  O273  1  0.62949769  0.99989874  0.24035980  1
  O  O274  1  0.62817025  0.99846065  0.74630934  1
  O  O275  1  0.37221850  0.01155520  0.24692976  1
  O  O276  1  0.38066791  0.01787076  0.74815254  1
  O  O277  1  0.36758780  0.49489843  0.25752929  1
  O  O278  1  0.37631986  0.50706826  0.75621517  1
  O  O279  1  0.86655609  0.00258687  0.25782582  1
  O  O280  1  0.86517534  -0.00319393  0.77058609  1
  O  O281  1  0.87791672  0.50912095  0.25684550  1
  O  O282  1  0.86333408  0.50186439  0.74506177  1
  O  O283  1  0.12961697  0.36624132  0.36722370  1
  O  O284  1  0.11387912  0.38110421  0.86517344  1
  O  O285  1  0.11400362  0.87067874  0.36545519  1
  O  O286  1  0.11889372  0.86563222  0.86022801  1
  O  O287  1  0.62434700  0.37626049  0.36714622  1
  O  O288  1  0.62792312  0.36387933  0.86609006  1
  O  O289  1  0.61524732  0.86523964  0.37389889  1
  O  O290  1  0.61202920  0.87752913  0.86520358  1
  O  O291  1  0.38072720  0.13322176  0.13319290  1
  O  O292  1  0.38782629  0.12855052  0.63018490  1
  O  O293  1  0.38403042  0.63607682  0.12056445  1
  O  O294  1  0.37370541  0.63189268  0.63494037  1
  O  O295  1  0.87794462  0.13625038  0.12325588  1
  O  O296  1  0.88656816  0.14020467  0.61557634  1
  O  O297  1  0.88518911  0.61945424  0.13343759  1
  O  O298  1  0.89109361  0.61984629  0.62136141  1
  O  O299  1  0.26189498  0.24922446  0.11861901  1
  O  O300  1  0.25246684  0.26333583  0.62170142  1
  O  O301  1  0.25558952  0.74778423  0.12010058  1
  O  O302  1  0.25884995  0.76050456  0.61627471  1
  O  O303  1  0.75733953  0.25528623  0.11306714  1
  O  O304  1  0.76684293  0.24500045  0.62026792  1
  O  O305  1  0.74362382  0.74985928  0.11221134  1
  O  O306  1  0.75007196  0.75353500  0.62195273  1
  O  O307  1  0.24211680  0.23904337  0.37453257  1
  O  O308  1  0.25070055  0.25146321  0.88666705  1
  O  O309  1  0.24699767  0.74257272  0.37766962  1
  O  O310  1  0.23898065  0.74931979  0.88227324  1
  O  O311  1  0.75083013  0.24849018  0.38906970  1
  O  O312  1  0.74576828  0.25323689  0.88595974  1
  O  O313  1  0.74128320  0.74003387  0.37388912  1
  O  O314  1  0.74689325  0.73823322  0.88996089  1
  O  O315  1  0.00133177  0.11002532  0.01405665  1
  O  O316  1  0.00445495  0.11813152  0.50853167  1
  O  O317  1  0.00116544  0.61958974  0.00713580  1
  O  O318  1  0.01044977  0.62052342  0.50905207  1
  O  O319  1  0.50558969  0.11884181  0.00315122  1
  O  O320  1  0.50468126  0.12210574  0.50719237  1
  O  O321  1  0.50521731  0.61700180  0.00929541  1
  O  O322  1  0.51601113  0.62043596  0.49122862  1
  O  O323  1  0.49575264  0.37778326  0.49344312  1
  O  O324  1  0.49294643  0.38574746  1.00445945  1
  O  O325  1  0.49551715  0.87988104  0.49318585  1
  O  O326  1  0.49999778  0.88126176  0.98640234  1
  O  O327  1  0.98690229  0.37366833  0.50336318  1
  O  O328  1  0.99483641  0.38282307  0.99491526  1
  O  O329  1  1.00076715  0.88181010  0.49142949  1
  O  O330  1  0.99177797  0.88448645  1.00221935  1
  O  O331  1  0.49266407  0.49450271  0.37384279  1
  O  O332  1  0.48807638  0.50545208  0.88593940  1
  O  O333  1  0.50480171  0.98789132  0.38014454  1
  O  O334  1  0.49727215  0.99848020  0.88527041  1
  O  O335  1  0.98559536  0.50642847  0.37756069  1
  O  O336  1  1.00064915  0.49551726  0.88496591  1
  O  O337  1  0.99374218  0.99409631  0.37980720  1
  O  O338  1  0.98811315  0.99440724  0.88869440  1
  O  O339  1  -0.00107821  0.01042426  0.11590610  1
  O  O340  1  -0.00779837  0.01235210  0.61550388  1
  O  O341  1  0.00739456  0.50720356  0.11883045  1
  O  O342  1  0.01267547  0.50412262  0.61989006  1
  O  O343  1  0.50564985  0.00347683  0.11373024  1
  O  O344  1  0.51068999  0.00754002  0.62152232  1
  O  O345  1  0.50566181  0.50662506  0.11927032  1
  O  O346  1  0.51778584  0.49480447  0.62489059  1
  O  O347  1  0.24052052  0.38830580  0.25294421  1
  O  O348  1  0.24393846  0.37640776  0.74226182  1
  O  O349  1  0.24110074  0.88323575  0.25211755  1
  O  O350  1  0.24040269  0.87496074  0.74145299  1
  O  O351  1  0.73911688  0.36887473  0.24275530  1
  O  O352  1  0.74555783  0.38727286  0.75668527  1
  O  O353  1  0.74566200  0.88575294  0.24832782  1
  O  O354  1  0.73369452  0.88553200  0.75713218  1
  O  O355  1  0.25743228  0.12003055  0.25456868  1
  O  O356  1  0.26612353  0.12709747  0.73923969  1
  O  O357  1  0.24390930  0.61600361  0.26193511  1
  O  O358  1  0.26201309  0.62054637  0.75001309  1
  O  O359  1  0.75025115  0.11219577  0.24436735  1
  O  O360  1  0.74424465  0.11414168  0.75094040  1
  O  O361  1  0.76154107  0.63053533  0.25451432  1
  O  O362  1  0.74845091  0.61333869  0.76148845  1
  O  O363  1  0.36852089  0.13303622  0.36391161  1
  O  O364  1  0.38218252  0.12670689  0.85884397  1
  O  O365  1  0.36885698  0.61367312  0.37975842  1
  O  O366  1  0.37288803  0.61925332  0.86393779  1
  O  O367  1  0.88077277  0.11376169  0.37236836  1
  O  O368  1  0.87761360  0.11211886  0.88630100  1
  O  O369  1  0.86855611  0.61932980  0.36874525  1
  O  O370  1  0.86209034  0.61978949  0.88048378  1
  O  O371  1  0.12276495  0.38915509  0.13147019  1
  O  O372  1  0.13070495  0.38108336  0.62901224  1
  O  O373  1  0.12613209  0.86847063  0.13852132  1
  O  O374  1  0.13151559  0.86775304  0.63610371  1
  O  O375  1  0.62930482  0.38127825  0.13015314  1
  O  O376  1  0.62861852  0.37888442  0.63942414  1
  O  O377  1  0.62204339  0.88739036  0.12451988  1
  O  O378  1  0.62214557  0.88454286  0.63994585  1
  O  O379  1  0.12527335  0.26076066  0.25643245  1
  O  O380  1  0.11508913  0.26286666  0.74516657  1
  O  O381  1  0.11368068  0.75453826  0.25581141  1
  O  O382  1  0.12912916  0.75855598  0.75637254  1
  O  O383  1  0.62034253  0.25623308  0.24820645  1
  O  O384  1  0.62277896  0.25528181  0.75621478  1
  O  O385  1  0.61389373  0.74962206  0.25905438  1
  O  O386  1  0.62695319  0.76357066  0.74936287  1
  O  O387  1  0.37917875  0.24655046  0.24246953  1
  O  O388  1  0.38329263  0.24350828  0.74826171  1
  O  O389  1  0.38528698  0.75066329  0.24416522  1
  O  O390  1  0.37253177  0.73828171  0.74285432  1
  O  O391  1  0.87740931  0.24973243  0.23918955  1
  O  O392  1  0.88347609  0.24908455  0.74216583  1
  O  O393  1  0.88516583  0.74379587  0.25564470  1
  O  O394  1  0.87012348  0.74187716  0.75144449  1
  O  O395  1  0.37762656  0.49169092  0.49270777  1
  O  O396  1  0.37953433  0.49383933  0.99614273  1
  O  O397  1  0.38373283  0.98737573  0.50581130  1
  O  O398  1  0.38344065  0.99656256  1.00086778  1
  O  O399  1  0.87414218  0.49017828  0.49398470  1
  O  O400  1  0.88724611  0.49239499  1.01068372  1
  O  O401  1  0.88402624  0.99885647  0.49210411  1
  O  O402  1  0.87786619  0.99392391  0.99370431  1
  O  O403  1  0.11060960  -0.01074750  -0.00426047  1
  O  O404  1  0.11250551  0.00079554  0.49391558  1
  O  O405  1  0.11762848  0.50430027  0.00640429  1
  O  O406  1  0.12597351  0.50485206  0.50564936  1
  O  O407  1  0.62045897  0.00646948  0.00279488  1
  O  O408  1  0.62114216  0.00730643  0.50936564  1
  O  O409  1  0.61660991  0.50198263  0.00656915  1
  O  O410  1  0.62948667  0.50512623  0.50990934  1
  O  O411  1  0.38061054  0.36569831  0.11573097  1
  O  O412  1  0.36838065  0.37814073  0.61794378  1
  O  O413  1  0.37275579  0.86044252  0.12187041  1
  O  O414  1  0.37012336  0.86900225  0.62080785  1
  O  O415  1  0.87411995  0.36482718  0.11533985  1
  O  O416  1  0.88119779  0.35669222  0.61953622  1
  O  O417  1  0.87227245  0.88179778  0.11128030  1
  O  O418  1  0.87042515  0.87705208  0.62546211  1
  O  O419  1  0.13455703  0.13261403  0.37600501  1
  O  O420  1  0.05417175  0.15969489  0.85257073  1
  O  O421  1  0.13167322  0.62950845  0.37921721  1
  O  O422  1  0.12668333  0.63044696  0.87888714  1
  O  O423  1  0.61892928  0.12605011  0.38988661  1
  O  O424  1  0.62173559  0.13489577  0.88634767  1
  O  O425  1  0.63303288  0.62889359  0.37713952  1
  O  O426  1  0.63155404  0.61679677  0.88811358  1
