# generated using pymatgen
data_V85Zn86O256
_symmetry_space_group_name_H-M   'P 1'
_cell_length_a   16.93689543
_cell_length_b   16.95041227
_cell_length_c   16.95473938
_cell_angle_alpha   89.96842167
_cell_angle_beta   90.01289331
_cell_angle_gamma   90.00298743
_symmetry_Int_Tables_number   1
_chemical_formula_structural   V85Zn86O256
_chemical_formula_sum   'V85 Zn86 O256'
_cell_volume   4867.49050201
_cell_formula_units_Z   1
loop_
 _symmetry_equiv_pos_site_id
 _symmetry_equiv_pos_as_xyz
  1  'x, y, z'
loop_
 _atom_site_type_symbol
 _atom_site_label
 _atom_site_symmetry_multiplicity
 _atom_site_fract_x
 _atom_site_fract_y
 _atom_site_fract_z
 _atom_site_occupancy
  V  V0  1  0.75572444  0.88486633  0.11993212  1
  V  V1  1  0.25217750  0.12209163  0.87649377  1
  V  V2  1  0.74733675  0.48526109  0.24729986  1
  V  V3  1  0.24913508  0.87699194  0.61813633  1
  V  V4  1  0.87622201  0.37669785  0.50056731  1
  V  V5  1  0.24613138  0.62591336  0.37435387  1
  V  V6  1  0.62112266  0.61991170  0.49761024  1
  V  V7  1  -0.00081243  0.50237666  0.50132551  1
  V  V8  1  0.50527981  0.37741107  0.36762378  1
  V  V9  1  0.62419122  0.87264527  0.25066037  1
  V  V10  1  0.62131242  0.37470107  0.75041421  1
  V  V11  1  0.24699844  0.62460068  0.87381525  1
  V  V12  1  0.37821573  0.87066097  -0.00931223  1
  V  V13  1  0.74985580  0.24978160  0.50482966  1
  V  V14  1  0.13508597  0.37555271  0.25196423  1
  V  V15  1  0.74974232  0.74904649  0.49973632  1
  V  V16  1  0.37388370  0.62578750  0.74938368  1
  V  V17  1  0.37940079  0.74888850  0.12334393  1
  V  V18  1  0.37311257  0.75550687  0.61528001  1
  V  V19  1  0.12026328  0.24836138  0.87449586  1
  V  V20  1  0.12593848  0.49589271  0.12953976  1
  V  V21  1  0.49848093  0.61961423  0.62239045  1
  V  V22  1  0.12299722  0.37184197  0.74913246  1
  V  V23  1  0.38148526  0.35846464  0.50502197  1
  V  V24  1  -0.01282965  0.87507714  0.87388179  1
  V  V25  1  0.50456123  0.61810333  0.12473837  1
  V  V26  1  0.25069762  0.49892029  0.74999806  1
  V  V27  1  0.00038761  0.63527230  0.62744901  1
  V  V28  1  0.87656131  0.12864943  0.25416525  1
  V  V29  1  -0.00221836  0.12535418  0.12777048  1
  V  V30  1  0.49196590  0.25021968  0.74281530  1
  V  V31  1  0.37912498  0.50196541  0.38993773  1
  V  V32  1  0.43116424  0.31502037  0.05535164  1
  V  V33  1  0.37606769  -0.00096264  0.36446376  1
  V  V34  1  -0.00304976  0.50044233  0.00377349  1
  V  V35  1  0.12618183  -0.00590412  0.13354165  1
  V  V36  1  0.87715267  0.87426156  0.50120675  1
  V  V37  1  0.01303188  0.86275834  0.36554542  1
  V  V38  1  0.87130720  0.75180006  0.12809100  1
  V  V39  1  0.00586453  0.00235627  0.50908175  1
  V  V40  1  0.62087737  0.62310661  0.00230207  1
  V  V41  1  0.25048720  0.25056663  0.00542616  1
  V  V42  1  0.11690149  0.87642730  0.74354860  1
  V  V43  1  0.87409219  0.50007403  0.87700431  1
  V  V44  1  0.24198781  -0.00087260  0.74455108  1
  V  V45  1  0.75014445  -0.00019491  0.25140107  1
  V  V46  1  0.36906759  0.12682771  0.73750941  1
  V  V47  1  0.75208802  0.75569055  -0.00033373  1
  V  V48  1  0.13154296  0.25204531  0.38148530  1
  V  V49  1  0.25816077  0.13113906  0.37131413  1
  V  V50  1  0.11889592  0.62723317  -0.00311406  1
  V  V51  1  0.49021014  -0.00096553  0.50183568  1
  V  V52  1  0.62035453  0.75188146  0.87403842  1
  V  V53  1  0.04624449  0.68213136  0.17782791  1
  V  V54  1  0.37804068  0.61363822  0.25146382  1
  V  V55  1  0.62197795  0.87748856  0.75246296  1
  V  V56  1  0.00357786  0.25456831  0.25263444  1
  V  V57  1  0.37672268  0.49883189  0.88685452  1
  V  V58  1  0.63099468  0.24621408  0.87424843  1
  V  V59  1  0.12402160  0.12076773  0.00407949  1
  V  V60  1  0.74966160  0.00994533  0.75390647  1
  V  V61  1  0.75005201  0.37553660  0.62707980  1
  V  V62  1  0.86913461  0.62563397  0.24612396  1
  V  V63  1  0.88354083  0.13197259  0.75701284  1
  V  V64  1  0.13011756  0.12532191  0.50524209  1
  V  V65  1  0.63344955  0.12120567  -0.01122147  1
  V  V66  1  -0.00172595  0.37243939  0.87179985  1
  V  V67  1  0.62277077  0.00306569  0.62226090  1
  V  V68  1  0.49614061  0.75679818  0.75198127  1
  V  V69  1  0.88044849  -0.00004874  0.37811381  1
  V  V70  1  0.49777626  -0.00066729  -0.01503337  1
  V  V71  1  0.74993978  0.12539514  0.37878945  1
  V  V72  1  0.62425077  0.25490840  0.36550188  1
  V  V73  1  0.61003317  0.00107846  0.12523901  1
  V  V74  1  0.74751838  0.62643197  0.87495740  1
  V  V75  1  0.62904621  0.48200458  0.12165080  1
  V  V76  1  0.49102520  0.37510039  0.87627614  1
  V  V77  1  0.11679377  0.75223910  0.86736576  1
  V  V78  1  0.49629557  0.87330758  0.37959641  1
  V  V79  1  -0.01446818  -0.00215185  0.00045962  1
  V  V80  1  0.12763708  0.50186783  0.62299254  1
  V  V81  1  0.87766017  0.63326377  0.75085313  1
  V  V82  1  0.74703495  0.50248258  0.74855058  1
  V  V83  1  0.25224425  0.37728379  0.12352042  1
  V  V84  1  0.25353122  0.36460545  0.61857201  1
  Zn  Zn85  1  0.87635576  0.75417146  0.62881381  1
  Zn  Zn86  1  0.00603623  0.13143211  0.63051711  1
  Zn  Zn87  1  0.75010083  0.87655795  0.62436236  1
  Zn  Zn88  1  0.49250658  0.13174953  0.61814682  1
  Zn  Zn89  1  0.61835225  0.49824359  0.62185027  1
  Zn  Zn90  1  0.45349254  0.17934421  0.19499639  1
  Zn  Zn91  1  0.62120348  0.12689945  0.50141840  1
  Zn  Zn92  1  0.50159104  0.74735599  0.25225087  1
  Zn  Zn93  1  0.24805809  -0.00778709  0.25300090  1
  Zn  Zn94  1  0.87401822  0.50246623  0.37363223  1
  Zn  Zn95  1  0.62429235  0.74904561  0.37629055  1
  Zn  Zn96  1  0.00503373  0.37753595  0.37695546  1
  Zn  Zn97  1  0.74755705  0.62443190  0.37233807  1
  Zn  Zn98  1  0.24870670  0.75276915  -0.00346582  1
  Zn  Zn99  1  0.24591399  0.75895126  0.48727846  1
  Zn  Zn100  1  0.88442283  0.25126757  0.63165821  1
  Zn  Zn101  1  0.84893539  0.36638885  0.00052032  1
  Zn  Zn102  1  0.37308840  -0.00910812  0.86800268  1
  Zn  Zn103  1  0.12241369  0.63245375  0.49295461  1
  Zn  Zn104  1  0.24889659  0.87278152  0.12555549  1
  Zn  Zn105  1  0.86285470  0.00299820  0.88540061  1
  Zn  Zn106  1  0.84253456  0.26755891  0.13553715  1
  Zn  Zn107  1  0.29121936  0.18445634  0.19188493  1
  Zn  Zn108  1  0.18422610  0.18878200  0.68885434  1
  Zn  Zn109  1  0.20977285  0.69083536  0.19486722  1
  Zn  Zn110  1  0.18541702  0.69150285  0.68466081  1
  Zn  Zn111  1  0.65131389  0.17839669  0.19436535  1
  Zn  Zn112  1  0.68542774  0.18802592  0.68822451  1
  Zn  Zn113  1  0.68962270  0.68799751  0.18714178  1
  Zn  Zn114  1  0.68612848  0.68964833  0.68288140  1
  Zn  Zn115  1  0.32234337  0.31524375  0.31154360  1
  Zn  Zn116  1  0.30925815  0.31107539  0.81240266  1
  Zn  Zn117  1  0.31475586  0.81172601  0.30577464  1
  Zn  Zn118  1  0.30628982  0.81080923  0.80911768  1
  Zn  Zn119  1  0.81436969  0.31198391  0.31849552  1
  Zn  Zn120  1  0.81184727  0.31376147  0.81553922  1
  Zn  Zn121  1  0.81457853  0.81318494  0.31428285  1
  Zn  Zn122  1  0.80617094  0.81643481  0.81032860  1
  Zn  Zn123  1  0.19516972  0.44291683  0.43868691  1
  Zn  Zn124  1  0.18614377  0.43639811  0.94087442  1
  Zn  Zn125  1  0.18649034  0.94035818  0.43521289  1
  Zn  Zn126  1  0.18651086  0.93558872  0.93892799  1
  Zn  Zn127  1  0.68903759  0.44045302  0.43654985  1
  Zn  Zn128  1  0.67909703  0.43859879  0.93459196  1
  Zn  Zn129  1  0.68610764  0.93678536  0.43967029  1
  Zn  Zn130  1  0.68467741  0.93554340  0.93496440  1
  Zn  Zn131  1  0.31957348  0.06060923  0.06375130  1
  Zn  Zn132  1  0.30823864  0.05956820  0.55717231  1
  Zn  Zn133  1  0.30815478  0.56464763  0.06315682  1
  Zn  Zn134  1  0.31202962  0.56390550  0.56061914  1
  Zn  Zn135  1  0.78631663  0.10632991  0.08387973  1
  Zn  Zn136  1  0.81536526  0.06402050  0.56911290  1
  Zn  Zn137  1  0.80977258  0.56305893  0.06445539  1
  Zn  Zn138  1  0.81175413  0.56524720  0.56378825  1
  Zn  Zn139  1  0.44306283  0.43870363  0.19060711  1
  Zn  Zn140  1  0.43283541  0.43769145  0.68821482  1
  Zn  Zn141  1  0.43499832  0.93326808  0.18646851  1
  Zn  Zn142  1  0.43368093  0.93908019  0.68646770  1
  Zn  Zn143  1  0.93907236  0.44011836  0.18860237  1
  Zn  Zn144  1  0.93695244  0.44101405  0.68801306  1
  Zn  Zn145  1  0.93772027  0.93793055  0.18924390  1
  Zn  Zn146  1  0.93525382  0.94276522  0.68812337  1
  Zn  Zn147  1  0.06517207  0.06444634  0.31699241  1
  Zn  Zn148  1  0.06135987  0.05775294  0.81663454  1
  Zn  Zn149  1  0.06422734  0.55667245  0.31498096  1
  Zn  Zn150  1  0.06006577  0.56030994  0.81059099  1
  Zn  Zn151  1  0.56228964  0.06359872  0.31508945  1
  Zn  Zn152  1  0.55665378  0.06336451  0.80789751  1
  Zn  Zn153  1  0.56503436  0.55717968  0.31132244  1
  Zn  Zn154  1  0.55854446  0.56284660  0.81173875  1
  Zn  Zn155  1  0.44035696  0.18786634  0.43009229  1
  Zn  Zn156  1  0.44108190  0.18039399  0.93052577  1
  Zn  Zn157  1  0.43776223  0.68970228  0.43790418  1
  Zn  Zn158  1  0.43870656  0.68460441  0.93576971  1
  Zn  Zn159  1  0.94093993  0.19042674  0.44236771  1
  Zn  Zn160  1  0.93092868  0.18595446  0.93824133  1
  Zn  Zn161  1  0.93627925  0.68768134  0.43510301  1
  Zn  Zn162  1  0.93579395  0.68966407  0.93973004  1
  Zn  Zn163  1  -0.01301935  0.31086084  0.06223231  1
  Zn  Zn164  1  0.06208718  0.31123568  0.56447987  1
  Zn  Zn165  1  0.06159533  0.81855126  0.05200800  1
  Zn  Zn166  1  0.06515330  0.81322819  0.55564984  1
  Zn  Zn167  1  0.68176613  0.29661150  0.06159440  1
  Zn  Zn168  1  0.56292728  0.31492815  0.55993572  1
  Zn  Zn169  1  0.56119039  0.81440788  0.06123557  1
  Zn  Zn170  1  0.56239203  0.81221324  0.56374648  1
  O  O171  1  0.11228791  0.11084922  0.11598133  1
  O  O172  1  0.12815931  0.12941531  0.60999996  1
  O  O173  1  0.11841527  0.62432094  0.12132836  1
  O  O174  1  0.11730283  0.61359103  0.63065742  1
  O  O175  1  0.62922461  0.10745910  0.10141055  1
  O  O176  1  0.62076027  0.11363180  0.62523522  1
  O  O177  1  0.61967457  0.62422019  0.11861160  1
  O  O178  1  0.61439729  0.62490296  0.61899213  1
  O  O179  1  0.38291949  0.38122384  0.38715775  1
  O  O180  1  0.38223732  0.38331257  0.86775332  1
  O  O181  1  0.38879243  0.88182433  0.37110461  1
  O  O182  1  0.36881152  0.87096392  0.88610678  1
  O  O183  1  0.87781632  0.37867191  0.39021808  1
  O  O184  1  0.88186135  0.38041512  0.87925077  1
  O  O185  1  0.87828387  0.88311527  0.38613769  1
  O  O186  1  0.88350520  0.87860046  0.86815063  1
  O  O187  1  0.26146177  0.00471985  0.37495571  1
  O  O188  1  0.24912215  0.00678379  0.86750628  1
  O  O189  1  0.26578160  0.51238118  0.37697569  1
  O  O190  1  0.25320482  0.50422761  0.86979307  1
  O  O191  1  0.75977195  0.00633417  0.37569603  1
  O  O192  1  0.74767063  -0.00719143  0.85766346  1
  O  O193  1  0.75133236  0.50113125  0.35968630  1
  O  O194  1  0.75155792  0.50609472  0.86539225  1
  O  O195  1  0.23670364  0.49321087  0.11806753  1
  O  O196  1  0.24286956  0.49742504  0.62976391  1
  O  O197  1  0.23285451  1.00277970  0.12340153  1
  O  O198  1  0.25280227  0.99129307  0.63401457  1
  O  O199  1  0.73859779  0.50140425  0.13371773  1
  O  O200  1  0.74917977  0.49754757  0.63773804  1
  O  O201  1  0.74322281  0.99820980  0.13108301  1
  O  O202  1  0.74037159  0.99943619  0.63476241  1
  O  O203  1  0.00844044  0.36904103  0.25489834  1
  O  O204  1  0.00583810  0.38390502  0.76361407  1
  O  O205  1  -0.00793211  0.87741301  0.26768833  1
  O  O206  1  0.00720608  0.88532407  0.75806385  1
  O  O207  1  0.49616814  0.37325056  0.26875767  1
  O  O208  1  0.50051234  0.36877234  0.75492510  1
  O  O209  1  0.50888090  0.87252309  0.25573043  1
  O  O210  1  0.50589354  0.86694242  0.74482288  1
  O  O211  1  0.54824720  0.13715439  0.23453623  1
  O  O212  1  0.48561492  0.13156344  0.74683796  1
  O  O213  1  0.49889545  0.62603698  0.24124933  1
  O  O214  1  0.49489579  0.63472898  0.74238043  1
  O  O215  1  0.99742372  0.13121645  0.24698435  1
  O  O216  1  0.98690260  0.11666331  0.75067320  1
  O  O217  1  0.99425323  0.62213119  0.24467341  1
  O  O218  1  0.98848188  0.61831799  0.74127179  1
  O  O219  1  0.37042077  0.25010011  -0.00366150  1
  O  O220  1  0.37723186  0.26016983  0.49910770  1
  O  O221  1  0.37688279  0.75380604  0.00390414  1
  O  O222  1  0.37047388  0.74936583  0.51275159  1
  O  O223  1  0.89109023  0.25509173  0.01605704  1
  O  O224  1  0.86568182  0.25860531  0.50224265  1
  O  O225  1  0.86008746  0.74284472  0.01084043  1
  O  O226  1  0.86858409  0.75831951  0.50135447  1
  O  O227  1  0.12169492  0.24573726  0.48710003  1
  O  O228  1  0.13426706  0.23405279  0.98954746  1
  O  O229  1  0.13525363  0.74247457  0.50895951  1
  O  O230  1  0.12394325  0.74293298  0.98940153  1
  O  O231  1  0.63955130  0.25003916  0.49770076  1
  O  O232  1  0.61823839  0.22797007  0.99016976  1
  O  O233  1  0.63299210  0.74166284  0.50142058  1
  O  O234  1  0.63303019  0.74534691  0.99633895  1
  O  O235  1  0.49231156  0.26300172  0.11164561  1
  O  O236  1  0.50536617  0.24981968  0.63857439  1
  O  O237  1  0.49419971  0.73771111  0.12347034  1
  O  O238  1  0.49178319  0.74509842  0.63322231  1
  O  O239  1  1.01521990  0.23736319  0.14358473  1
  O  O240  1  0.99827538  0.24595320  0.62578799  1
  O  O241  1  0.99162878  0.74905969  0.11809342  1
  O  O242  1  0.99797304  0.73773970  0.62237755  1
  O  O243  1  0.00825565  0.25182772  0.36696923  1
  O  O244  1  0.00934829  0.25937320  0.88177105  1
  O  O245  1  -0.00036248  0.76374394  0.37963746  1
  O  O246  1  0.00488628  0.76042947  0.87999027  1
  O  O247  1  0.51263965  0.26207001  0.38181828  1
  O  O248  1  0.50221512  0.25636555  0.86288714  1
  O  O249  1  0.50307383  0.75983286  0.37350249  1
  O  O250  1  0.50539798  0.74351841  0.86042466  1
  O  O251  1  0.24133692  0.11892675  0.48552404  1
  O  O252  1  0.24452590  0.12698795  0.99271666  1
  O  O253  1  0.25146948  0.62557692  0.48480932  1
  O  O254  1  0.23439695  0.62561648  0.99274339  1
  O  O255  1  0.75283450  0.13202282  0.49398095  1
  O  O256  1  0.73235716  0.10731871  0.98280272  1
  O  O257  1  0.74488700  0.63292704  0.49751090  1
  O  O258  1  0.73925616  0.63257130  0.99592770  1
  O  O259  1  0.24451075  0.36515595  0.01125054  1
  O  O260  1  0.26686998  0.38218133  0.50759981  1
  O  O261  1  0.25973344  0.87311423  0.00537237  1
  O  O262  1  0.24449239  0.87813176  0.51423528  1
  O  O263  1  0.73784733  0.37105047  -0.00025511  1
  O  O264  1  0.75683901  0.37070922  0.50587392  1
  O  O265  1  0.74490750  0.86843397  0.00797973  1
  O  O266  1  0.75791488  0.86948766  0.50207476  1
  O  O267  1  0.12111055  0.48689937  0.24317695  1
  O  O268  1  0.13071201  0.49293045  0.74354069  1
  O  O269  1  0.11950212  1.00141823  0.23533121  1
  O  O270  1  0.13372810  0.99230962  0.75343744  1
  O  O271  1  0.63859600  0.49905471  0.23803863  1
  O  O272  1  0.63141929  0.49429092  0.74971833  1
  O  O273  1  0.62903316  0.98888634  0.24174328  1
  O  O274  1  0.62956042  0.99652184  0.74461599  1
  O  O275  1  0.38090859  0.00227535  0.26157231  1
  O  O276  1  0.36316126  0.00739899  0.75130968  1
  O  O277  1  0.38392211  0.50957305  0.26036071  1
  O  O278  1  0.36645088  0.50737302  0.75583231  1
  O  O279  1  0.87028175  0.00699991  0.26043628  1
  O  O280  1  0.86050564  0.00829635  0.75018053  1
  O  O281  1  0.86482505  0.50778960  0.24680018  1
  O  O282  1  0.86597995  0.50911388  0.75678840  1
  O  O283  1  0.13104669  0.37178099  0.37167903  1
  O  O284  1  0.12007910  0.36701068  0.87101706  1
  O  O285  1  0.11216886  0.87908950  0.37479686  1
  O  O286  1  0.11674663  0.86840389  0.86728891  1
  O  O287  1  0.61183752  0.37174434  0.38665993  1
  O  O288  1  0.60854376  0.36967045  0.86894487  1
  O  O289  1  0.61690036  0.87676879  0.36604275  1
  O  O290  1  0.62586582  0.86790160  0.86024444  1
  O  O291  1  0.37064814  0.12940769  0.13118590  1
  O  O292  1  0.37001249  0.12261096  0.63408351  1
  O  O293  1  0.38449706  0.62407453  0.12994144  1
  O  O294  1  0.37936791  0.63298225  0.63022184  1
  O  O295  1  0.88802813  0.12291563  0.13620035  1
  O  O296  1  0.87630985  0.12752541  0.64170928  1
  O  O297  1  0.87113122  0.63454567  0.13518386  1
  O  O298  1  0.88309833  0.62552569  0.63399225  1
  O  O299  1  0.24579431  0.25778010  0.11139201  1
  O  O300  1  0.24354503  0.26618857  0.62780448  1
  O  O301  1  0.26755264  0.74553124  0.11630713  1
  O  O302  1  0.25961887  0.75969368  0.63014072  1
  O  O303  1  0.74055671  0.21789565  0.12383187  1
  O  O304  1  0.75272728  0.25678904  0.62019063  1
  O  O305  1  0.75421759  0.76070936  0.11813763  1
  O  O306  1  0.75319918  0.75326383  0.61297017  1
  O  O307  1  0.24624647  0.23824527  0.37357786  1
  O  O308  1  0.24470149  0.24371559  0.88531994  1
  O  O309  1  0.26346397  0.73193838  0.37298992  1
  O  O310  1  0.23821948  0.74181467  0.87520810  1
  O  O311  1  0.74896104  0.24326379  0.38610559  1
  O  O312  1  0.73035792  0.25494621  0.86953407  1
  O  O313  1  0.74760410  0.75044377  0.38741587  1
  O  O314  1  0.74309184  0.74678137  0.88211117  1
  O  O315  1  0.00676916  0.12007880  0.00841417  1
  O  O316  1  0.00959843  0.11761021  0.49852214  1
  O  O317  1  0.00938522  0.61533224  -0.00587711  1
  O  O318  1  -0.00133500  0.61817098  0.50814687  1
  O  O319  1  0.50512216  0.10495659  -0.00696109  1
  O  O320  1  0.50146273  0.11650277  0.50081284  1
  O  O321  1  0.51341536  0.62797790  0.00575474  1
  O  O322  1  0.50866919  0.63286285  0.51029360  1
  O  O323  1  0.48669577  0.37413130  0.49659321  1
  O  O324  1  0.48922371  0.36783501  0.98962451  1
  O  O325  1  0.50750520  0.88398059  0.49045275  1
  O  O326  1  0.49316949  0.88543624  0.99952873  1
  O  O327  1  0.99291336  0.38456841  0.50093039  1
  O  O328  1  1.01046299  0.39123762  0.98484729  1
  O  O329  1  0.99424242  0.88430280  0.49337648  1
  O  O330  1  0.99797960  0.88635288  0.98770132  1
  O  O331  1  0.49618717  0.48698663  0.37508023  1
  O  O332  1  0.48932355  0.48981857  0.86930604  1
  O  O333  1  0.49596143  0.99639354  0.38136311  1
  O  O334  1  0.49505115  0.99565051  0.88124151  1
  O  O335  1  0.99773846  0.49984125  0.38944057  1
  O  O336  1  0.99317299  0.49518573  0.88135340  1
  O  O337  1  0.98944527  0.99840197  0.38257914  1
  O  O338  1  0.99468063  0.99295451  0.88487663  1
  O  O339  1  0.00534245  0.00375134  0.11934607  1
  O  O340  1  -0.00319050  0.00553683  0.61184757  1
  O  O341  1  0.01362927  0.49714887  0.11512128  1
  O  O342  1  0.00671626  0.50593441  0.61688307  1
  O  O343  1  0.50777262  -0.00791030  0.11435193  1
  O  O344  1  0.50391894  0.00204946  0.61744001  1
  O  O345  1  0.51626872  0.50884991  0.13035156  1
  O  O346  1  0.49833365  0.51579156  0.63283971  1
  O  O347  1  0.24742012  0.37062049  0.23586126  1
  O  O348  1  0.24430546  0.38176088  0.74262345  1
  O  O349  1  0.25788239  0.87929914  0.23881178  1
  O  O350  1  0.24020917  0.88270984  0.74405997  1
  O  O351  1  0.76142896  0.38691503  0.24757057  1
  O  O352  1  0.74501690  0.38396441  0.74720932  1
  O  O353  1  0.74474499  0.88200305  0.24466378  1
  O  O354  1  0.74034246  0.88463382  0.74344836  1
  O  O355  1  0.23951432  0.11399865  0.26989413  1
  O  O356  1  0.25046003  0.11831944  0.75539216  1
  O  O357  1  0.26440109  0.62030369  0.26143431  1
  O  O358  1  0.25263567  0.61975129  0.75510082  1
  O  O359  1  0.75314480  0.11843678  0.26636616  1
  O  O360  1  0.75357317  0.11349448  0.74848735  1
  O  O361  1  0.75547557  0.61741412  0.25065607  1
  O  O362  1  0.75226175  0.61944342  0.75370992  1
  O  O363  1  0.36394213  0.11682554  0.38126242  1
  O  O364  1  0.36093370  0.12224238  0.86617102  1
  O  O365  1  0.37729456  0.61738521  0.36959901  1
  O  O366  1  0.36923567  0.61884557  0.86829824  1
  O  O367  1  0.87083329  0.11972984  0.37433594  1
  O  O368  1  0.87504430  0.12033636  0.86253728  1
  O  O369  1  0.87367411  0.62469777  0.35959003  1
  O  O370  1  0.86770668  0.62131883  0.86968939  1
  O  O371  1  0.13546190  0.38320556  0.13470420  1
  O  O372  1  0.13173344  0.38677878  0.62585747  1
  O  O373  1  0.12308705  0.89109606  0.11602003  1
  O  O374  1  0.12979517  0.86971957  0.63848820  1
  O  O375  1  0.61981801  0.38479380  0.11998431  1
  O  O376  1  0.63115967  0.37881082  0.63144028  1
  O  O377  1  0.63414413  0.88211750  0.12983788  1
  O  O378  1  0.62338040  0.88655197  0.63437375  1
  O  O379  1  0.11987500  0.26455524  0.26509647  1
  O  O380  1  0.13083349  0.25616803  0.76582553  1
  O  O381  1  0.10956254  0.73642061  0.23056764  1
  O  O382  1  0.12440673  0.75804413  0.76032326  1
  O  O383  1  0.64500338  0.26676636  0.26958113  1
  O  O384  1  0.61601681  0.25523382  0.75548999  1
  O  O385  1  0.62653231  0.76276138  0.24992886  1
  O  O386  1  0.61768099  0.75876899  0.75058918  1
  O  O387  1  0.37251970  0.23645456  0.25415711  1
  O  O388  1  0.37924068  0.23997960  0.75364009  1
  O  O389  1  0.38097847  0.73601521  0.23869732  1
  O  O390  1  0.38073595  0.74516105  0.74512218  1
  O  O391  1  0.88333735  0.24623146  0.25004519  1
  O  O392  1  0.86884663  0.23494597  0.75358621  1
  O  O393  1  0.86765983  0.74434589  0.23658599  1
  O  O394  1  0.86572416  0.73698173  0.74930820  1
  O  O395  1  0.38004966  0.49908236  0.49216604  1
  O  O396  1  0.37091312  0.50737058  0.98590520  1
  O  O397  1  0.38666135  1.00028103  0.49142014  1
  O  O398  1  0.38434148  0.99106153  0.99529209  1
  O  O399  1  0.88105932  0.49461983  0.50082536  1
  O  O400  1  0.88171514  0.50234577  0.99506880  1
  O  O401  1  0.87987921  0.99488856  0.49513103  1
  O  O402  1  0.88554364  1.01023339  1.00271541  1
  O  O403  1  0.11681165  0.00943118  0.00164959  1
  O  O404  1  0.11546568  0.01140912  0.49377129  1
  O  O405  1  0.11854593  0.50941884  0.00571926  1
  O  O406  1  0.11869121  0.50599108  0.50762055  1
  O  O407  1  0.61238377  -0.00053719  -0.00056788  1
  O  O408  1  0.61756854  0.00166588  0.50850350  1
  O  O409  1  0.62940707  0.50999070  0.01426584  1
  O  O410  1  0.63303950  0.51563955  0.50455989  1
  O  O411  1  0.37343500  0.38023132  0.11806828  1
  O  O412  1  0.36943172  0.37815392  0.61293964  1
  O  O413  1  0.37976433  0.86253722  0.11312081  1
  O  O414  1  0.36315915  0.86631109  0.63184334  1
  O  O415  1  0.89334540  0.36922616  0.11445737  1
  O  O416  1  0.86919508  0.37590064  0.61733516  1
  O  O417  1  0.86241075  0.87086003  0.12917128  1
  O  O418  1  0.87598766  0.87517907  0.61329186  1
  O  O419  1  0.13315041  0.13366609  0.38264736  1
  O  O420  1  0.13270331  0.12908690  0.87910613  1
  O  O421  1  0.14253963  0.61902197  0.37109378  1
  O  O422  1  0.12421518  0.63155779  0.87920403  1
  O  O423  1  0.63591123  0.13419638  0.38164299  1
  O  O424  1  0.61527932  0.13152813  0.87920468  1
  O  O425  1  0.62481411  0.62762050  0.38265282  1
  O  O426  1  0.62864235  0.62963373  0.88151607  1
