# generated using pymatgen
data_V85Zn86O256
_symmetry_space_group_name_H-M   'P 1'
_cell_length_a   16.92988256
_cell_length_b   16.94237894
_cell_length_c   16.93516480
_cell_angle_alpha   89.92403927
_cell_angle_beta   89.96464129
_cell_angle_gamma   90.01834806
_symmetry_Int_Tables_number   1
_chemical_formula_structural   V85Zn86O256
_chemical_formula_sum   'V85 Zn86 O256'
_cell_volume   4857.54997183
_cell_formula_units_Z   1
loop_
 _symmetry_equiv_pos_site_id
 _symmetry_equiv_pos_as_xyz
  1  'x, y, z'
loop_
 _atom_site_type_symbol
 _atom_site_label
 _atom_site_symmetry_multiplicity
 _atom_site_fract_x
 _atom_site_fract_y
 _atom_site_fract_z
 _atom_site_occupancy
  V  V0  1  0.87651985  0.75189036  0.62302252  1
  V  V1  1  0.75301330  0.87455195  0.62067954  1
  V  V2  1  0.87586261  0.37819044  -0.00850187  1
  V  V3  1  0.37434372  0.00509973  0.36435116  1
  V  V4  1  0.87486170  0.25156723  0.62464286  1
  V  V5  1  0.12198785  0.24502374  0.87950029  1
  V  V6  1  0.37717418  -0.00561159  0.87291269  1
  V  V7  1  0.74619152  0.50412321  0.24732962  1
  V  V8  1  0.62233710  0.37318623  0.25280713  1
  V  V9  1  0.24035382  0.62509290  0.88404395  1
  V  V10  1  0.12451726  -0.00288689  0.62768219  1
  V  V11  1  0.49968596  0.37098979  0.87853432  1
  V  V12  1  0.62247554  0.75019384  0.37616553  1
  V  V13  1  0.37541181  0.62374845  0.75464581  1
  V  V14  1  -0.00345199  0.51413090  -0.00350005  1
  V  V15  1  0.00480060  0.00745671  0.01340030  1
  V  V16  1  0.01231204  0.51028373  0.48423987  1
  V  V17  1  0.37542334  0.75323737  0.11664461  1
  V  V18  1  0.49967999  0.87713541  0.37650586  1
  V  V19  1  0.12192896  0.75890501  0.86869682  1
  V  V20  1  -0.01160420  -0.00497531  0.49619039  1
  V  V21  1  0.74915045  0.11751252  0.87948670  1
  V  V22  1  0.62675951  0.49587736  0.12534641  1
  V  V23  1  0.87493600  0.37502557  0.49739129  1
  V  V24  1  0.75623216  0.75000062  0.49853393  1
  V  V25  1  0.62165398  0.37319208  0.74881950  1
  V  V26  1  0.37366979  0.24318075  0.12966734  1
  V  V27  1  0.49995459  -0.00804199  0.00663662  1
  V  V28  1  0.50526476  0.12448882  0.63245763  1
  V  V29  1  0.75517534  0.00376669  0.26967553  1
  V  V30  1  0.62640168  0.74774890  0.87367789  1
  V  V31  1  0.75047547  0.25069013  -0.00110515  1
  V  V32  1  0.75087788  0.62539511  0.37553483  1
  V  V33  1  0.37299369  0.24161142  0.63436904  1
  V  V34  1  0.62540489  0.88001672  0.24371199  1
  V  V35  1  0.75367221  0.75053878  0.00309266  1
  V  V36  1  0.74835660  0.23519758  0.50013729  1
  V  V37  1  0.00042411  0.25164019  0.75154160  1
  V  V38  1  0.13307742  0.86996427  0.26393589  1
  V  V39  1  0.12613183  0.50206920  0.62019882  1
  V  V40  1  0.62552456  0.62288353  0.00039252  1
  V  V41  1  0.75542836  -0.00294872  0.75405790  1
  V  V42  1  0.87089529  0.49806853  0.36976973  1
  V  V43  1  0.49573754  0.24145560  0.25219051  1
  V  V44  1  0.61277646  0.61863120  0.50007672  1
  V  V45  1  0.12436750  0.51571799  0.11570543  1
  V  V46  1  0.62617402  0.23836706  0.38344007  1
  V  V47  1  0.24946075  0.49978922  0.24526642  1
  V  V48  1  0.24661791  0.49973444  0.75378715  1
  V  V49  1  0.37059505  0.37322314  0.00863144  1
  V  V50  1  0.24911706  0.37341452  0.62757953  1
  V  V51  1  0.24413733  0.87588999  0.12351985  1
  V  V52  1  0.25373924  0.00243529  0.74701618  1
  V  V53  1  0.25515543  0.12314597  0.37478733  1
  V  V54  1  0.37824427  0.37949667  0.50471266  1
  V  V55  1  0.87917483  0.62781447  0.24288000  1
  V  V56  1  0.62445778  0.87562346  0.74870243  1
  V  V57  1  0.75299996  0.49619925  0.74956606  1
  V  V58  1  0.76586563  0.35571653  0.14605728  1
  V  V59  1  0.49912045  0.74878418  0.74879191  1
  V  V60  1  0.12460187  0.25508723  0.37371525  1
  V  V61  1  0.62424284  0.12031386  0.01135560  1
  V  V62  1  0.75202956  0.88811716  0.12260822  1
  V  V63  1  0.37355171  0.87545713  0.50363768  1
  V  V64  1  0.75316213  0.61960681  0.87457683  1
  V  V65  1  -0.00007853  0.12427228  0.62342104  1
  V  V66  1  -0.01480683  0.86860797  0.37895929  1
  V  V67  1  0.87632558  0.62030088  0.75185839  1
  V  V68  1  0.00267582  0.62514378  0.62053316  1
  V  V69  1  0.37046692  0.50079062  0.37431498  1
  V  V70  1  0.24505796  0.75574045  -0.00158597  1
  V  V71  1  0.49907609  0.49916874  0.00163562  1
  V  V72  1  0.24774716  0.24745708  0.00268070  1
  V  V73  1  0.25154152  0.25236107  0.50041629  1
  V  V74  1  0.50593145  0.00741154  0.50051244  1
  V  V75  1  0.19709412  0.04740444  0.19358848  1
  V  V76  1  0.24615532  0.86822746  0.62777271  1
  V  V77  1  0.25608609  0.12565254  0.87271511  1
  V  V78  1  0.00599235  0.75031997  0.24260503  1
  V  V79  1  0.87607384  0.12226262  0.75756966  1
  V  V80  1  0.12215967  0.37494296  0.23664428  1
  V  V81  1  0.49862346  0.74846831  0.24831824  1
  V  V82  1  -0.00642192  0.88787689  0.86857355  1
  V  V83  1  0.50060460  0.37790769  0.38124611  1
  V  V84  1  -0.00049222  0.36678021  0.36519442  1
  Zn  Zn85  1  0.37008914  0.49954058  0.88083259  1
  Zn  Zn86  1  0.36060022  0.63327146  0.25493883  1
  Zn  Zn87  1  0.87979856  0.75021361  0.12157689  1
  Zn  Zn88  1  0.89961668  0.24518577  0.12996277  1
  Zn  Zn89  1  0.12090177  0.37583345  0.75168536  1
  Zn  Zn90  1  0.62085451  0.24458300  0.87428088  1
  Zn  Zn91  1  0.63013362  0.00707375  0.62116711  1
  Zn  Zn92  1  0.01031130  0.12572870  0.13353539  1
  Zn  Zn93  1  0.49381920  0.24406719  0.75624016  1
  Zn  Zn94  1  0.87533478  0.88398809  -0.00340029  1
  Zn  Zn95  1  0.49946545  0.11723671  0.13173121  1
  Zn  Zn96  1  0.74784815  0.37550890  0.62263174  1
  Zn  Zn97  1  0.49561105  0.61923049  0.62200925  1
  Zn  Zn98  1  0.49636199  0.62392872  0.12555722  1
  Zn  Zn99  1  0.61658478  0.49456324  0.61894665  1
  Zn  Zn100  1  0.49487101  0.87235856  0.87733249  1
  Zn  Zn101  1  0.22792944  0.73288392  0.46937094  1
  Zn  Zn102  1  0.88872871  0.11242666  0.25582555  1
  Zn  Zn103  1  0.00299272  0.75446487  0.74736103  1
  Zn  Zn104  1  0.37134708  0.74907198  0.62684216  1
  Zn  Zn105  1  -0.00175055  0.38184939  0.87352295  1
  Zn  Zn106  1  0.12459935  0.12412763  0.49925972  1
  Zn  Zn107  1  0.17638950  0.20920831  0.17875423  1
  Zn  Zn108  1  0.18494233  0.18277037  0.68933695  1
  Zn  Zn109  1  0.18701298  0.68820592  0.18932261  1
  Zn  Zn110  1  0.18570479  0.68480081  0.68928487  1
  Zn  Zn111  1  0.69078266  0.18499135  0.19181663  1
  Zn  Zn112  1  0.68699880  0.18949639  0.68831432  1
  Zn  Zn113  1  0.68577262  0.69008042  0.18426418  1
  Zn  Zn114  1  0.68706305  0.68455904  0.68486217  1
  Zn  Zn115  1  0.30884513  0.31886385  0.31095646  1
  Zn  Zn116  1  0.31313858  0.31526571  0.81708903  1
  Zn  Zn117  1  0.31450213  0.81882970  0.31064599  1
  Zn  Zn118  1  0.30967793  0.81649437  0.81068076  1
  Zn  Zn119  1  0.82777529  0.27769086  0.32304441  1
  Zn  Zn120  1  0.81092389  0.31014177  0.81414548  1
  Zn  Zn121  1  0.81213921  0.81190142  0.30822155  1
  Zn  Zn122  1  0.81530200  0.80893853  0.81142309  1
  Zn  Zn123  1  0.19436312  0.55610369  0.43763596  1
  Zn  Zn124  1  0.18236441  0.43178213  0.93933813  1
  Zn  Zn125  1  0.18784402  0.93864937  0.44367621  1
  Zn  Zn126  1  0.18458999  0.93814790  0.93783223  1
  Zn  Zn127  1  0.68857294  0.43355595  0.43726646  1
  Zn  Zn128  1  0.68911342  0.43498877  0.93598579  1
  Zn  Zn129  1  0.68474779  0.93564083  0.43960834  1
  Zn  Zn130  1  0.68474536  0.93686114  0.93740890  1
  Zn  Zn131  1  0.31991978  0.06666424  0.05385284  1
  Zn  Zn132  1  0.31659519  0.06243934  0.56051875  1
  Zn  Zn133  1  0.31009831  0.56503739  0.06667184  1
  Zn  Zn134  1  0.31778738  0.56170215  0.56736340  1
  Zn  Zn135  1  0.82735709  0.06396054  0.06548569  1
  Zn  Zn136  1  0.81481845  0.06131680  0.56740323  1
  Zn  Zn137  1  0.81385687  0.55779085  0.06272989  1
  Zn  Zn138  1  0.81251154  0.56175831  0.56204142  1
  Zn  Zn139  1  0.43728747  0.43323210  0.18840570  1
  Zn  Zn140  1  0.43822008  0.44007987  0.68888756  1
  Zn  Zn141  1  0.43297261  0.93192504  0.18442537  1
  Zn  Zn142  1  0.43562913  0.94070762  0.68930732  1
  Zn  Zn143  1  0.94066825  0.43959522  0.18118838  1
  Zn  Zn144  1  0.93868396  0.43896450  0.68426790  1
  Zn  Zn145  1  0.93707828  0.93591628  0.18903349  1
  Zn  Zn146  1  0.93774087  0.93602535  0.68779993  1
  Zn  Zn147  1  0.06345354  0.06123020  0.32219804  1
  Zn  Zn148  1  0.06863689  0.06376767  0.81303529  1
  Zn  Zn149  1  0.05580001  0.55638110  0.30098924  1
  Zn  Zn150  1  0.06315472  0.56680365  0.81343841  1
  Zn  Zn151  1  0.56641516  0.06025241  0.31290677  1
  Zn  Zn152  1  0.56470584  0.05928997  0.81357754  1
  Zn  Zn153  1  0.55692072  0.56393110  0.31532556  1
  Zn  Zn154  1  0.56297543  0.55782736  0.81285723  1
  Zn  Zn155  1  0.43775677  0.18803893  0.44239608  1
  Zn  Zn156  1  0.43635853  0.18239361  0.94074038  1
  Zn  Zn157  1  0.40025976  0.70000919  0.42283041  1
  Zn  Zn158  1  0.43439761  0.68781669  0.93672242  1
  Zn  Zn159  1  0.93550565  0.18020658  0.43349863  1
  Zn  Zn160  1  0.93688381  0.18360285  0.94418339  1
  Zn  Zn161  1  1.04875178  0.68882203  0.43739021  1
  Zn  Zn162  1  0.93743288  0.69062129  0.93376896  1
  Zn  Zn163  1  0.05938776  0.31474819  0.05716868  1
  Zn  Zn164  1  0.06249360  0.31823934  0.55887464  1
  Zn  Zn165  1  0.06571975  0.82070881  0.05888138  1
  Zn  Zn166  1  0.06481321  0.81573274  0.56288662  1
  Zn  Zn167  1  0.56608182  0.30738793  0.06505789  1
  Zn  Zn168  1  0.56085172  0.30891474  0.56519765  1
  Zn  Zn169  1  0.56650789  0.81309497  0.06266154  1
  Zn  Zn170  1  0.56168001  0.81013687  0.56281760  1
  O  O171  1  0.14065048  0.10823296  0.13451960  1
  O  O172  1  0.11542054  0.11981602  0.62029445  1
  O  O173  1  0.12513766  0.61419440  0.12241405  1
  O  O174  1  0.11494027  0.61633212  0.62923997  1
  O  O175  1  0.62324767  0.12543088  0.11399915  1
  O  O176  1  0.61085608  0.12645931  0.62664971  1
  O  O177  1  0.62390756  0.61639367  0.11651950  1
  O  O178  1  0.62495640  0.62452286  0.60880507  1
  O  O179  1  0.38133114  0.37936356  0.38350093  1
  O  O180  1  0.38598188  0.37709353  0.88587753  1
  O  O181  1  0.38220307  0.88679767  0.38353712  1
  O  O182  1  0.37480770  0.88886418  0.87269808  1
  O  O183  1  0.87898451  0.37248092  0.37850754  1
  O  O184  1  0.87400136  0.37209089  0.88713387  1
  O  O185  1  0.88702013  0.87225716  0.37396348  1
  O  O186  1  0.88989385  0.86808442  0.87621361  1
  O  O187  1  0.26059308  0.01173236  0.38517281  1
  O  O188  1  0.25451838  0.00550954  0.86902868  1
  O  O189  1  0.26120058  0.49677342  0.36374280  1
  O  O190  1  0.24461180  0.50757815  0.87148834  1
  O  O191  1  0.75051370  -0.00434081  0.36898655  1
  O  O192  1  0.74924513  0.00582217  0.86722709  1
  O  O193  1  0.75651901  0.50124774  0.36804853  1
  O  O194  1  0.74545529  0.50666913  0.86214606  1
  O  O195  1  0.23530368  0.49980673  0.12719042  1
  O  O196  1  0.24495978  0.49567117  0.63526672  1
  O  O197  1  0.26073261  0.99541641  0.12747546  1
  O  O198  1  0.24460500  0.99702024  0.62888677  1
  O  O199  1  0.74585071  0.48697399  0.13192743  1
  O  O200  1  0.74482365  0.49791342  0.63672171  1
  O  O201  1  0.75132242  0.98919887  0.12224733  1
  O  O202  1  0.74843011  0.99102311  0.63155479  1
  O  O203  1  0.00478142  0.37701228  0.25577741  1
  O  O204  1  -0.00290045  0.36562442  0.75365910  1
  O  O205  1  0.00818108  0.87263824  0.26260290  1
  O  O206  1  -0.00260215  0.87252522  0.76279257  1
  O  O207  1  0.50866541  0.36508480  0.25648735  1
  O  O208  1  0.50482213  0.37308867  0.76127496  1
  O  O209  1  0.50775483  0.86779066  0.25196291  1
  O  O210  1  0.50811183  0.86799111  0.75028470  1
  O  O211  1  0.50635819  0.13717554  0.25049467  1
  O  O212  1  0.50219913  0.12447420  0.73809982  1
  O  O213  1  0.50566353  0.64077820  0.24532773  1
  O  O214  1  0.49142039  0.63117564  0.75677314  1
  O  O215  1  1.00314842  0.11304321  0.24789384  1
  O  O216  1  0.99210827  0.12992499  0.74693273  1
  O  O217  1  0.99104230  0.63649142  0.25220009  1
  O  O218  1  0.99177068  0.62535683  0.74003147  1
  O  O219  1  0.37065535  0.25540189  0.00732799  1
  O  O220  1  0.36971526  0.25718294  0.51068020  1
  O  O221  1  0.36248531  0.74813085  0.00471013  1
  O  O222  1  0.39146231  0.77050739  0.51270456  1
  O  O223  1  0.86589751  0.25714661  0.00592475  1
  O  O224  1  0.86920023  0.25699569  0.50567309  1
  O  O225  1  0.86259592  0.74926766  0.00005822  1
  O  O226  1  0.85923879  0.74555270  0.51291695  1
  O  O227  1  0.13440991  0.25289983  0.49106289  1
  O  O228  1  0.13630068  0.25527078  0.99124087  1
  O  O229  1  0.12293320  0.75005291  0.49478727  1
  O  O230  1  0.13635885  0.75407429  0.98858246  1
  O  O231  1  0.63178824  0.25387538  0.49156171  1
  O  O232  1  0.62772024  0.23793185  0.99342379  1
  O  O233  1  0.63287262  0.74184177  0.49460959  1
  O  O234  1  0.63464899  0.74400501  0.99445228  1
  O  O235  1  0.49448712  0.24811446  0.13608341  1
  O  O236  1  0.49205406  0.23858565  0.62854092  1
  O  O237  1  0.49239322  0.75172824  0.12797422  1
  O  O238  1  0.50150575  0.74369999  0.64015854  1
  O  O239  1  1.01284325  0.24317972  0.12718222  1
  O  O240  1  0.99606903  0.24547560  0.63080872  1
  O  O241  1  0.99997484  0.76186354  0.13799088  1
  O  O242  1  0.99226367  0.74488210  0.62627423  1
  O  O243  1  0.01214825  0.25933580  0.38640412  1
  O  O244  1  0.00605762  0.24647083  0.86910098  1
  O  O245  1  -0.00040792  0.76359840  0.36403329  1
  O  O246  1  0.01105216  0.75650082  0.87400912  1
  O  O247  1  0.50692724  0.25659587  0.37232189  1
  O  O248  1  0.49812228  0.25606376  0.87478517  1
  O  O249  1  0.49943971  0.75771837  0.36527437  1
  O  O250  1  0.50617738  0.75162366  0.86676943  1
  O  O251  1  0.25144740  0.13706820  0.49395995  1
  O  O252  1  0.25416491  0.13821449  0.99033849  1
  O  O253  1  0.26195638  0.62452698  0.49501795  1
  O  O254  1  0.25401187  0.63256032  0.98822787  1
  O  O255  1  0.75534571  0.13561111  0.50472034  1
  O  O256  1  0.74630090  0.12767937  0.99489475  1
  O  O257  1  0.74498210  0.63165978  0.49306578  1
  O  O258  1  0.74637388  0.62873803  0.99503772  1
  O  O259  1  0.26228619  0.36309115  -0.01034005  1
  O  O260  1  0.25998033  0.36077248  0.50997771  1
  O  O261  1  0.24638799  0.86930291  0.00888752  1
  O  O262  1  0.25950624  0.87469420  0.51023599  1
  O  O263  1  0.75552675  0.36692363  0.00463644  1
  O  O264  1  0.76371426  0.37176376  0.50057917  1
  O  O265  1  0.75029477  0.86790532  0.00481295  1
  O  O266  1  0.74215357  0.86646642  0.51307955  1
  O  O267  1  0.12627216  0.49458815  0.23560744  1
  O  O268  1  0.13104990  0.49934914  0.74267787  1
  O  O269  1  0.13449324  0.99113371  0.25287386  1
  O  O270  1  0.13246967  1.00646455  0.73515575  1
  O  O271  1  0.62368135  0.49446881  0.24490624  1
  O  O272  1  0.63115193  0.48658868  0.75114833  1
  O  O273  1  0.63352775  0.98635971  0.25592738  1
  O  O274  1  0.63577545  0.99136217  0.74718107  1
  O  O275  1  0.38295930  -0.00302872  0.26493975  1
  O  O276  1  0.36721537  0.00222038  0.75864815  1
  O  O277  1  0.36483974  0.49454303  0.25327490  1
  O  O278  1  0.36521809  0.50654471  0.75741470  1
  O  O279  1  0.85868857  -0.00554155  0.25269952  1
  O  O280  1  0.86377030  0.00790893  0.74494856  1
  O  O281  1  0.86828215  0.50342431  0.25143579  1
  O  O282  1  0.86638661  0.50705329  0.74467106  1
  O  O283  1  0.11078319  0.36992006  0.36517804  1
  O  O284  1  0.12309120  0.35908298  0.86964879  1
  O  O285  1  0.12585054  0.87823730  0.36656265  1
  O  O286  1  0.11548466  0.86475238  0.87430952  1
  O  O287  1  0.61645927  0.36927418  0.37132964  1
  O  O288  1  0.61278188  0.37271800  0.87150836  1
  O  O289  1  0.61790554  0.86785403  0.36878937  1
  O  O290  1  0.62613355  0.86730422  0.86167884  1
  O  O291  1  0.37985127  0.13890035  0.12270282  1
  O  O292  1  0.38525845  0.13277984  0.62290907  1
  O  O293  1  0.37528937  0.63816739  0.12964660  1
  O  O294  1  0.37499201  0.62843905  0.64261882  1
  O  O295  1  0.87886846  0.13080678  0.13868876  1
  O  O296  1  0.88006899  0.13117082  0.63809244  1
  O  O297  1  0.86601411  0.62665209  0.13901758  1
  O  O298  1  0.87848924  0.63001284  0.63368193  1
  O  O299  1  0.25909274  0.25146915  0.11449274  1
  O  O300  1  0.25460054  0.25033688  0.62093502  1
  O  O301  1  0.25314536  0.75525564  0.11641312  1
  O  O302  1  0.25031432  0.76297879  0.63417904  1
  O  O303  1  0.72794650  0.25637259  0.10631544  1
  O  O304  1  0.75622319  0.25268752  0.61828274  1
  O  O305  1  0.75020397  0.75761653  0.11520255  1
  O  O306  1  0.75468773  0.75568834  0.62042491  1
  O  O307  1  0.24735503  0.24711929  0.38279588  1
  O  O308  1  0.24615877  0.24252646  0.87779642  1
  O  O309  1  0.29593722  0.73502017  0.38026295  1
  O  O310  1  0.24116131  0.74849265  0.87865055  1
  O  O311  1  0.73115437  0.25895405  0.38684863  1
  O  O312  1  0.74765567  0.24105150  0.88572502  1
  O  O313  1  0.74523180  0.74747365  0.38216212  1
  O  O314  1  0.74489469  0.74214304  0.88059821  1
  O  O315  1  -0.00005515  0.11338407  0.00776900  1
  O  O316  1  -0.00106898  0.11302132  0.50261179  1
  O  O317  1  -0.00767743  0.61336642  -0.00082117  1
  O  O318  1  -0.01428866  0.62190241  0.51599939  1
  O  O319  1  0.50881214  0.11429072  0.00205544  1
  O  O320  1  0.49570364  0.11741551  0.51333039  1
  O  O321  1  0.50463721  0.61546858  0.00023459  1
  O  O322  1  0.51354661  0.63228779  0.49683261  1
  O  O323  1  0.49059794  0.36687139  0.49305343  1
  O  O324  1  0.49642797  0.37929214  0.99650382  1
  O  O325  1  0.49725526  0.88393485  0.49662215  1
  O  O326  1  0.50795086  0.88767865  0.99618559  1
  O  O327  1  0.99100683  0.38412433  0.48934696  1
  O  O328  1  0.99044058  0.38354018  0.99517559  1
  O  O329  1  1.00055857  0.88141685  0.48832448  1
  O  O330  1  0.99830615  0.88204443  0.98660228  1
  O  O331  1  0.49459575  0.48195826  0.36801027  1
  O  O332  1  0.49850678  0.49225334  0.88855112  1
  O  O333  1  0.49532267  0.99860438  0.38312022  1
  O  O334  1  0.49280831  0.99775687  0.88024282  1
  O  O335  1  0.98202025  0.48445677  0.36847655  1
  O  O336  1  1.01098351  0.49959138  0.89104749  1
  O  O337  1  1.00468517  0.98716517  0.38972884  1
  O  O338  1  1.00125737  0.98947628  0.86986128  1
  O  O339  1  0.00398851  -0.00413195  0.11629264  1
  O  O340  1  0.00562163  0.00184573  0.61782142  1
  O  O341  1  0.01288637  0.49858879  0.11148042  1
  O  O342  1  0.00821942  0.50657680  0.61623098  1
  O  O343  1  0.49393349  -0.00146878  0.11150638  1
  O  O344  1  0.50117418  0.01098720  0.62119959  1
  O  O345  1  0.50511205  0.49801754  0.11522180  1
  O  O346  1  0.50326171  0.50633219  0.62868336  1
  O  O347  1  0.23518567  0.38806420  0.25354972  1
  O  O348  1  0.25040468  0.38751451  0.74867368  1
  O  O349  1  0.24260893  0.87220468  0.24251007  1
  O  O350  1  0.25257498  0.89046250  0.74109641  1
  O  O351  1  0.73261154  0.38767930  0.25290132  1
  O  O352  1  0.74294209  0.37998658  0.75044393  1
  O  O353  1  0.74371376  0.88224076  0.24341343  1
  O  O354  1  0.74616905  0.87983090  0.74430246  1
  O  O355  1  0.24355719  0.11749603  0.25342438  1
  O  O356  1  0.24867965  0.11351059  0.75642816  1
  O  O357  1  0.24587543  0.60856932  0.24882041  1
  O  O358  1  0.25434680  0.61615018  0.75873157  1
  O  O359  1  0.74304434  0.10336167  0.24984978  1
  O  O360  1  0.75478429  0.11764680  0.75659974  1
  O  O361  1  0.75105641  0.62169696  0.25589624  1
  O  O362  1  0.75502306  0.61671738  0.75314442  1
  O  O363  1  0.36429875  0.12267478  0.37842128  1
  O  O364  1  0.36338968  0.11581840  0.87731645  1
  O  O365  1  0.39767977  0.60118526  0.36538329  1
  O  O366  1  0.36443840  0.62323227  0.86735752  1
  O  O367  1  0.86608419  0.17317043  0.34888262  1
  O  O368  1  0.86438229  0.13092056  0.86466948  1
  O  O369  1  0.86580628  0.60976852  0.36049464  1
  O  O370  1  0.86947262  0.63087359  0.85952481  1
  O  O371  1  0.12216828  0.37995759  0.13456319  1
  O  O372  1  0.13193935  0.37995217  0.63134928  1
  O  O373  1  0.13853834  0.87365196  0.13579845  1
  O  O374  1  0.13422094  0.88430252  0.62413679  1
  O  O375  1  0.63222317  0.37592936  0.13656644  1
  O  O376  1  0.62592216  0.37442824  0.63425801  1
  O  O377  1  0.63550747  0.86953125  0.13534814  1
  O  O378  1  0.63272293  0.87267465  0.63664453  1
  O  O379  1  0.13164015  0.26182905  0.26525159  1
  O  O380  1  0.11145407  0.24845910  0.75387447  1
  O  O381  1  0.11931292  0.75663629  0.25229153  1
  O  O382  1  0.12417821  0.74948535  0.76427195  1
  O  O383  1  0.62139480  0.25599720  0.26245915  1
  O  O384  1  0.62320567  0.26167178  0.75445211  1
  O  O385  1  0.62057745  0.75902003  0.25598285  1
  O  O386  1  0.61992252  0.75354318  0.75422134  1
  O  O387  1  0.38386008  0.25989101  0.24293619  1
  O  O388  1  0.37363489  0.25602071  0.73789686  1
  O  O389  1  0.38530171  0.75036738  0.23960996  1
  O  O390  1  0.38256809  0.74391714  0.75268078  1
  O  O391  1  0.82380394  0.28453498  0.20970000  1
  O  O392  1  0.88325483  0.24381067  0.74690822  1
  O  O393  1  0.88259827  0.74228260  0.24825136  1
  O  O394  1  0.87483468  0.74035556  0.73748036  1
  O  O395  1  0.36984678  0.48507804  0.49283010  1
  O  O396  1  0.38114636  0.49234822  1.00300562  1
  O  O397  1  0.38628077  0.99200049  0.49578640  1
  O  O398  1  0.39181537  1.00337122  0.99028565  1
  O  O399  1  0.87925155  0.49441204  0.48734930  1
  O  O400  1  0.88784126  0.49518685  1.00058933  1
  O  O401  1  0.88954777  0.99812514  0.50770830  1
  O  O402  1  0.89345989  0.99894804  0.99738684  1
  O  O403  1  0.10418776  -0.00224131  -0.01011663  1
  O  O404  1  0.11661724  0.00215483  0.51196936  1
  O  O405  1  0.11719132  0.49624900  0.00988161  1
  O  O406  1  0.12714967  0.48861826  0.51695558  1
  O  O407  1  0.61105489  0.00707154  -0.00678411  1
  O  O408  1  0.61112246  -0.00387846  0.50384447  1
  O  O409  1  0.61883335  0.50137159  0.00533036  1
  O  O410  1  0.62980496  0.51456859  0.49679636  1
  O  O411  1  0.38142734  0.36449588  0.11347640  1
  O  O412  1  0.36944199  0.36885267  0.62065446  1
  O  O413  1  0.36204901  0.86117916  0.12863655  1
  O  O414  1  0.36538400  0.87832918  0.62052617  1
  O  O415  1  0.86756890  0.38180695  0.10980993  1
  O  O416  1  0.87597924  0.36961524  0.61421673  1
  O  O417  1  0.86495144  0.87050163  0.12156313  1
  O  O418  1  0.86537181  0.86452795  0.63075426  1
  O  O419  1  0.13856047  0.13425474  0.37951369  1
  O  O420  1  0.13755508  0.13719087  0.86999159  1
  O  O421  1  0.08809428  0.58527153  0.40536473  1
  O  O422  1  0.13203305  0.63993970  0.87258401  1
  O  O423  1  0.62020341  0.13989002  0.37799392  1
  O  O424  1  0.63693404  0.12386950  0.88017163  1
  O  O425  1  0.62928877  0.63002617  0.38247114  1
  O  O426  1  0.63136069  0.62842419  0.88046818  1
