# generated using pymatgen
data_V85Zn86O256
_symmetry_space_group_name_H-M   'P 1'
_cell_length_a   16.94800379
_cell_length_b   16.93934478
_cell_length_c   16.93722556
_cell_angle_alpha   89.96881967
_cell_angle_beta   90.01607002
_cell_angle_gamma   90.02577089
_symmetry_Int_Tables_number   1
_chemical_formula_structural   V85Zn86O256
_chemical_formula_sum   'V85 Zn86 O256'
_cell_volume   4862.47415630
_cell_formula_units_Z   1
loop_
 _symmetry_equiv_pos_site_id
 _symmetry_equiv_pos_as_xyz
  1  'x, y, z'
loop_
 _atom_site_type_symbol
 _atom_site_label
 _atom_site_symmetry_multiplicity
 _atom_site_fract_x
 _atom_site_fract_y
 _atom_site_fract_z
 _atom_site_occupancy
  V  V0  1  -0.00201900  0.48869657  0.50152125  1
  V  V1  1  0.00076715  0.62273651  0.12845254  1
  V  V2  1  0.25046638  -0.00055345  0.25028263  1
  V  V3  1  0.49965577  0.74820048  0.74965263  1
  V  V4  1  0.49422110  0.61676760  0.12270918  1
  V  V5  1  0.50334266  -0.00059364  0.00076476  1
  V  V6  1  0.75296009  0.12350999  0.38255627  1
  V  V7  1  0.37199236  0.49924835  0.37234724  1
  V  V8  1  0.38156394  0.37967636  -0.00295845  1
  V  V9  1  0.00083816  0.23918648  0.24414996  1
  V  V10  1  0.24047791  0.00097039  0.74972657  1
  V  V11  1  0.37326940  -0.00082483  0.87417839  1
  V  V12  1  0.24146924  0.87809138  0.62543105  1
  V  V13  1  0.75376087  0.60956610  0.88098410  1
  V  V14  1  0.62582384  0.74979236  0.38135469  1
  V  V15  1  0.49843448  0.87087542  0.87690147  1
  V  V16  1  0.37540580  0.86901637  0.00613117  1
  V  V17  1  0.74492900  0.50435097  0.72669436  1
  V  V18  1  0.23777116  0.48563463  0.23985326  1
  V  V19  1  0.12412215  0.37137890  0.75059275  1
  V  V20  1  0.88281451  -0.00131190  0.38572570  1
  V  V21  1  0.38116446  0.24514838  0.10758877  1
  V  V22  1  0.62623354  0.74661158  0.87949425  1
  V  V23  1  -0.00016401  0.74776149  0.75358833  1
  V  V24  1  0.25049172  0.62578136  0.87610122  1
  V  V25  1  0.63213554  0.00001382  0.12578829  1
  V  V26  1  0.51151145  0.62515812  0.61834415  1
  V  V27  1  -0.00351395  0.00707329  0.00224852  1
  V  V28  1  0.87788506  0.26395585  0.61980959  1
  V  V29  1  0.25122557  0.50127298  0.74871063  1
  V  V30  1  0.50501962  0.25805151  0.25084571  1
  V  V31  1  0.11904732  -0.00004632  0.12805570  1
  V  V32  1  0.24816713  0.25213582  0.50000162  1
  V  V33  1  0.25427678  0.13333285  0.87808892  1
  V  V34  1  0.36809209  0.63154987  0.24303663  1
  V  V35  1  0.87500488  0.75108098  0.62484312  1
  V  V36  1  0.51140702  0.50462931  0.49902763  1
  V  V37  1  0.12049224  0.11496859  0.50498795  1
  V  V38  1  0.87259223  0.49781162  0.37374716  1
  V  V39  1  0.12999473  0.12174585  0.00301282  1
  V  V40  1  0.86363267  0.00415738  0.87707108  1
  V  V41  1  0.87012604  0.25000493  0.11196677  1
  V  V42  1  0.38011355  0.37868871  0.49436638  1
  V  V43  1  0.62270097  -0.00228871  0.61612011  1
  V  V44  1  0.37802767  0.25113232  0.62482415  1
  V  V45  1  0.37649482  0.12643498  0.25027020  1
  V  V46  1  0.61952869  0.61101750  0.00345281  1
  V  V47  1  0.75157300  0.74487536  0.00983755  1
  V  V48  1  -0.00127786  0.61953478  0.62706643  1
  V  V49  1  0.62659955  0.25788397  0.37260704  1
  V  V50  1  0.51215734  0.38242053  0.87546473  1
  V  V51  1  0.50778479  0.12217887  0.12738624  1
  V  V52  1  0.24916951  0.12597377  0.37828918  1
  V  V53  1  0.24906994  0.74930044  0.00429265  1
  V  V54  1  0.12599072  0.61052126  0.00567057  1
  V  V55  1  0.74196346  0.25290107  -0.01676465  1
  V  V56  1  0.49943486  0.12007179  0.61728279  1
  V  V57  1  0.25190245  0.37681844  0.62358632  1
  V  V58  1  0.62866060  0.38074509  0.72891506  1
  V  V59  1  0.86693351  0.62927310  0.24570527  1
  V  V60  1  0.87509790  0.87007427  0.00937805  1
  V  V61  1  0.62807855  0.87504421  0.75112873  1
  V  V62  1  0.24684819  0.75103452  0.49465362  1
  V  V63  1  0.38028152  0.00289773  0.38401766  1
  V  V64  1  0.74972141  0.62519725  0.38382257  1
  V  V65  1  -0.02492590  0.49991780  -0.00165992  1
  V  V66  1  -0.00175131  0.87489949  0.87918147  1
  V  V67  1  0.25075172  0.87094427  0.12734320  1
  V  V68  1  0.50840711  0.25197249  0.74911157  1
  V  V69  1  0.24373336  0.62753717  0.37182675  1
  V  V70  1  0.49667437  0.75333822  0.24390330  1
  V  V71  1  0.37328111  0.75010135  0.62269054  1
  V  V72  1  0.37535288  0.62528203  0.74941566  1
  V  V73  1  0.12442916  0.25568046  0.37423910  1
  V  V74  1  0.12349880  0.74946316  0.87920055  1
  V  V75  1  0.75147059  0.26751529  0.50411781  1
  V  V76  1  0.50132348  0.87950905  0.38026329  1
  V  V77  1  0.86571972  0.12583860  0.74894774  1
  V  V78  1  0.00133097  0.37694516  0.36298898  1
  V  V79  1  0.20646174  0.30176868  0.05538638  1
  V  V80  1  0.00723396  0.87045048  0.38461269  1
  V  V81  1  0.12142360  0.62714696  0.49747714  1
  V  V82  1  0.00001933  0.10854442  0.62492867  1
  V  V83  1  0.00431208  0.75058125  0.24941709  1
  V  V84  1  0.75485374  -0.00098271  0.25263566  1
  Zn  Zn85  1  0.87586448  0.87604385  0.50408936  1
  Zn  Zn86  1  0.75169956  0.87578308  0.62464989  1
  Zn  Zn87  1  0.62336268  0.12291251  0.49813403  1
  Zn  Zn88  1  0.75451639  0.86836424  0.13105413  1
  Zn  Zn89  1  0.73989991  0.37117648  0.13266205  1
  Zn  Zn90  1  0.74396756  0.00532285  0.75329895  1
  Zn  Zn91  1  0.37556896  0.12509372  0.74879638  1
  Zn  Zn92  1  0.12299482  0.49787678  0.62507265  1
  Zn  Zn93  1  0.37933717  0.50190817  0.87906577  1
  Zn  Zn94  1  0.88027211  0.12240678  0.24837682  1
  Zn  Zn95  1  0.61737553  0.48947547  0.13973276  1
  Zn  Zn96  1  0.64537430  0.11898963  -0.03181014  1
  Zn  Zn97  1  0.12412830  0.25068164  0.87494385  1
  Zn  Zn98  1  0.55333406  0.41990804  0.32261869  1
  Zn  Zn99  1  0.74468860  0.75012042  0.50561004  1
  Zn  Zn100  1  -0.01115671  0.36970974  0.88703864  1
  Zn  Zn101  1  0.12020152  0.87814846  0.74917192  1
  Zn  Zn102  1  0.87734807  0.62294467  0.75876765  1
  Zn  Zn103  1  0.62750208  0.87433293  0.25077975  1
  Zn  Zn104  1  0.37597708  0.88015254  0.50300013  1
  Zn  Zn105  1  -0.00100798  0.24842501  0.75271776  1
  Zn  Zn106  1  0.12627648  0.87002454  0.25443848  1
  Zn  Zn107  1  0.18264318  0.18207620  0.19334767  1
  Zn  Zn108  1  0.18770983  0.18572147  0.68663297  1
  Zn  Zn109  1  0.18297112  0.68651250  0.18659397  1
  Zn  Zn110  1  0.18375398  0.68895097  0.68669360  1
  Zn  Zn111  1  0.69279580  0.18931084  0.19097400  1
  Zn  Zn112  1  0.68755005  0.19016111  0.68327748  1
  Zn  Zn113  1  0.68040584  0.68343314  0.19060162  1
  Zn  Zn114  1  0.68935056  0.68806838  0.69103593  1
  Zn  Zn115  1  0.31641431  0.31091302  0.30972697  1
  Zn  Zn116  1  0.31771663  0.31488573  0.81246546  1
  Zn  Zn117  1  0.31405145  0.81400791  0.31402229  1
  Zn  Zn118  1  0.30991240  0.81308240  0.81250910  1
  Zn  Zn119  1  0.81824223  0.31108325  0.31805572  1
  Zn  Zn120  1  0.81138227  0.31799406  0.80809093  1
  Zn  Zn121  1  0.81734915  0.81166679  0.31538601  1
  Zn  Zn122  1  0.81224983  0.80801615  0.81883070  1
  Zn  Zn123  1  0.18727636  0.44020612  0.43522181  1
  Zn  Zn124  1  0.18756091  0.43781816  0.93020421  1
  Zn  Zn125  1  0.18893188  0.93726495  0.43681947  1
  Zn  Zn126  1  0.18723717  0.93800933  0.93734909  1
  Zn  Zn127  1  0.72401427  0.47146371  0.26626710  1
  Zn  Zn128  1  0.68969563  0.42969850  0.94313413  1
  Zn  Zn129  1  0.69171474  0.93258425  0.43933757  1
  Zn  Zn130  1  0.68804324  0.93192885  0.94184956  1
  Zn  Zn131  1  0.31359213  0.05928187  0.06278463  1
  Zn  Zn132  1  0.30854900  0.06421652  0.56510725  1
  Zn  Zn133  1  0.31127817  0.55962251  0.06496281  1
  Zn  Zn134  1  0.31393340  0.56470099  0.56188908  1
  Zn  Zn135  1  0.81365978  0.07262906  0.06460429  1
  Zn  Zn136  1  0.81032735  0.06001556  0.56616163  1
  Zn  Zn137  1  0.80142287  0.55499559  0.07749954  1
  Zn  Zn138  1  0.81798312  0.56200658  0.55928426  1
  Zn  Zn139  1  0.42334066  0.43686910  0.18295481  1
  Zn  Zn140  1  0.44081508  0.44074280  0.68409469  1
  Zn  Zn141  1  0.43791260  0.93832159  0.19087096  1
  Zn  Zn142  1  0.43604251  0.93655227  0.68869015  1
  Zn  Zn143  1  0.93275868  0.43825490  0.18677587  1
  Zn  Zn144  1  0.92092617  0.42452228  0.72026211  1
  Zn  Zn145  1  0.93865174  0.93751887  0.19209747  1
  Zn  Zn146  1  0.93489299  0.93602048  0.69382157  1
  Zn  Zn147  1  0.06431773  0.06006101  0.31908753  1
  Zn  Zn148  1  0.05809004  0.06643438  0.81576313  1
  Zn  Zn149  1  0.06311514  0.56187199  0.31095672  1
  Zn  Zn150  1  0.06352213  0.55901796  0.81700883  1
  Zn  Zn151  1  0.56775798  0.06420741  0.31328899  1
  Zn  Zn152  1  0.55812968  0.06065932  0.80504207  1
  Zn  Zn153  1  0.55728856  0.58029115  0.31780506  1
  Zn  Zn154  1  0.56595132  0.56125414  0.81059336  1
  Zn  Zn155  1  0.44048992  0.19092992  0.43666065  1
  Zn  Zn156  1  0.46719566  0.17815732  0.92536235  1
  Zn  Zn157  1  0.43509898  0.68856402  0.43437776  1
  Zn  Zn158  1  0.43613760  0.68676164  0.94045202  1
  Zn  Zn159  1  0.93814354  0.18736653  0.44145429  1
  Zn  Zn160  1  0.93784329  0.18669691  0.93437644  1
  Zn  Zn161  1  0.93722096  0.68832904  0.43686215  1
  Zn  Zn162  1  0.93496749  0.68428353  0.94279794  1
  Zn  Zn163  1  0.04420068  0.32299496  0.07143527  1
  Zn  Zn164  1  0.06195791  0.30946021  0.56525751  1
  Zn  Zn165  1  0.06125921  0.80920002  0.06687046  1
  Zn  Zn166  1  0.06226349  0.80879381  0.56373605  1
  Zn  Zn167  1  0.56931539  0.31172900  0.05758920  1
  Zn  Zn168  1  0.56327396  0.31425119  0.55354707  1
  Zn  Zn169  1  0.56633351  0.81001436  0.06606029  1
  Zn  Zn170  1  0.56067982  0.81455238  0.56152898  1
  O  O171  1  0.13257157  0.11483753  0.11262772  1
  O  O172  1  0.10984703  0.12997977  0.61986871  1
  O  O173  1  0.11459675  0.62643943  0.11664234  1
  O  O174  1  0.11401382  0.62363577  0.61834205  1
  O  O175  1  0.62026590  0.11369192  0.12921750  1
  O  O176  1  0.61723953  0.11543414  0.62451810  1
  O  O177  1  0.61247328  0.62026984  0.12035264  1
  O  O178  1  0.60985291  0.63745314  0.62478571  1
  O  O179  1  0.37039935  0.38483037  0.38292055  1
  O  O180  1  0.38479877  0.37801372  0.88052602  1
  O  O181  1  0.38097633  0.88690922  0.37563914  1
  O  O182  1  0.37717271  0.87928907  0.88340719  1
  O  O183  1  0.88812785  0.38663610  0.37428726  1
  O  O184  1  0.89574975  0.38578253  0.82684624  1
  O  O185  1  0.88760838  0.88120341  0.37785158  1
  O  O186  1  0.87919844  0.88204661  0.88626522  1
  O  O187  1  0.25806043  0.00583602  0.36861750  1
  O  O188  1  0.25704396  0.00506587  0.86959541  1
  O  O189  1  0.25661928  0.50868806  0.36848375  1
  O  O190  1  0.25459839  0.50788175  0.86554516  1
  O  O191  1  0.75770607  0.00384868  0.37007843  1
  O  O192  1  0.75978668  -0.00300583  0.87719059  1
  O  O193  1  0.76295325  0.51187598  0.36969759  1
  O  O194  1  0.74311768  0.50896100  0.87465082  1
  O  O195  1  0.25179376  0.50103243  0.14117446  1
  O  O196  1  0.24920817  0.49643537  0.63165973  1
  O  O197  1  0.24156961  0.99130352  0.12991258  1
  O  O198  1  0.25710932  0.99002274  0.63633573  1
  O  O199  1  0.73950241  0.49503372  0.14622479  1
  O  O200  1  0.73868296  0.51608562  0.62888811  1
  O  O201  1  0.74694943  1.00224163  0.13329251  1
  O  O202  1  0.73826781  0.99602139  0.63181987  1
  O  O203  1  0.00211537  0.36647231  0.25948576  1
  O  O204  1  0.02307179  0.37330992  0.73030092  1
  O  O205  1  0.00122409  0.86556463  0.25720876  1
  O  O206  1  0.00126396  0.86793879  0.76151490  1
  O  O207  1  0.48436916  0.36095514  0.25063346  1
  O  O208  1  0.51138109  0.37478396  0.75078318  1
  O  O209  1  0.49819194  0.86809293  0.25959754  1
  O  O210  1  0.50737596  0.86748589  0.75585321  1
  O  O211  1  0.49399141  0.12822172  0.24247080  1
  O  O212  1  0.49655609  0.13738943  0.73555325  1
  O  O213  1  0.48663221  0.63477622  0.24395861  1
  O  O214  1  0.49465086  0.62940051  0.74221348  1
  O  O215  1  1.00372833  0.13628690  0.25496989  1
  O  O216  1  0.99318738  0.12611459  0.73885016  1
  O  O217  1  0.99469805  0.63018569  0.24602585  1
  O  O218  1  0.99983297  0.62624110  0.74442867  1
  O  O219  1  0.38913087  0.24735420  0.00582097  1
  O  O220  1  0.37267246  0.25926607  0.50619745  1
  O  O221  1  0.36782763  0.76269719  -0.00241115  1
  O  O222  1  0.36548281  0.75093006  0.50726666  1
  O  O223  1  0.87163651  0.24782139  0.00774497  1
  O  O224  1  0.86599241  0.24706916  0.51073731  1
  O  O225  1  0.86541734  0.75807439  -0.00209910  1
  O  O226  1  0.87995210  0.75006665  0.51644694  1
  O  O227  1  0.13053594  0.24318335  0.49392491  1
  O  O228  1  0.13155173  0.24464408  1.00425011  1
  O  O229  1  0.13278877  0.73665994  0.50431596  1
  O  O230  1  0.12994333  0.74240924  0.99569031  1
  O  O231  1  0.63779135  0.24647597  0.49652027  1
  O  O232  1  0.63835879  0.24199863  0.99608969  1
  O  O233  1  0.62225973  0.75422775  0.48595828  1
  O  O234  1  0.63153218  0.74160592  0.99661993  1
  O  O235  1  0.49707539  0.23903068  0.13111934  1
  O  O236  1  0.49476056  0.24792520  0.62838733  1
  O  O237  1  0.50371229  0.74521888  0.13917641  1
  O  O238  1  0.48986833  0.74667551  0.62750669  1
  O  O239  1  0.99400185  0.24794128  0.13815327  1
  O  O240  1  0.98591049  0.24234101  0.62353931  1
  O  O241  1  0.99936461  0.73580926  0.13255920  1
  O  O242  1  0.99628297  0.74282880  0.63508611  1
  O  O243  1  0.00659867  0.25617019  0.37094075  1
  O  O244  1  0.00540525  0.25283591  0.87159313  1
  O  O245  1  -0.00261397  0.76322650  0.36877408  1
  O  O246  1  0.00338509  0.75251247  0.87396552  1
  O  O247  1  0.51156768  0.24369570  0.36455966  1
  O  O248  1  0.49069186  0.26843675  0.85258912  1
  O  O249  1  0.50431726  0.75532382  0.36626426  1
  O  O250  1  0.50524364  0.75292032  0.87096768  1
  O  O251  1  0.24449503  0.13411790  0.49702577  1
  O  O252  1  0.24332836  0.11427992  0.98970188  1
  O  O253  1  0.24366554  0.63121460  0.49333253  1
  O  O254  1  0.24483522  0.62983849  0.99832609  1
  O  O255  1  0.74864079  0.12321224  0.49024085  1
  O  O256  1  0.75257895  0.14080169  0.99596524  1
  O  O257  1  0.75727904  0.63117603  0.48710317  1
  O  O258  1  0.74247683  0.62648254  0.99635643  1
  O  O259  1  0.25992124  0.36328849  -0.00986045  1
  O  O260  1  0.25934195  0.37197006  0.50350869  1
  O  O261  1  0.25623485  0.87208444  0.00777531  1
  O  O262  1  0.25140658  0.86787459  0.50641362  1
  O  O263  1  0.74931420  0.35843390  0.00758187  1
  O  O264  1  0.75184106  0.36215937  0.50043254  1
  O  O265  1  0.75768945  0.86329169  0.00334486  1
  O  O266  1  0.75628435  0.86754184  0.50546264  1
  O  O267  1  0.13868916  0.49873337  0.25501365  1
  O  O268  1  0.13723543  0.49522665  0.74918298  1
  O  O269  1  0.13170913  1.00084051  0.24257649  1
  O  O270  1  0.13709444  0.99900216  0.75927719  1
  O  O271  1  0.61037923  0.49801191  0.26119433  1
  O  O272  1  0.63156640  0.49092643  0.74744000  1
  O  O273  1  0.63636140  0.99787416  0.24379029  1
  O  O274  1  0.62401929  0.99051153  0.74485526  1
  O  O275  1  0.37077048  0.01165858  0.25621013  1
  O  O276  1  0.36725679  -0.00227387  0.76244435  1
  O  O277  1  0.36684647  0.51066363  0.25721376  1
  O  O278  1  0.36475140  0.50599953  0.74752292  1
  O  O279  1  0.87026643  0.00263459  0.25940026  1
  O  O280  1  0.86985506  0.00532546  0.76052473  1
  O  O281  1  0.88490388  0.51565837  0.26152107  1
  O  O282  1  0.84987394  0.51178930  0.73699075  1
  O  O283  1  0.12011843  0.36220451  0.38126032  1
  O  O284  1  0.12169978  0.37205176  0.86438305  1
  O  O285  1  0.11196178  0.88015417  0.37317402  1
  O  O286  1  0.11715680  0.86648118  0.87838741  1
  O  O287  1  0.62671379  0.35734720  0.38183805  1
  O  O288  1  0.61384055  0.37900769  0.86651717  1
  O  O289  1  0.61683713  0.87184730  0.37152640  1
  O  O290  1  0.61781688  0.86884950  0.87134700  1
  O  O291  1  0.38038224  0.12645682  0.13372048  1
  O  O292  1  0.38048876  0.13415890  0.62492409  1
  O  O293  1  0.37780580  0.62677774  0.13324102  1
  O  O294  1  0.37818692  0.63702659  0.62955298  1
  O  O295  1  0.87687967  0.14289186  0.13153377  1
  O  O296  1  0.88523225  0.12321448  0.63105653  1
  O  O297  1  0.87877716  0.62226019  0.14101195  1
  O  O298  1  0.88812092  0.63144469  0.62593239  1
  O  O299  1  0.26011915  0.23845337  0.11847049  1
  O  O300  1  0.25985232  0.25453947  0.61969382  1
  O  O301  1  0.24434450  0.76348350  0.12142401  1
  O  O302  1  0.25516339  0.75444808  0.61716369  1
  O  O303  1  0.76133328  0.24739337  0.11950815  1
  O  O304  1  0.76169094  0.24476030  0.61142502  1
  O  O305  1  0.74249974  0.74760264  0.11415257  1
  O  O306  1  0.76064837  0.74968440  0.62734968  1
  O  O307  1  0.24408297  0.24515194  0.37816042  1
  O  O308  1  0.25325198  0.23572489  0.86941161  1
  O  O309  1  0.25370923  0.74464120  0.38668543  1
  O  O310  1  0.24408716  0.74508267  0.88242472  1
  O  O311  1  0.74917704  0.24127046  0.38745358  1
  O  O312  1  0.75407274  0.25668052  0.88386412  1
  O  O313  1  0.74211519  0.74583741  0.37534124  1
  O  O314  1  0.74217145  0.74005145  0.88610394  1
  O  O315  1  0.00927609  0.11212351  -0.00410605  1
  O  O316  1  0.00605114  0.12509913  0.51407682  1
  O  O317  1  0.00512239  0.61710632  0.00842660  1
  O  O318  1  0.00745766  0.62014656  0.50487598  1
  O  O319  1  0.48760387  0.11211009  0.02182390  1
  O  O320  1  0.50225730  0.13087113  0.51288624  1
  O  O321  1  0.50618531  0.63157494  0.01131034  1
  O  O322  1  0.49189195  0.61463480  0.50435232  1
  O  O323  1  0.48780392  0.38804405  0.50327303  1
  O  O324  1  0.49642459  0.36698416  0.98172881  1
  O  O325  1  0.49374950  0.87132329  0.48510823  1
  O  O326  1  0.49336479  0.87822760  0.99934465  1
  O  O327  1  1.00854303  0.38607747  0.49323126  1
  O  O328  1  0.99581528  0.39445502  1.00204757  1
  O  O329  1  1.00068012  0.87055549  0.48838974  1
  O  O330  1  0.99387183  0.88194859  0.99815169  1
  O  O331  1  0.48640785  0.50421949  0.38205519  1
  O  O332  1  0.49672628  0.48664064  0.86732133  1
  O  O333  1  0.49175463  0.99317729  0.36706744  1
  O  O334  1  0.48929294  0.98747534  0.87845785  1
  O  O335  1  0.99873091  0.49261676  0.38051226  1
  O  O336  1  1.00064449  0.50609254  0.89680560  1
  O  O337  1  0.99357163  0.98542141  0.37005770  1
  O  O338  1  0.99273228  0.99337982  0.88467934  1
  O  O339  1  0.01166367  -0.00448173  0.11934492  1
  O  O340  1  -0.00013762  0.00949154  0.62995039  1
  O  O341  1  -0.00674955  0.51122257  0.11451103  1
  O  O342  1  0.00038694  0.50717293  0.61678067  1
  O  O343  1  0.51077819  0.00306056  0.12477872  1
  O  O344  1  0.50545525  0.00883861  0.63147753  1
  O  O345  1  0.49336149  0.51380593  0.13028891  1
  O  O346  1  0.49339627  0.51158593  0.60938179  1
  O  O347  1  0.25529722  0.38685067  0.25243109  1
  O  O348  1  0.24608203  0.38282172  0.74496423  1
  O  O349  1  0.24857814  0.87945148  0.24398606  1
  O  O350  1  0.24689556  0.88183747  0.74344247  1
  O  O351  1  0.75098521  0.36360505  0.24970041  1
  O  O352  1  0.73641418  0.39037656  0.74426726  1
  O  O353  1  0.75297012  0.88570168  0.24992442  1
  O  O354  1  0.73545494  0.87248282  0.75432625  1
  O  O355  1  0.25813858  0.12132735  0.25828103  1
  O  O356  1  0.25411790  0.11662752  0.75573836  1
  O  O357  1  0.25281136  0.62451267  0.25637080  1
  O  O358  1  0.25370089  0.61986798  0.75323731  1
  O  O359  1  0.75348831  0.11511489  0.26336254  1
  O  O360  1  0.76093925  0.12492404  0.74593019  1
  O  O361  1  0.76262237  0.63247269  0.25739521  1
  O  O362  1  0.74125859  0.61384151  0.76323041  1
  O  O363  1  0.37210703  0.12194297  0.36946499  1
  O  O364  1  0.37236884  0.11508654  0.87383226  1
  O  O365  1  0.36228919  0.61972921  0.36820853  1
  O  O366  1  0.36914442  0.62373561  0.86915854  1
  O  O367  1  0.87169328  0.11632352  0.37546831  1
  O  O368  1  0.88252915  0.11445957  0.86261730  1
  O  O369  1  0.87074141  0.62227222  0.36657967  1
  O  O370  1  0.85728021  0.62907294  0.87587714  1
  O  O371  1  0.14775372  0.35804053  0.11127021  1
  O  O372  1  0.13836710  0.37559970  0.62593717  1
  O  O373  1  0.13251357  0.88323465  0.12671449  1
  O  O374  1  0.13754358  0.86893934  0.62807412  1
  O  O375  1  0.62169312  0.37663468  0.12739833  1
  O  O376  1  0.61988529  0.37962273  0.63080786  1
  O  O377  1  0.63015295  0.88742918  0.12718171  1
  O  O378  1  0.62208618  0.87980182  0.63513895  1
  O  O379  1  0.11377712  0.24642050  0.25919727  1
  O  O380  1  0.12715965  0.25753566  0.75142274  1
  O  O381  1  0.11037512  0.75007228  0.24941106  1
  O  O382  1  0.11805643  0.75025654  0.76133533  1
  O  O383  1  0.61474508  0.24166286  0.25816320  1
  O  O384  1  0.62034172  0.26606263  0.74080983  1
  O  O385  1  0.61489469  0.75298109  0.25957306  1
  O  O386  1  0.61843360  0.75580778  0.75802397  1
  O  O387  1  0.38158879  0.23840905  0.24290280  1
  O  O388  1  0.38200061  0.25302931  0.73522039  1
  O  O389  1  0.38003275  0.73982318  0.25534593  1
  O  O390  1  0.37907616  0.74609858  0.74343942  1
  O  O391  1  0.89362928  0.24417772  0.25592345  1
  O  O392  1  0.87345147  0.24145288  0.73324919  1
  O  O393  1  0.88607272  0.73624431  0.25508269  1
  O  O394  1  0.88125675  0.74555077  0.74464128  1
  O  O395  1  0.37311917  0.49457774  0.49011966  1
  O  O396  1  0.37048972  0.48336932  1.00059251  1
  O  O397  1  0.36967200  1.00247765  0.48726590  1
  O  O398  1  0.37914478  0.98933567  0.99117706  1
  O  O399  1  0.88800705  0.50795495  0.48665727  1
  O  O400  1  0.87656677  0.50700904  1.00180376  1
  O  O401  1  0.87260659  0.99792892  0.48906908  1
  O  O402  1  0.88101852  0.99763353  0.99659123  1
  O  O403  1  0.11797866  0.00447061  0.00615198  1
  O  O404  1  0.13412200  0.01612759  0.49852404  1
  O  O405  1  0.13108616  0.50979424  0.00039735  1
  O  O406  1  0.11944453  0.51162939  0.50083780  1
  O  O407  1  0.62202786  0.00337440  0.00683749  1
  O  O408  1  0.62519328  -0.00262622  0.51285271  1
  O  O409  1  0.62561279  0.50991395  0.00194777  1
  O  O410  1  0.60546573  0.49889467  0.48999644  1
  O  O411  1  0.37961831  0.35959707  0.11030839  1
  O  O412  1  0.37135572  0.37022196  0.61708638  1
  O  O413  1  0.36487248  0.88417408  0.11712863  1
  O  O414  1  0.36670863  0.86458310  0.62488021  1
  O  O415  1  0.87798827  0.35240669  0.13336530  1
  O  O416  1  0.87972949  0.36220575  0.62681390  1
  O  O417  1  0.87438179  0.88080777  0.11285606  1
  O  O418  1  0.87490946  0.86604990  0.62696701  1
  O  O419  1  0.12868701  0.13447793  0.38402645  1
  O  O420  1  0.13399311  0.12595376  0.88673771  1
  O  O421  1  0.13627500  0.62274748  0.38156269  1
  O  O422  1  0.13156262  0.63057061  0.88424758  1
  O  O423  1  0.63570432  0.12988432  0.37894945  1
  O  O424  1  0.56938362  0.13034111  0.88891697  1
  O  O425  1  0.63762812  0.63737902  0.37188117  1
  O  O426  1  0.62942482  0.62808721  0.88449776  1
