# generated using pymatgen
data_V85Zn86O256
_symmetry_space_group_name_H-M   'P 1'
_cell_length_a   16.94162381
_cell_length_b   16.94683128
_cell_length_c   16.96027278
_cell_angle_alpha   90.01549741
_cell_angle_beta   89.96301735
_cell_angle_gamma   89.97848740
_symmetry_Int_Tables_number   1
_chemical_formula_structural   V85Zn86O256
_chemical_formula_sum   'V85 Zn86 O256'
_cell_volume   4869.40879160
_cell_formula_units_Z   1
loop_
 _symmetry_equiv_pos_site_id
 _symmetry_equiv_pos_as_xyz
  1  'x, y, z'
loop_
 _atom_site_type_symbol
 _atom_site_label
 _atom_site_symmetry_multiplicity
 _atom_site_fract_x
 _atom_site_fract_y
 _atom_site_fract_z
 _atom_site_occupancy
  V  V0  1  0.75152488  0.49705494  0.76189439  1
  V  V1  1  0.00072614  0.25155264  0.25592843  1
  V  V2  1  0.00247828  0.24374177  0.74730452  1
  V  V3  1  0.87710382  0.50149532  0.36985745  1
  V  V4  1  0.62618299  0.25206217  0.37175638  1
  V  V5  1  0.12465372  -0.00960125  0.62376967  1
  V  V6  1  0.49885371  0.12340712  0.12463185  1
  V  V7  1  0.37157760  0.50414683  0.36928482  1
  V  V8  1  0.37096624  0.86823892  -0.00094166  1
  V  V9  1  0.62681679  0.00005489  0.12925496  1
  V  V10  1  0.87489445  0.89011134  -0.00002906  1
  V  V11  1  0.23737207  0.63846565  0.88403768  1
  V  V12  1  0.50694106  0.25587951  0.74878564  1
  V  V13  1  0.12182288  0.12186720  0.50783237  1
  V  V14  1  0.62659324  -0.00713150  0.62565537  1
  V  V15  1  0.49237940  -0.00624318  0.49946148  1
  V  V16  1  0.87530560  0.73597037  0.13070290  1
  V  V17  1  0.62120029  0.74893234  0.37261427  1
  V  V18  1  0.62646832  0.62627696  0.50294571  1
  V  V19  1  0.75277338  0.62419017  0.36809675  1
  V  V20  1  0.50564759  0.37634642  0.37339054  1
  V  V21  1  0.12789742  0.12739648  -0.00066777  1
  V  V22  1  -0.01012590  0.87450533  0.37793758  1
  V  V23  1  0.25473110  0.51209649  0.74976458  1
  V  V24  1  0.62553262  0.24833177  0.87497221  1
  V  V25  1  0.37243095  0.25194834  0.12316967  1
  V  V26  1  -0.00635181  0.38367377  0.87612569  1
  V  V27  1  0.87291180  0.25160514  0.12459313  1
  V  V28  1  -0.00360837  0.62551033  0.62601318  1
  V  V29  1  -0.00361092  0.73382989  0.24832343  1
  V  V30  1  0.75029836  0.24857029  0.50077436  1
  V  V31  1  0.50039038  0.49993752  0.50112753  1
  V  V32  1  0.87294651  0.11642731  0.25197833  1
  V  V33  1  0.24892030  0.87413417  0.12263882  1
  V  V34  1  0.75492218  0.75025341  -0.00671133  1
  V  V35  1  0.25650896  0.76640790  0.50037965  1
  V  V36  1  0.50211623  0.12438246  0.62499255  1
  V  V37  1  0.50384108  0.25377032  0.24793076  1
  V  V38  1  0.13273457  0.62556765  0.50014600  1
  V  V39  1  0.12410176  0.74984871  0.37513970  1
  V  V40  1  0.49188965  0.62686013  0.63400498  1
  V  V41  1  0.62264974  0.87723662  0.25043581  1
  V  V42  1  0.75748158  -0.00230017  0.75868576  1
  V  V43  1  0.37530739  0.76547533  0.62566892  1
  V  V44  1  0.25308195  -0.00233849  0.74284659  1
  V  V45  1  0.74791932  0.37438716  0.62988166  1
  V  V46  1  0.75316593  0.75976404  0.49659511  1
  V  V47  1  0.13064595  0.24080330  0.37859013  1
  V  V48  1  0.49480503  0.73760244  0.24171844  1
  V  V49  1  0.12954962  0.86950089  0.75978552  1
  V  V50  1  0.38031356  -0.00645590  0.87550524  1
  V  V51  1  0.62319674  0.87036424  0.76284618  1
  V  V52  1  0.87539237  0.75477540  0.61945305  1
  V  V53  1  0.37727323  0.25112172  0.62700339  1
  V  V54  1  0.12539509  0.37620320  0.75315770  1
  V  V55  1  0.37651269  0.51313387  0.87223331  1
  V  V56  1  0.87235064  0.38320837  -0.00316200  1
  V  V57  1  0.62351542  0.49967123  0.13454238  1
  V  V58  1  0.87695980  0.37432944  0.50058144  1
  V  V59  1  0.36694708  0.12251479  0.25615540  1
  V  V60  1  0.48692727  0.87340902  0.37410554  1
  V  V61  1  0.75219326  0.87703088  0.13294354  1
  V  V62  1  0.12704838  0.50096444  0.62552341  1
  V  V63  1  0.62623808  0.49849093  0.63285936  1
  V  V64  1  0.12008600  0.87529196  0.24864563  1
  V  V65  1  0.25414322  0.12671175  0.87545184  1
  V  V66  1  0.14344057  0.37332790  0.24824384  1
  V  V67  1  0.37824782  0.12524557  0.75208450  1
  V  V68  1  0.00332078  0.12750549  0.12472769  1
  V  V69  1  0.74778102  0.11664475  0.37110628  1
  V  V70  1  0.25356055  0.24285621  0.49972148  1
  V  V71  1  0.74287142  0.37497293  0.13534356  1
  V  V72  1  0.88061600  0.23903575  0.62549630  1
  V  V73  1  0.86758039  0.62081043  0.76134954  1
  V  V74  1  -0.00913801  -0.00113352  0.50359541  1
  V  V75  1  0.24971267  0.25844426  -0.00223750  1
  V  V76  1  0.50107289  -0.00835694  -0.00125363  1
  V  V77  1  0.37457816  0.38094755  0.00264087  1
  V  V78  1  0.00204027  0.50041506  0.49942784  1
  V  V79  1  0.62452522  0.12333048  0.49921813  1
  V  V80  1  0.50534146  0.38078162  0.87244150  1
  V  V81  1  0.63966100  0.62121564  -0.00035997  1
  V  V82  1  0.36805185  0.73550382  0.12466518  1
  V  V83  1  0.25216588  0.37438999  0.62743291  1
  V  V84  1  0.50165462  0.50961873  0.00692890  1
  Zn  Zn85  1  -0.00776260  0.01175128  -0.00931003  1
  Zn  Zn86  1  0.12496261  0.25287551  0.87525205  1
  Zn  Zn87  1  0.62425154  0.12271363  -0.00204746  1
  Zn  Zn88  1  0.00524414  0.37343111  0.37741829  1
  Zn  Zn89  1  0.12169681  0.51276561  0.11028072  1
  Zn  Zn90  1  0.25756718  0.51123282  0.23088870  1
  Zn  Zn91  1  0.88901388  0.11271000  0.75864397  1
  Zn  Zn92  1  0.48961696  0.75044326  0.76370082  1
  Zn  Zn93  1  0.74466425  0.24775892  0.00240840  1
  Zn  Zn94  1  0.75022428  0.49846916  0.25177794  1
  Zn  Zn95  1  0.75795758  0.12185305  0.88156647  1
  Zn  Zn96  1  0.62358854  0.74344188  0.87791079  1
  Zn  Zn97  1  0.36269994  0.00053657  0.38252388  1
  Zn  Zn98  1  0.86799546  -0.00610491  0.37856970  1
  Zn  Zn99  1  0.24342928  0.00265126  0.25368226  1
  Zn  Zn100  1  0.75430361  0.87487854  0.62577755  1
  Zn  Zn101  1  -0.00849494  0.89071917  0.86629018  1
  Zn  Zn102  1  0.00714549  0.74912071  0.75114072  1
  Zn  Zn103  1  0.08560733  0.62497545  0.00516335  1
  Zn  Zn104  1  0.25576238  0.62913891  0.36844565  1
  Zn  Zn105  1  0.37560732  0.37489210  0.50035896  1
  Zn  Zn106  1  0.12412588  -0.00061531  0.12284920  1
  Zn  Zn107  1  0.18753295  0.19822408  0.18263624  1
  Zn  Zn108  1  0.18709041  0.18458312  0.68633608  1
  Zn  Zn109  1  0.18379987  0.68021215  0.18336004  1
  Zn  Zn110  1  0.19242443  0.69131799  0.68414557  1
  Zn  Zn111  1  0.68683579  0.18543254  0.18862471  1
  Zn  Zn112  1  0.68937296  0.18337497  0.68953353  1
  Zn  Zn113  1  0.68662282  0.68603901  0.18312892  1
  Zn  Zn114  1  0.69189311  0.68736423  0.68663349  1
  Zn  Zn115  1  0.31925795  0.30917040  0.31936415  1
  Zn  Zn116  1  0.31688365  0.31812331  0.81473974  1
  Zn  Zn117  1  0.30843726  0.80934665  0.30668170  1
  Zn  Zn118  1  0.31350396  0.81444450  0.80953548  1
  Zn  Zn119  1  0.81427851  0.30846821  0.31402897  1
  Zn  Zn120  1  0.81503223  0.30656587  0.81155829  1
  Zn  Zn121  1  0.81107899  0.81047496  0.30957769  1
  Zn  Zn122  1  0.83158234  0.80487700  0.81930410  1
  Zn  Zn123  1  0.19009240  0.43050756  0.43693603  1
  Zn  Zn124  1  0.18550446  0.44701211  0.93852035  1
  Zn  Zn125  1  0.18400676  0.94029258  0.43093483  1
  Zn  Zn126  1  0.19007917  0.94040085  0.93713134  1
  Zn  Zn127  1  0.68807037  0.43823666  0.44014888  1
  Zn  Zn128  1  0.68760349  0.43223498  0.94501527  1
  Zn  Zn129  1  0.67969498  0.93630725  0.43566966  1
  Zn  Zn130  1  0.69118945  0.93594230  0.94111659  1
  Zn  Zn131  1  0.31103723  0.06042450  0.06555678  1
  Zn  Zn132  1  0.31198157  0.06404247  0.56392698  1
  Zn  Zn133  1  0.29571804  0.56020250  0.05818374  1
  Zn  Zn134  1  0.31547801  0.56309400  0.55883549  1
  Zn  Zn135  1  0.80500996  0.06854035  0.06835884  1
  Zn  Zn136  1  0.81022237  0.06172883  0.56568841  1
  Zn  Zn137  1  0.86496331  0.59474472  0.00812758  1
  Zn  Zn138  1  0.81089243  0.56203259  0.56007177  1
  Zn  Zn139  1  0.43716393  0.43649514  0.18731097  1
  Zn  Zn140  1  0.43800966  0.43892746  0.68897279  1
  Zn  Zn141  1  0.43690531  0.93482959  0.18633426  1
  Zn  Zn142  1  0.44252328  0.93437646  0.68942637  1
  Zn  Zn143  1  0.93838062  0.44191809  0.18754835  1
  Zn  Zn144  1  0.93679638  0.43618673  0.68869512  1
  Zn  Zn145  1  0.94136349  0.93919446  0.18653349  1
  Zn  Zn146  1  0.94151219  0.93671868  0.68346620  1
  Zn  Zn147  1  0.06270272  0.06134337  0.31690437  1
  Zn  Zn148  1  0.06658427  0.06161536  0.81478638  1
  Zn  Zn149  1  0.07009954  0.55847186  0.31227841  1
  Zn  Zn150  1  0.05931026  0.56394890  0.81560332  1
  Zn  Zn151  1  0.55610302  0.06299430  0.31220895  1
  Zn  Zn152  1  0.56518015  0.06104338  0.81242963  1
  Zn  Zn153  1  0.56244261  0.56226063  0.31329756  1
  Zn  Zn154  1  0.56763358  0.56752000  0.81521154  1
  Zn  Zn155  1  0.43870413  0.18700977  0.43703636  1
  Zn  Zn156  1  0.44179098  0.18607115  0.93801355  1
  Zn  Zn157  1  0.43790342  0.68685124  0.44006309  1
  Zn  Zn158  1  0.44109233  0.68815594  0.94044694  1
  Zn  Zn159  1  0.93891814  0.18239395  0.43887367  1
  Zn  Zn160  1  0.93863436  0.19452704  0.93498964  1
  Zn  Zn161  1  0.93834596  0.68556004  0.43695499  1
  Zn  Zn162  1  0.97242368  0.72299708  0.93787844  1
  Zn  Zn163  1  0.04675614  0.34812925  0.08223513  1
  Zn  Zn164  1  0.06361924  0.31226418  0.56464654  1
  Zn  Zn165  1  0.06247505  0.80667835  0.06347776  1
  Zn  Zn166  1  0.06392301  0.81442054  0.56294291  1
  Zn  Zn167  1  0.56002133  0.31581243  0.05940467  1
  Zn  Zn168  1  0.56515940  0.31471631  0.56118021  1
  Zn  Zn169  1  0.56139004  0.80808489  0.06155151  1
  Zn  Zn170  1  0.56083772  0.81272822  0.56278240  1
  O  O171  1  0.11852433  0.12912320  0.11861519  1
  O  O172  1  0.12994063  0.11381556  0.61436126  1
  O  O173  1  0.11140128  0.62846167  0.11973256  1
  O  O174  1  0.11619681  0.62258159  0.62046829  1
  O  O175  1  0.61721353  0.11568878  0.12624232  1
  O  O176  1  0.62051941  0.11303232  0.62117167  1
  O  O177  1  0.63360406  0.61103128  0.11403695  1
  O  O178  1  0.62076311  0.62001967  0.61778099  1
  O  O179  1  0.38897474  0.38125265  0.37979127  1
  O  O180  1  0.38585663  0.38406697  0.88438666  1
  O  O181  1  0.38458741  0.87631929  0.36625720  1
  O  O182  1  0.37018557  0.88221700  0.88501728  1
  O  O183  1  0.87514776  0.37776012  0.38808930  1
  O  O184  1  0.87715628  0.36615229  0.88912655  1
  O  O185  1  0.88490359  0.87538997  0.37051859  1
  O  O186  1  0.85712145  0.88897195  0.90035229  1
  O  O187  1  0.25170203  -0.00100035  0.36690081  1
  O  O188  1  0.26238559  0.00659592  0.86636167  1
  O  O189  1  0.26767222  0.49674581  0.38218759  1
  O  O190  1  0.25905799  0.50871928  0.86613538  1
  O  O191  1  0.74854240  0.01201959  0.38185720  1
  O  O192  1  0.74372798  0.00216638  0.86156957  1
  O  O193  1  0.75657874  0.50593446  0.37500825  1
  O  O194  1  0.74270165  0.48609937  0.86010742  1
  O  O195  1  0.23727133  0.49233872  0.12163248  1
  O  O196  1  0.24798650  0.49547487  0.63031897  1
  O  O197  1  0.24714984  0.98793940  0.13154875  1
  O  O198  1  0.24691946  1.00398767  0.63699263  1
  O  O199  1  0.74200349  0.48222866  0.13176161  1
  O  O200  1  0.74294302  0.49181988  0.62604197  1
  O  O201  1  0.73400589  0.99429253  0.12733063  1
  O  O202  1  0.74132981  0.99545805  0.63069078  1
  O  O203  1  0.00575292  0.35833565  0.25724359  1
  O  O204  1  0.00841307  0.36790989  0.75096330  1
  O  O205  1  0.00406543  0.86995604  0.25718467  1
  O  O206  1  0.02150016  0.88064458  0.74409982  1
  O  O207  1  0.49513091  0.36154753  0.25742894  1
  O  O208  1  0.49688467  0.36732303  0.75883906  1
  O  O209  1  0.50593925  0.86657878  0.25516158  1
  O  O210  1  0.51923445  0.86996666  0.74535220  1
  O  O211  1  0.49103399  0.13557336  0.24418986  1
  O  O212  1  0.49636892  0.13094546  0.74388886  1
  O  O213  1  0.50191713  0.63958610  0.25263944  1
  O  O214  1  0.50880963  0.63045272  0.73702589  1
  O  O215  1  0.99635217  0.13352979  0.24602209  1
  O  O216  1  1.00650048  0.13965197  0.75009482  1
  O  O217  1  1.00193549  0.63500830  0.25951594  1
  O  O218  1  0.98798445  0.62709105  0.74279620  1
  O  O219  1  0.37365893  0.25765460  0.00468270  1
  O  O220  1  0.36935720  0.24872969  0.50671122  1
  O  O221  1  0.38247408  0.75957743  0.01433107  1
  O  O222  1  0.36322419  0.74893270  0.50380183  1
  O  O223  1  0.87345426  0.25391172  0.01700816  1
  O  O224  1  0.87220407  0.25477063  0.50608228  1
  O  O225  1  0.86853119  0.76801300  0.01788865  1
  O  O226  1  0.86442472  0.74315195  0.50583209  1
  O  O227  1  0.13104221  0.24187874  0.49910213  1
  O  O228  1  0.13894720  0.24251143  0.99854712  1
  O  O229  1  0.13656036  0.74397490  0.49903481  1
  O  O230  1  0.07990048  0.73902377  0.97981779  1
  O  O231  1  0.62948196  0.24253071  0.49357227  1
  O  O232  1  0.61950801  0.24665175  0.98946693  1
  O  O233  1  0.63008484  0.74320050  0.49412732  1
  O  O234  1  0.63779538  0.74001546  1.00696216  1
  O  O235  1  0.49248995  0.24715404  0.13046798  1
  O  O236  1  0.49831742  0.24734175  0.63132716  1
  O  O237  1  0.48868637  0.75230038  0.13552914  1
  O  O238  1  0.48787452  0.74371963  0.62084823  1
  O  O239  1  0.99260399  0.24468562  0.13476066  1
  O  O240  1  0.99134249  0.25442434  0.63181148  1
  O  O241  1  0.98181744  0.75825969  0.13744219  1
  O  O242  1  0.99408893  0.74251759  0.62651752  1
  O  O243  1  0.00856816  0.24772944  0.37159537  1
  O  O244  1  0.00551665  0.26232608  0.86286684  1
  O  O245  1  0.00311943  0.75606434  0.37039438  1
  O  O246  1  -0.04761294  0.78289816  0.84681121  1
  O  O247  1  0.50448921  0.25694470  0.36847428  1
  O  O248  1  0.50584252  0.25753354  0.86786940  1
  O  O249  1  0.50093462  0.75492993  0.36602015  1
  O  O250  1  0.50935985  0.74368738  0.87388416  1
  O  O251  1  0.24295957  0.13618983  0.50582756  1
  O  O252  1  0.24872818  0.13336028  0.99564132  1
  O  O253  1  0.24041626  0.62906417  0.49763563  1
  O  O254  1  0.24783518  0.63173206  0.98381820  1
  O  O255  1  0.74412440  0.13021175  0.49470105  1
  O  O256  1  0.74248606  0.13092926  0.99877315  1
  O  O257  1  0.73927607  0.62995904  0.49227786  1
  O  O258  1  0.75391556  0.63903559  1.00399488  1
  O  O259  1  0.26002599  0.36583309  -0.01289193  1
  O  O260  1  0.25060435  0.36162929  0.51025407  1
  O  O261  1  0.25900272  0.87835237  0.00807087  1
  O  O262  1  0.24491943  0.86396143  0.49885041  1
  O  O263  1  0.75725298  0.36597262  0.01136666  1
  O  O264  1  0.75712160  0.36865771  0.50777132  1
  O  O265  1  0.75260577  0.87085853  0.01547697  1
  O  O266  1  0.74475984  0.86275846  0.49768249  1
  O  O267  1  0.12948569  0.47774152  0.25737495  1
  O  O268  1  0.13245854  0.49419939  0.74354477  1
  O  O269  1  0.11989811  0.98745163  0.24687514  1
  O  O270  1  0.13595317  0.99668006  0.74224522  1
  O  O271  1  0.62471985  0.50143077  0.23898173  1
  O  O272  1  0.63265587  0.50516858  0.73802384  1
  O  O273  1  0.61320350  0.98934344  0.24200846  1
  O  O274  1  0.62940886  0.98863752  0.74370717  1
  O  O275  1  0.37831083  0.01670421  0.24710214  1
  O  O276  1  0.37269508  0.00113029  0.75586225  1
  O  O277  1  0.37399054  0.49302825  0.26499833  1
  O  O278  1  0.36668721  0.49510096  0.76029470  1
  O  O279  1  0.88068440  0.01388839  0.25411383  1
  O  O280  1  0.86201956  -0.00234037  0.74247673  1
  O  O281  1  0.87389360  0.49156096  0.26590228  1
  O  O282  1  0.86578523  0.51101504  0.74087183  1
  O  O283  1  0.12535138  0.35880200  0.37097542  1
  O  O284  1  0.12059367  0.37551510  0.86324608  1
  O  O285  1  0.11410621  0.86758624  0.36693473  1
  O  O286  1  0.12524667  0.88045621  0.86172475  1
  O  O287  1  0.61400883  0.37117717  0.37976492  1
  O  O288  1  0.61032976  0.36955474  0.88130179  1
  O  O289  1  0.61512230  0.86757202  0.36666259  1
  O  O290  1  0.62701250  0.87512208  0.86429024  1
  O  O291  1  0.38135589  0.13246430  0.13024007  1
  O  O292  1  0.38296528  0.13138368  0.63241894  1
  O  O293  1  0.36752615  0.63766626  0.11603960  1
  O  O294  1  0.38779184  0.63139320  0.61737228  1
  O  O295  1  0.87992511  0.13316945  0.13407619  1
  O  O296  1  0.87053893  0.13702774  0.63144045  1
  O  O297  1  0.86914920  0.63867827  0.12408638  1
  O  O298  1  0.88794879  0.62812364  0.61851852  1
  O  O299  1  0.26608513  0.24709984  0.11278818  1
  O  O300  1  0.25791916  0.25400637  0.62236941  1
  O  O301  1  0.26270435  0.75925157  0.13050772  1
  O  O302  1  0.26459311  0.74695959  0.61171335  1
  O  O303  1  0.75565464  0.25706080  0.12841347  1
  O  O304  1  0.75469592  0.25575373  0.62088306  1
  O  O305  1  0.75919286  0.75891233  0.12535013  1
  O  O306  1  0.75616754  0.75016104  0.61143617  1
  O  O307  1  0.24525796  0.25087601  0.38834356  1
  O  O308  1  0.25393251  0.24455420  0.88116002  1
  O  O309  1  0.24594243  0.75034956  0.38632744  1
  O  O310  1  0.25608425  0.73456674  0.86477132  1
  O  O311  1  0.74485161  0.24165758  0.38147895  1
  O  O312  1  0.73159347  0.25605466  0.87157294  1
  O  O313  1  0.74406524  0.74281589  0.37953771  1
  O  O314  1  0.74893080  0.75922164  0.89119814  1
  O  O315  1  0.01026972  0.13310722  0.00791326  1
  O  O316  1  0.01020890  0.11333467  0.49739956  1
  O  O317  1  -0.03099595  0.62065308  -0.02072384  1
  O  O318  1  0.01216295  0.62077137  0.50651707  1
  O  O319  1  0.49870784  0.11098265  0.00760664  1
  O  O320  1  0.50666736  0.11905707  0.50532666  1
  O  O321  1  0.51050409  0.61224869  0.00144477  1
  O  O322  1  0.51186361  0.62084490  0.50572727  1
  O  O323  1  0.50045760  0.38200840  0.49264929  1
  O  O324  1  0.49270121  0.38575142  0.99214911  1
  O  O325  1  0.50606602  0.88296905  0.48775194  1
  O  O326  1  0.49038195  0.88552529  1.00738794  1
  O  O327  1  0.99385936  0.38121548  0.49999995  1
  O  O328  1  0.98202371  0.36527370  0.98910908  1
  O  O329  1  1.00639039  0.88416483  0.48974109  1
  O  O330  1  0.98083399  0.88398942  1.00584503  1
  O  O331  1  0.49466375  0.49338864  0.37821150  1
  O  O332  1  0.49569326  0.49698077  0.87931667  1
  O  O333  1  0.49632159  0.99152528  0.38293820  1
  O  O334  1  0.48868711  1.00312456  0.88203725  1
  O  O335  1  0.99441062  0.49732372  0.38239410  1
  O  O336  1  0.99485453  0.48225494  0.85978186  1
  O  O337  1  0.99721762  0.99132904  0.38406757  1
  O  O338  1  0.99827081  1.00201120  0.87785232  1
  O  O339  1  0.00173585  0.01837925  0.12249321  1
  O  O340  1  0.01041049  -0.00225015  0.61497394  1
  O  O341  1  0.02375123  0.45421066  0.12276756  1
  O  O342  1  0.00651677  0.50637780  0.61996426  1
  O  O343  1  0.50714944  0.00184628  0.11857463  1
  O  O344  1  0.50718619  0.00267733  0.61873127  1
  O  O345  1  0.50942120  0.49134203  0.11766450  1
  O  O346  1  0.50673317  0.50731498  0.62254485  1
  O  O347  1  0.24467838  0.37260771  0.25994236  1
  O  O348  1  0.24364885  0.38224780  0.74679638  1
  O  O349  1  0.23727492  0.87324119  0.24144209  1
  O  O350  1  0.24035065  0.88497959  0.75167508  1
  O  O351  1  0.75262642  0.37149355  0.23873159  1
  O  O352  1  0.75914282  0.38003861  0.73509032  1
  O  O353  1  0.73310749  0.86985769  0.24733213  1
  O  O354  1  0.74295455  0.88508696  0.74885392  1
  O  O355  1  0.26487541  0.12832747  0.24127489  1
  O  O356  1  0.25838562  0.11890603  0.75530966  1
  O  O357  1  0.24382234  0.62162028  0.25746529  1
  O  O358  1  0.24891813  0.61423066  0.74905465  1
  O  O359  1  0.75961565  0.12999337  0.26015260  1
  O  O360  1  0.74684657  0.10517688  0.74955697  1
  O  O361  1  0.74299058  0.62409829  0.26529545  1
  O  O362  1  0.75870070  0.61043193  0.74057300  1
  O  O363  1  0.38014948  0.12562270  0.35890962  1
  O  O364  1  0.37324682  0.11812907  0.87001605  1
  O  O365  1  0.37760117  0.60760273  0.38046527  1
  O  O366  1  0.37058621  0.61505506  0.87931193  1
  O  O367  1  0.86519250  0.12468743  0.36871111  1
  O  O368  1  0.86759042  0.14603717  0.86487372  1
  O  O369  1  0.86505942  0.61309967  0.38406098  1
  O  O370  1  0.86603881  0.62688754  0.85704549  1
  O  O371  1  0.13910354  0.34427537  0.15128508  1
  O  O372  1  0.13094480  0.38079445  0.63449714  1
  O  O373  1  0.12956009  0.87376298  0.12951523  1
  O  O374  1  0.12937839  0.88655661  0.62988150  1
  O  O375  1  0.63672883  0.37771032  0.12064480  1
  O  O376  1  0.63542687  0.38548786  0.61972607  1
  O  O377  1  0.63056772  0.87881759  0.13196627  1
  O  O378  1  0.62757857  0.88390335  0.62832533  1
  O  O379  1  0.12108855  0.24799437  0.26409062  1
  O  O380  1  0.12164894  0.25959551  0.74779145  1
  O  O381  1  0.11417414  0.75923272  0.25523104  1
  O  O382  1  0.12676484  0.76583199  0.74259853  1
  O  O383  1  0.61408749  0.24417278  0.25763672  1
  O  O384  1  0.61277685  0.24583563  0.75341265  1
  O  O385  1  0.61195215  0.75490874  0.25053165  1
  O  O386  1  0.63452860  0.76374916  0.75091328  1
  O  O387  1  0.38021405  0.24252851  0.24218413  1
  O  O388  1  0.38692723  0.24670849  0.74763515  1
  O  O389  1  0.38474631  0.75203846  0.23728841  1
  O  O390  1  0.37535522  0.75601568  0.73093223  1
  O  O391  1  0.88317726  0.24281313  0.24488536  1
  O  O392  1  0.88718757  0.25581370  0.73778800  1
  O  O393  1  0.87932829  0.74972571  0.23959720  1
  O  O394  1  0.85942457  0.73015712  0.73163753  1
  O  O395  1  0.38460819  0.49635652  0.49240575  1
  O  O396  1  0.38190404  0.49613650  0.99465212  1
  O  O397  1  0.38825664  1.00719609  0.50021156  1
  O  O398  1  0.37943899  0.99173547  0.99373330  1
  O  O399  1  0.87952532  0.49138695  0.49331534  1
  O  O400  1  0.86295160  0.48026558  1.00344556  1
  O  O401  1  0.88649908  1.00499830  0.50059997  1
  O  O402  1  0.87211347  0.99324701  1.01507535  1
  O  O403  1  0.12846817  0.01716952  0.00211351  1
  O  O404  1  0.12033292  0.00514963  0.50656775  1
  O  O405  1  0.11919406  0.51376226  -0.00738210  1
  O  O406  1  0.12406929  0.50553206  0.50497009  1
  O  O407  1  0.61601903  -0.00290209  0.00797472  1
  O  O408  1  0.61575747  0.00381946  0.50739174  1
  O  O409  1  0.62118416  0.50245024  0.01032454  1
  O  O410  1  0.62134260  0.50784135  0.50955224  1
  O  O411  1  0.38063617  0.36773211  0.11072161  1
  O  O412  1  0.37130233  0.36823464  0.62360855  1
  O  O413  1  0.36628205  0.87096867  0.11841085  1
  O  O414  1  0.38213041  0.86432321  0.61886741  1
  O  O415  1  0.86398878  0.36852815  0.12096150  1
  O  O416  1  0.86919976  0.36995404  0.61341796  1
  O  O417  1  0.86018620  0.87939393  0.12784966  1
  O  O418  1  0.87524021  0.85883724  0.62843449  1
  O  O419  1  0.12343234  0.13359654  0.38767448  1
  O  O420  1  0.13656040  0.13012658  0.88199295  1
  O  O421  1  0.12467391  0.63198545  0.38639902  1
  O  O422  1  0.13657558  0.62699383  0.86695104  1
  O  O423  1  0.62977819  0.12893428  0.37814760  1
  O  O424  1  0.62429575  0.13497052  0.87646305  1
  O  O425  1  0.62918799  0.62988179  0.38332012  1
  O  O426  1  0.63112369  0.62070512  0.89404382  1
