# generated using pymatgen
data_V85Zn86O256
_symmetry_space_group_name_H-M   'P 1'
_cell_length_a   16.99450787
_cell_length_b   17.00729994
_cell_length_c   17.01733146
_cell_angle_alpha   89.83713791
_cell_angle_beta   89.91217657
_cell_angle_gamma   89.98991901
_symmetry_Int_Tables_number   1
_chemical_formula_structural   V85Zn86O256
_chemical_formula_sum   'V85 Zn86 O256'
_cell_volume   4918.50537880
_cell_formula_units_Z   1
loop_
 _symmetry_equiv_pos_site_id
 _symmetry_equiv_pos_as_xyz
  1  'x, y, z'
loop_
 _atom_site_type_symbol
 _atom_site_label
 _atom_site_symmetry_multiplicity
 _atom_site_fract_x
 _atom_site_fract_y
 _atom_site_fract_z
 _atom_site_occupancy
  V  V0  1  0.23753608  0.00164918  0.24357506  1
  V  V1  1  0.75106937  0.75134784  0.49619541  1
  V  V2  1  0.61877284  0.00339196  0.12737972  1
  V  V3  1  0.50148477  0.25311957  0.75006629  1
  V  V4  1  0.48759714  0.75180965  0.24398038  1
  V  V5  1  0.25930657  0.76433392  0.00129520  1
  V  V6  1  0.25440621  0.62509202  0.37272244  1
  V  V7  1  0.37386659  0.12371307  0.75961748  1
  V  V8  1  0.12702127  0.62492664  0.49996862  1
  V  V9  1  0.87778353  0.00380849  0.37495522  1
  V  V10  1  0.49863285  0.12591462  0.62710007  1
  V  V11  1  0.74995882  0.63072977  0.88226023  1
  V  V12  1  0.25904039  0.75148231  0.50072898  1
  V  V13  1  0.62670978  0.37917675  0.74962613  1
  V  V14  1  0.30562791  0.30826292  0.05459161  1
  V  V15  1  0.05998964  0.80621724  0.19491934  1
  V  V16  1  0.62568267  0.00180877  0.62376212  1
  V  V17  1  0.13240830  0.24610375  0.87896285  1
  V  V18  1  0.00863375  0.25004904  0.24245613  1
  V  V19  1  0.62726063  0.87770312  0.25271431  1
  V  V20  1  0.87500807  0.75279781  0.13014791  1
  V  V21  1  0.11801050  0.74474482  0.86780746  1
  V  V22  1  0.74988844  0.11769680  0.87568181  1
  V  V23  1  0.11475814  0.37324571  0.74735390  1
  V  V24  1  0.87655517  0.74968740  0.62286668  1
  V  V25  1  0.25140076  0.62433117  0.87577706  1
  V  V26  1  0.87843988  0.37643970  0.49785253  1
  V  V27  1  0.87909893  0.49602548  0.88273332  1
  V  V28  1  0.87933665  0.49541018  0.37273414  1
  V  V29  1  0.12510338  -0.00987210  0.62667892  1
  V  V30  1  0.12155068  0.37787319  0.25714814  1
  V  V31  1  0.13132309  0.48780423  0.12270675  1
  V  V32  1  0.48780913  0.24727591  0.24359772  1
  V  V33  1  0.00371775  0.62008085  0.13353355  1
  V  V34  1  0.11589280  0.25865625  0.38034926  1
  V  V35  1  0.00579863  0.87605359  0.37306357  1
  V  V36  1  0.37602878  0.63502481  0.74354474  1
  V  V37  1  0.00134636  0.00125691  0.50177035  1
  V  V38  1  0.12657270  0.12708048  0.50319131  1
  V  V39  1  0.25184812  0.37766849  0.62873147  1
  V  V40  1  0.87212198  0.87503915  0.50097712  1
  V  V41  1  0.25390403  0.49449116  0.24655853  1
  V  V42  1  -0.00190837  0.36670606  0.88528302  1
  V  V43  1  0.88184316  0.13204657  0.24160557  1
  V  V44  1  0.25828709  0.87025329  0.62717571  1
  V  V45  1  0.62444985  0.13190983  0.49529232  1
  V  V46  1  0.00379374  0.12880742  0.63639837  1
  V  V47  1  0.37669456  0.37693448  0.50118080  1
  V  V48  1  0.49710150  0.63456680  0.62334795  1
  V  V49  1  0.50246352  0.49756592  0.50426404  1
  V  V50  1  0.74641553  0.38129277  0.62378305  1
  V  V51  1  0.37550986  0.49840973  0.87763082  1
  V  V52  1  0.05111188  0.05225276  0.04559421  1
  V  V53  1  0.75394972  0.00716443  0.73936216  1
  V  V54  1  0.62303850  0.75033484  0.37174080  1
  V  V55  1  0.00183690  0.62485668  0.62522781  1
  V  V56  1  0.75051393  0.62410697  0.37254316  1
  V  V57  1  0.75470143  0.87840738  0.12693194  1
  V  V58  1  0.87635244  0.62670653  0.25179842  1
  V  V59  1  0.62544812  0.61746916  0.49939280  1
  V  V60  1  0.49904656  0.50178478  0.00551845  1
  V  V61  1  0.24974079  0.25061218  0.50074222  1
  V  V62  1  0.38728612  -0.02688610  0.87489377  1
  V  V63  1  0.12304423  0.75177850  0.37410714  1
  V  V64  1  0.74546313  0.49856111  0.75155373  1
  V  V65  1  0.06986423  0.92124297  0.80337736  1
  V  V66  1  0.62933096  0.24870703  0.87769052  1
  V  V67  1  0.37522373  0.25090233  0.62742909  1
  V  V68  1  0.75189523  0.00631736  0.25183760  1
  V  V69  1  0.49352127  0.88014189  0.37617645  1
  V  V70  1  0.00307706  0.49641599  0.49615877  1
  V  V71  1  0.75219455  0.13163291  0.37566258  1
  V  V72  1  0.62964294  0.36942267  0.25191581  1
  V  V73  1  0.12589392  0.63011600  0.00388819  1
  V  V74  1  0.25355234  -0.00434912  0.75394706  1
  V  V75  1  0.87051405  0.90554794  -0.02888756  1
  V  V76  1  0.87984152  0.25331298  0.62773328  1
  V  V77  1  0.49990125  0.37784443  0.88117690  1
  V  V78  1  0.87887550  0.62517531  0.75247279  1
  V  V79  1  0.70025400  0.83230815  0.67227284  1
  V  V80  1  0.74900561  0.25437820  0.49501621  1
  V  V81  1  0.87540277  0.13000050  0.75323214  1
  V  V82  1  0.50341737  0.36961518  0.37367841  1
  V  V83  1  0.75818351  0.37352871  0.11653553  1
  V  V84  1  0.62581020  0.12437204  0.00439821  1
  Zn  Zn85  1  0.49685780  0.63389082  0.11982558  1
  Zn  Zn86  1  0.25803177  0.87088561  0.13829087  1
  Zn  Zn87  1  0.27728916  0.16587854  0.93065819  1
  Zn  Zn88  1  0.36770409  0.01770799  0.37569333  1
  Zn  Zn89  1  0.37581123  0.62257183  0.24147436  1
  Zn  Zn90  1  0.12708670  0.50155130  0.62670772  1
  Zn  Zn91  1  0.37822623  0.49911697  0.37180537  1
  Zn  Zn92  1  0.75995340  0.25210892  -0.00080401  1
  Zn  Zn93  1  0.24940978  0.12955372  0.36271233  1
  Zn  Zn94  1  0.00156288  0.49690742  0.00236405  1
  Zn  Zn95  1  0.62103332  0.63161910  0.00353915  1
  Zn  Zn96  1  0.37628130  0.87962394  0.50099222  1
  Zn  Zn97  1  0.74699670  0.50004594  0.24838035  1
  Zn  Zn98  1  0.50122453  -0.00379862  -0.00925711  1
  Zn  Zn99  1  0.89816021  0.25914302  0.11387839  1
  Zn  Zn100  1  0.49611775  0.00455723  0.49690229  1
  Zn  Zn101  1  -0.00091470  0.75208673  0.75454493  1
  Zn  Zn102  1  0.48972496  0.12974794  0.12301714  1
  Zn  Zn103  1  0.62557022  0.50100362  0.12546029  1
  Zn  Zn104  1  0.25081898  0.50133558  0.74985124  1
  Zn  Zn105  1  0.54964364  0.78766053  0.79377370  1
  Zn  Zn106  1  0.75713165  0.74680835  0.00670580  1
  Zn  Zn107  1  0.30969652  0.17756040  0.18836775  1
  Zn  Zn108  1  0.18791586  0.18680717  0.69715331  1
  Zn  Zn109  1  0.19876926  0.68197556  0.18200747  1
  Zn  Zn110  1  0.18907009  0.68784283  0.68712025  1
  Zn  Zn111  1  0.68701069  0.19354949  0.18889330  1
  Zn  Zn112  1  0.68707957  0.19210488  0.68411199  1
  Zn  Zn113  1  0.68183375  0.68695507  0.18302360  1
  Zn  Zn114  1  0.68820354  0.66233360  0.68275085  1
  Zn  Zn115  1  0.30977717  0.31410282  0.31861520  1
  Zn  Zn116  1  0.31403644  0.31783312  0.81159258  1
  Zn  Zn117  1  0.30968299  0.82454156  0.30777692  1
  Zn  Zn118  1  0.30708045  0.80947115  0.81042094  1
  Zn  Zn119  1  0.81837135  0.31417030  0.30869250  1
  Zn  Zn120  1  0.81514766  0.31153496  0.81362589  1
  Zn  Zn121  1  0.81605156  0.81325648  0.31019549  1
  Zn  Zn122  1  0.74305669  0.84687730  0.85089697  1
  Zn  Zn123  1  0.18997043  0.43870617  0.43737717  1
  Zn  Zn124  1  0.18456351  0.43758081  0.93687687  1
  Zn  Zn125  1  0.19079904  0.93827012  0.43438934  1
  Zn  Zn126  1  0.20824423  0.97725986  0.95774909  1
  Zn  Zn127  1  0.68839912  0.43743908  0.43133712  1
  Zn  Zn128  1  0.68464378  0.44296189  0.93790348  1
  Zn  Zn129  1  0.68682805  0.94127321  0.43836140  1
  Zn  Zn130  1  0.59446002  0.82787223  0.96651430  1
  Zn  Zn131  1  0.31198213  0.05270712  0.06638999  1
  Zn  Zn132  1  0.31339816  0.06120005  0.56021634  1
  Zn  Zn133  1  0.31710087  0.56606282  0.06250901  1
  Zn  Zn134  1  0.31571886  0.56174094  0.55996356  1
  Zn  Zn135  1  0.81478748  0.06716292  0.06259689  1
  Zn  Zn136  1  0.81507890  0.06748313  0.56173858  1
  Zn  Zn137  1  0.81625618  0.55596120  0.06621443  1
  Zn  Zn138  1  0.81391214  0.56146392  0.56119173  1
  Zn  Zn139  1  0.42895509  0.42653999  0.18281400  1
  Zn  Zn140  1  0.43902442  0.44496822  0.69171334  1
  Zn  Zn141  1  0.42745944  0.94972621  0.19638808  1
  Zn  Zn142  1  0.43952033  0.93392427  0.68651139  1
  Zn  Zn143  1  0.94124146  0.43751942  0.18942522  1
  Zn  Zn144  1  0.93525901  0.44188856  0.68730682  1
  Zn  Zn145  1  0.93837337  0.94597279  0.18564418  1
  Zn  Zn146  1  0.92914684  0.93892282  0.68483710  1
  Zn  Zn147  1  0.07002790  0.06854604  0.31165418  1
  Zn  Zn148  1  0.03641938  0.09009461  0.85110842  1
  Zn  Zn149  1  0.06584702  0.56273176  0.31345227  1
  Zn  Zn150  1  0.06471350  0.55755063  0.81221638  1
  Zn  Zn151  1  0.56320643  0.06728024  0.31443514  1
  Zn  Zn152  1  0.57394745  -0.05084307  0.81121114  1
  Zn  Zn153  1  0.56102980  0.55993789  0.31006288  1
  Zn  Zn154  1  0.54690411  0.59642443  0.82920102  1
  Zn  Zn155  1  0.43784818  0.19194986  0.43593531  1
  Zn  Zn156  1  0.44601409  0.18967567  0.94244709  1
  Zn  Zn157  1  0.43788098  0.68740452  0.43298131  1
  Zn  Zn158  1  0.43671716  0.68831594  0.93280664  1
  Zn  Zn159  1  0.94019330  0.18876806  0.43899304  1
  Zn  Zn160  1  0.93840294  0.19342418  0.94098235  1
  Zn  Zn161  1  0.94106597  0.68632319  0.43521597  1
  Zn  Zn162  1  0.93838701  0.68714593  0.94359992  1
  Zn  Zn163  1  0.13161242  0.22426114  0.09171499  1
  Zn  Zn164  1  0.06201386  0.31446882  0.56659338  1
  Zn  Zn165  1  0.07426931  0.85690721  0.00738315  1
  Zn  Zn166  1  0.06334499  0.81060103  0.55864548  1
  Zn  Zn167  1  0.56728084  0.31489266  0.06552215  1
  Zn  Zn168  1  0.56568520  0.31357995  0.56322477  1
  Zn  Zn169  1  0.43382197  0.82583698  0.06106657  1
  Zn  Zn170  1  0.55872686  0.81015988  0.55539237  1
  O  O171  1  0.10718665  0.11289711  0.10080625  1
  O  O172  1  0.11802816  0.11708819  0.62723068  1
  O  O173  1  0.12040293  0.62028227  0.11980980  1
  O  O174  1  0.11819572  0.62257056  0.61933488  1
  O  O175  1  0.62739865  0.12141104  0.11982630  1
  O  O176  1  0.61884742  0.12249122  0.61644197  1
  O  O177  1  0.61434086  0.61720741  0.12694412  1
  O  O178  1  0.61148718  0.62155827  0.61097528  1
  O  O179  1  0.38384276  0.37603330  0.38487793  1
  O  O180  1  0.38818571  0.38577576  0.86620304  1
  O  O181  1  0.38879388  0.87271218  0.37764371  1
  O  O182  1  0.38536239  0.87452460  0.86458729  1
  O  O183  1  0.87323030  0.38889600  0.37969343  1
  O  O184  1  0.89170595  0.38093324  0.86380884  1
  O  O185  1  0.88807748  0.87958639  0.37775475  1
  O  O186  1  0.84977174  0.88031835  0.87668293  1
  O  O187  1  0.24577855  0.00839766  0.37019742  1
  O  O188  1  0.26657383  -0.01647528  0.85745930  1
  O  O189  1  0.25100275  0.51032913  0.36838915  1
  O  O190  1  0.25518240  0.51067344  0.87624251  1
  O  O191  1  0.75823855  0.00894344  0.37082201  1
  O  O192  1  0.74128957  0.01864542  0.85317696  1
  O  O193  1  0.76086418  0.50789041  0.37348361  1
  O  O194  1  0.76293437  0.50001351  0.86854851  1
  O  O195  1  0.24249062  0.50854681  0.13622240  1
  O  O196  1  0.25009337  0.48811705  0.62261284  1
  O  O197  1  0.24590090  0.98825335  0.13851894  1
  O  O198  1  0.24225548  0.99178449  0.63284984  1
  O  O199  1  0.75057590  0.48728891  0.12971973  1
  O  O200  1  0.75839307  0.49115615  0.63442738  1
  O  O201  1  0.74954957  0.99721959  0.13452301  1
  O  O202  1  0.74290147  1.00937246  0.62954682  1
  O  O203  1  0.01411716  0.37058818  0.25015350  1
  O  O204  1  0.01249322  0.38099588  0.74946713  1
  O  O205  1  0.00550514  0.87473696  0.25312116  1
  O  O206  1  0.00675559  0.87027448  0.73974441  1
  O  O207  1  0.50506710  0.36734182  0.25517382  1
  O  O208  1  0.50888142  0.37439241  0.75694476  1
  O  O209  1  0.50845237  0.86677676  0.25979051  1
  O  O210  1  0.51792654  0.87849482  0.73906064  1
  O  O211  1  0.50773161  0.14670889  0.25307183  1
  O  O212  1  0.49085894  0.13456247  0.73481191  1
  O  O213  1  0.49867630  0.64294042  0.25798915  1
  O  O214  1  0.49274529  0.61244111  0.72786051  1
  O  O215  1  0.99217976  0.13707177  0.26028138  1
  O  O216  1  0.99074534  0.12290768  0.74284383  1
  O  O217  1  0.99485622  0.61802265  0.24062126  1
  O  O218  1  0.99536992  0.62062127  0.74044174  1
  O  O219  1  0.35400715  0.24039334  -0.01112589  1
  O  O220  1  0.37125511  0.25993302  0.51064262  1
  O  O221  1  0.36392944  0.75317148  -0.00654522  1
  O  O222  1  0.36110904  0.75047676  0.49419738  1
  O  O223  1  0.87319489  0.24936690  0.00606209  1
  O  O224  1  0.87221390  0.25769787  0.50873814  1
  O  O225  1  0.87309925  0.73549961  0.02623603  1
  O  O226  1  0.87129335  0.75500178  0.50181173  1
  O  O227  1  0.12693064  0.24632216  0.49940074  1
  O  O228  1  0.12517146  0.24822762  0.97828542  1
  O  O229  1  0.13170491  0.74262051  0.49009689  1
  O  O230  1  0.12976539  0.74357999  0.98685873  1
  O  O231  1  0.63756308  0.24428305  0.50511231  1
  O  O232  1  0.62738141  0.24281676  0.99421731  1
  O  O233  1  0.62978576  0.74080280  0.48795350  1
  O  O234  1  0.64559814  0.74242467  1.01039473  1
  O  O235  1  0.50309042  0.25196326  0.14056354  1
  O  O236  1  0.49617760  0.24760623  0.63115269  1
  O  O237  1  0.50019728  0.75493672  0.14364351  1
  O  O238  1  0.50100232  0.73350282  0.61728764  1
  O  O239  1  1.01771286  0.25080101  0.14012285  1
  O  O240  1  0.99200609  0.24131663  0.62196990  1
  O  O241  1  0.99547902  0.74280445  0.14224013  1
  O  O242  1  0.99789841  0.73690021  0.62264994  1
  O  O243  1  0.01170209  0.25072228  0.37374320  1
  O  O244  1  0.00939605  0.26288294  0.87056803  1
  O  O245  1  0.01441412  0.75543673  0.37689225  1
  O  O246  1  0.00844798  0.73952223  0.87211271  1
  O  O247  1  0.49877914  0.26428946  0.36650343  1
  O  O248  1  0.50815321  0.25917610  0.86973008  1
  O  O249  1  0.50872848  0.75860581  0.37258614  1
  O  O250  1  0.51909331  0.70657681  0.86066613  1
  O  O251  1  0.23426106  0.13419211  0.51465825  1
  O  O252  1  0.23683673  0.08290247  0.98795636  1
  O  O253  1  0.24576000  0.63038234  0.49350133  1
  O  O254  1  0.24314093  0.63388553  0.99269150  1
  O  O255  1  0.74615507  0.13667782  0.49649768  1
  O  O256  1  0.74374677  0.12784432  0.99011194  1
  O  O257  1  0.74252395  0.62917160  0.49494420  1
  O  O258  1  0.75787572  0.61766712  0.98760058  1
  O  O259  1  0.25007158  0.37307398  0.00250571  1
  O  O260  1  0.25518389  0.37059699  0.50863857  1
  O  O261  1  0.24354158  0.86384377  -0.00339129  1
  O  O262  1  0.24962304  0.86615442  0.50595882  1
  O  O263  1  0.74538748  0.37635985  0.01426187  1
  O  O264  1  0.75543192  0.37340198  0.50572127  1
  O  O265  1  0.77486331  0.87249712  0.02023692  1
  O  O266  1  0.76503360  0.86986176  0.48888815  1
  O  O267  1  0.13155749  0.49572870  0.24571946  1
  O  O268  1  0.13045637  0.48800030  0.74734163  1
  O  O269  1  0.13514313  0.99739125  0.25697082  1
  O  O270  1  0.13280009  0.98833309  0.74669334  1
  O  O271  1  0.62368511  0.48560086  0.24857509  1
  O  O272  1  0.64263783  0.49686849  0.75521398  1
  O  O273  1  0.63504841  1.00087771  0.24812595  1
  O  O274  1  0.63605982  1.00615736  0.73026551  1
  O  O275  1  0.35230390  -0.00092828  0.26286313  1
  O  O276  1  0.37174237  0.00556710  0.75543893  1
  O  O277  1  0.36733796  0.49605678  0.25230654  1
  O  O278  1  0.37265544  0.50957527  0.76107659  1
  O  O279  1  0.87287278  0.01326869  0.25744895  1
  O  O280  1  0.86496929  0.01674900  0.73716511  1
  O  O281  1  0.87681616  0.50861666  0.25872678  1
  O  O282  1  0.86947878  0.50881448  0.75659841  1
  O  O283  1  0.12557571  0.37112476  0.37102371  1
  O  O284  1  0.11563558  0.37236019  0.86442716  1
  O  O285  1  0.11246258  0.86691633  0.38482008  1
  O  O286  1  0.11518833  0.86277950  0.87598161  1
  O  O287  1  0.61905768  0.37748010  0.36224032  1
  O  O288  1  0.62278932  0.36715082  0.86911063  1
  O  O289  1  0.62009170  0.86860953  0.37268482  1
  O  O290  1  0.63264739  0.86464009  0.86509808  1
  O  O291  1  0.37841027  0.11924709  0.12288185  1
  O  O292  1  0.38295428  0.13120014  0.62838299  1
  O  O293  1  0.38384058  0.62343379  0.12932799  1
  O  O294  1  0.38646402  0.62082205  0.62799430  1
  O  O295  1  0.86856744  0.13440241  0.14032856  1
  O  O296  1  0.88380412  0.13533623  0.62896629  1
  O  O297  1  0.88405727  0.62510960  0.13577943  1
  O  O298  1  0.88252948  0.62788704  0.62894155  1
  O  O299  1  0.24247813  0.24993055  0.11738327  1
  O  O300  1  0.25377353  0.26184990  0.62290323  1
  O  O301  1  0.24451626  0.75317571  0.10471963  1
  O  O302  1  0.24031485  0.75995022  0.61355844  1
  O  O303  1  0.74913221  0.26713066  0.12513518  1
  O  O304  1  0.75856552  0.25868662  0.61359923  1
  O  O305  1  0.75993742  0.76100499  0.13731408  1
  O  O306  1  0.75414892  0.75095231  0.61558302  1
  O  O307  1  0.23611154  0.25291256  0.38656650  1
  O  O308  1  0.23849600  0.25596206  0.86856388  1
  O  O309  1  0.24028716  0.74549369  0.37946895  1
  O  O310  1  0.24361832  0.74069764  0.88260648  1
  O  O311  1  0.76029943  0.25068982  0.38902898  1
  O  O312  1  0.74270620  0.24574547  0.87449168  1
  O  O313  1  0.74443613  0.74434851  0.37811265  1
  O  O314  1  0.76244307  0.73173835  0.87872300  1
  O  O315  1  0.00895950  0.10779624  -0.03449634  1
  O  O316  1  0.00980980  0.12234366  0.51257658  1
  O  O317  1  0.01003870  0.62455661  0.01536586  1
  O  O318  1  0.00560524  0.61718720  0.50579747  1
  O  O319  1  0.51144937  0.11951468  0.00325202  1
  O  O320  1  0.50973640  0.13240094  0.50970130  1
  O  O321  1  0.50071784  0.61410809  -0.00025956  1
  O  O322  1  0.50442563  0.61790554  0.50356122  1
  O  O323  1  0.49996652  0.37948737  0.49345941  1
  O  O324  1  0.50853365  0.37873849  0.98496504  1
  O  O325  1  0.49905367  0.87950045  0.48994084  1
  O  O326  1  0.50771753  0.88308119  1.00203016  1
  O  O327  1  0.99485423  0.38945707  0.50799495  1
  O  O328  1  1.00440070  0.37714559  0.98241158  1
  O  O329  1  0.99112842  0.87936249  0.49213730  1
  O  O330  1  0.96024397  0.86736442  0.99757875  1
  O  O331  1  0.49941824  0.48955225  0.38408413  1
  O  O332  1  0.49441197  0.49698728  0.88107977  1
  O  O333  1  0.50146794  0.99222950  0.37511955  1
  O  O334  1  0.48845530  1.00108787  0.86756544  1
  O  O335  1  0.99263192  0.50821110  0.38584172  1
  O  O336  1  0.99526249  0.48997904  0.87510741  1
  O  O337  1  0.99793933  0.99459579  0.38225410  1
  O  O338  1  1.00649348  0.98055753  0.84948567  1
  O  O339  1  -0.01689079  0.01169071  0.10805478  1
  O  O340  1  0.00705532  0.00714032  0.62104781  1
  O  O341  1  0.00960843  0.50581760  0.12319134  1
  O  O342  1  -0.00041981  0.51134284  0.61630396  1
  O  O343  1  0.51527861  0.00469973  0.13868349  1
  O  O344  1  0.50838141  0.01181007  0.62028992  1
  O  O345  1  0.49504396  0.48663506  0.10879237  1
  O  O346  1  0.49799167  0.50149957  0.60793624  1
  O  O347  1  0.23973240  0.38822061  0.25935281  1
  O  O348  1  0.24322690  0.37983132  0.74153192  1
  O  O349  1  0.23720331  0.88472146  0.25271024  1
  O  O350  1  0.25060205  0.87942206  0.73811481  1
  O  O351  1  0.74021086  0.37505826  0.24735499  1
  O  O352  1  0.74850433  0.38048381  0.74239190  1
  O  O353  1  0.74620203  0.88540950  0.25100712  1
  O  O354  1  0.75732661  0.88937282  0.73914611  1
  O  O355  1  0.23851086  0.11263377  0.24808704  1
  O  O356  1  0.26342959  0.11050673  0.73948582  1
  O  O357  1  0.25247091  0.61582431  0.25814177  1
  O  O358  1  0.25643086  0.62260756  0.75614404  1
  O  O359  1  0.75757047  0.12802486  0.25890668  1
  O  O360  1  0.75667212  0.12523582  0.74924722  1
  O  O361  1  0.75864829  0.62172385  0.25572513  1
  O  O362  1  0.76033301  0.61593582  0.75891603  1
  O  O363  1  0.36056801  0.13315674  0.38720150  1
  O  O364  1  0.37695087  0.12981585  0.86248165  1
  O  O365  1  0.36271823  0.62292901  0.37304295  1
  O  O366  1  0.36548279  0.61897402  0.86650462  1
  O  O367  1  0.87053679  0.12246445  0.37247954  1
  O  O368  1  0.86607648  0.13717480  0.85852642  1
  O  O369  1  0.87243672  0.61805281  0.36996439  1
  O  O370  1  0.87298812  0.61549931  0.86796083  1
  O  O371  1  0.12726105  0.38851644  0.13667236  1
  O  O372  1  0.13169481  0.37774121  0.63396745  1
  O  O373  1  0.10961537  0.85372457  0.12374873  1
  O  O374  1  0.12925346  0.88712656  0.61573360  1
  O  O375  1  0.63513949  0.37863647  0.13629139  1
  O  O376  1  0.63969459  0.37162241  0.63123745  1
  O  O377  1  0.64285204  0.88925485  0.13762592  1
  O  O378  1  0.63368332  0.88396058  0.60785647  1
  O  O379  1  0.12111928  0.26234332  0.26472810  1
  O  O380  1  0.12911013  0.26969100  0.75270216  1
  O  O381  1  0.12557968  0.74859922  0.25209993  1
  O  O382  1  0.12358221  0.74285443  0.76353661  1
  O  O383  1  0.61627042  0.26562548  0.24976177  1
  O  O384  1  0.62042923  0.25623169  0.75732860  1
  O  O385  1  0.62096606  0.75552357  0.26153931  1
  O  O386  1  0.64823342  0.75984778  0.72874053  1
  O  O387  1  0.38304247  0.25399535  0.25085257  1
  O  O388  1  0.37982634  0.24429952  0.74497069  1
  O  O389  1  0.38713311  0.74990812  0.26216896  1
  O  O390  1  0.37222654  0.73417610  0.75204509  1
  O  O391  1  0.89145479  0.24831572  0.24848149  1
  O  O392  1  0.86903449  0.24549671  0.73420703  1
  O  O393  1  0.87495402  0.73401923  0.24788080  1
  O  O394  1  0.87988009  0.73178208  0.73909288  1
  O  O395  1  0.38400411  0.49296892  0.49552801  1
  O  O396  1  0.38072186  0.50494181  0.98393722  1
  O  O397  1  0.37816516  0.99788406  0.49449076  1
  O  O398  1  0.37828354  0.99399511  0.97531672  1
  O  O399  1  0.88264919  0.49671028  0.49229140  1
  O  O400  1  0.88166475  0.50233361  0.98594461  1
  O  O401  1  0.88120249  0.99409189  0.49608305  1
  O  O402  1  0.86703264  1.00508618  0.98348453  1
  O  O403  1  0.10290066  -0.02864838  0.00170579  1
  O  O404  1  0.12107898  0.00922423  0.50939646  1
  O  O405  1  0.12616191  0.51204872  0.00750554  1
  O  O406  1  0.11808121  0.50628239  0.50116352  1
  O  O407  1  0.62563803  0.01562465  0.01401322  1
  O  O408  1  0.62666234  0.01276774  0.50887419  1
  O  O409  1  0.61362403  0.50502991  0.00204718  1
  O  O410  1  0.62022050  0.51114192  0.49104312  1
  O  O411  1  0.36949178  0.35925046  0.11191306  1
  O  O412  1  0.36919366  0.37241061  0.62358443  1
  O  O413  1  0.37237090  0.87252509  0.13810108  1
  O  O414  1  0.36182291  0.87882790  0.62072450  1
  O  O415  1  0.86227357  0.37405419  0.13416616  1
  O  O416  1  0.86835330  0.37036848  0.62038566  1
  O  O417  1  0.86722787  0.86361342  0.14770955  1
  O  O418  1  0.87993274  0.86486325  0.61194890  1
  O  O419  1  0.12555132  0.13702459  0.39075781  1
  O  O420  1  0.13141413  0.14860797  0.84979902  1
  O  O421  1  0.13510661  0.63234076  0.37826959  1
  O  O422  1  0.13215959  0.62607970  0.88255917  1
  O  O423  1  0.63321108  0.12391019  0.38960363  1
  O  O424  1  0.63396246  0.13986750  0.88417123  1
  O  O425  1  0.62912958  0.63210867  0.37930229  1
  O  O426  1  0.65032161  0.61286765  0.87672052  1
