# generated using pymatgen
data_V85Zn86O256
_symmetry_space_group_name_H-M   'P 1'
_cell_length_a   16.97526257
_cell_length_b   16.94666747
_cell_length_c   16.98152986
_cell_angle_alpha   90.05900246
_cell_angle_beta   89.97311865
_cell_angle_gamma   90.00497517
_symmetry_Int_Tables_number   1
_chemical_formula_structural   V85Zn86O256
_chemical_formula_sum   'V85 Zn86 O256'
_cell_volume   4885.14368340
_cell_formula_units_Z   1
loop_
 _symmetry_equiv_pos_site_id
 _symmetry_equiv_pos_as_xyz
  1  'x, y, z'
loop_
 _atom_site_type_symbol
 _atom_site_label
 _atom_site_symmetry_multiplicity
 _atom_site_fract_x
 _atom_site_fract_y
 _atom_site_fract_z
 _atom_site_occupancy
  V  V0  1  0.62367946  0.00226655  0.62910937  1
  V  V1  1  0.74671961  0.87244499  0.62701309  1
  V  V2  1  0.11279254  0.35981406  0.25042241  1
  V  V3  1  0.13366181  0.63289904  0.00102958  1
  V  V4  1  0.88145626  0.49280875  0.36875318  1
  V  V5  1  0.25227306  0.62098208  0.37445391  1
  V  V6  1  0.61962576  0.62467864  0.01048516  1
  V  V7  1  0.62749591  0.00196971  0.12583251  1
  V  V8  1  0.12458225  0.25030318  0.87624293  1
  V  V9  1  0.24986225  0.26269641  0.00215474  1
  V  V10  1  0.00124936  0.49025269  0.49514446  1
  V  V11  1  0.13148313  0.49273817  0.12373727  1
  V  V12  1  0.87129410  0.50106166  0.86918334  1
  V  V13  1  0.36608143  0.12903115  0.25276379  1
  V  V14  1  0.50120684  0.74926186  0.23992443  1
  V  V15  1  0.87424796  0.62263155  0.24960246  1
  V  V16  1  0.00173478  0.74775390  0.74927128  1
  V  V17  1  0.12602921  0.87549371  0.75119878  1
  V  V18  1  0.25483992  0.85952941  0.12145680  1
  V  V19  1  0.12409094  0.75200895  0.37671699  1
  V  V20  1  0.50442051  0.00654497  0.49874253  1
  V  V21  1  0.88321787  0.24457266  0.12650288  1
  V  V22  1  0.49924215  0.62180907  0.62310461  1
  V  V23  1  0.14793409  0.13392829  0.49103971  1
  V  V24  1  0.00101281  0.75326551  0.25698838  1
  V  V25  1  0.74903965  0.74909403  -0.00030890  1
  V  V26  1  0.63340875  0.37766890  0.76384379  1
  V  V27  1  0.50545001  0.75916495  0.74585572  1
  V  V28  1  0.00101201  0.62454739  0.12452942  1
  V  V29  1  0.12287317  0.00267107  0.62561269  1
  V  V30  1  0.12788063  0.87682023  0.25148530  1
  V  V31  1  0.50076043  0.48406000  0.50160153  1
  V  V32  1  0.00112382  0.24755318  0.75138750  1
  V  V33  1  0.87903617  0.74712880  0.62038663  1
  V  V34  1  0.37930943  0.62888688  0.23645067  1
  V  V35  1  0.49645070  0.13039646  0.13085065  1
  V  V36  1  0.37480145  0.85775741  0.00173494  1
  V  V37  1  0.69847884  0.05749691  0.30358179  1
  V  V38  1  -0.00022857  0.87532488  0.87660459  1
  V  V39  1  0.74206618  0.37933081  0.13005690  1
  V  V40  1  -0.00018504  0.37569520  0.87520901  1
  V  V41  1  -0.00047536  0.12476800  0.61807445  1
  V  V42  1  0.87205050  -0.00218051  0.87396260  1
  V  V43  1  0.12586282  0.00259154  0.12008120  1
  V  V44  1  0.87234099  0.12026140  0.74743644  1
  V  V45  1  0.60266753  0.37388997  0.25461304  1
  V  V46  1  0.24409037  0.38064719  0.63170211  1
  V  V47  1  0.37359045  0.25817701  0.12500923  1
  V  V48  1  0.25103120  0.00175049  0.75260189  1
  V  V49  1  0.87543694  0.75056025  0.12601109  1
  V  V50  1  0.88491682  0.11473076  0.24152704  1
  V  V51  1  0.50452038  0.49744161  0.01133872  1
  V  V52  1  0.75202374  0.74468463  0.49693321  1
  V  V53  1  0.37580166  0.74885998  0.62314609  1
  V  V54  1  0.62647514  0.75558844  0.86967871  1
  V  V55  1  0.37509496  0.62630744  0.74922261  1
  V  V56  1  0.62360093  0.62083944  0.49743401  1
  V  V57  1  0.38515295  0.50008921  0.37390591  1
  V  V58  1  0.24898061  0.12532194  0.88110849  1
  V  V59  1  0.12843261  0.61349339  0.50188973  1
  V  V60  1  0.37226861  0.25968454  0.62997665  1
  V  V61  1  0.74229492  0.12723638  0.87211526  1
  V  V62  1  0.34103807  0.36003126  0.47045651  1
  V  V63  1  0.36563568  0.00193561  0.37459748  1
  V  V64  1  0.25039151  0.49088148  0.24724882  1
  V  V65  1  0.25021787  0.74688560  0.50018488  1
  V  V66  1  0.24213408  0.50481027  0.75473620  1
  V  V67  1  0.87370687  0.87363722  0.00062163  1
  V  V68  1  0.74287213  0.25175633  -0.00311474  1
  V  V69  1  0.87245876  0.37462680  0.00029793  1
  V  V70  1  0.00417564  0.61779616  0.62324626  1
  V  V71  1  0.38663960  0.49640186  0.87294208  1
  V  V72  1  0.37680933  -0.00164071  0.87678602  1
  V  V73  1  0.50409951  0.26009816  0.76490817  1
  V  V74  1  0.38018819  0.12777363  0.74911959  1
  V  V75  1  0.49605552  -0.00181877  0.00182246  1
  V  V76  1  0.24989024  0.87509968  0.62528628  1
  V  V77  1  0.74857045  0.87705228  0.13238002  1
  V  V78  1  0.88055080  -0.00195316  0.37272133  1
  V  V79  1  0.37606045  0.87566344  0.49764915  1
  V  V80  1  0.86005962  0.26730329  0.63039843  1
  V  V81  1  0.74855513  0.62262917  0.86885343  1
  V  V82  1  0.00107008  0.50096212  -0.00023961  1
  V  V83  1  0.63964280  0.49578207  0.63302349  1
  V  V84  1  0.62127761  0.12823829  -0.00331125  1
  Zn  Zn85  1  0.01038319  -0.00617058  0.48496206  1
  Zn  Zn86  1  0.11363023  0.13005107  0.00517405  1
  Zn  Zn87  1  0.12257799  0.37986663  0.74953975  1
  Zn  Zn88  1  0.83352884  0.35215138  0.47871664  1
  Zn  Zn89  1  -0.00594496  0.00567145  0.00773657  1
  Zn  Zn90  1  0.62477776  0.87688349  0.25648657  1
  Zn  Zn91  1  0.74819751  0.61807755  0.37236764  1
  Zn  Zn92  1  0.13263663  0.75420595  0.88167796  1
  Zn  Zn93  1  0.25929826  0.63460186  0.88244163  1
  Zn  Zn94  1  0.62101062  0.74924617  0.37506297  1
  Zn  Zn95  1  0.74129346  0.50226781  0.24349757  1
  Zn  Zn96  1  0.70579179  0.20954055  0.46486458  1
  Zn  Zn97  1  0.55544689  0.29003606  0.40599917  1
  Zn  Zn98  1  0.38055972  0.37488330  -0.00315636  1
  Zn  Zn99  1  0.88415100  0.87246776  0.49073964  1
  Zn  Zn100  1  0.86964539  0.61984902  0.74299105  1
  Zn  Zn101  1  0.74358096  -0.00973578  0.75302886  1
  Zn  Zn102  1  0.50477059  0.87732445  0.87240276  1
  Zn  Zn103  1  0.51288561  0.13768366  0.62048304  1
  Zn  Zn104  1  0.24955934  -0.00175992  0.25046811  1
  Zn  Zn105  1  0.50228555  0.87479061  0.37365840  1
  Zn  Zn106  1  0.00128869  0.33371956  0.38396113  1
  Zn  Zn107  1  0.19102578  0.18502388  0.18423980  1
  Zn  Zn108  1  0.18878943  0.18866102  0.68806240  1
  Zn  Zn109  1  0.18932432  0.68293087  0.18853465  1
  Zn  Zn110  1  0.18671501  0.68587605  0.68813043  1
  Zn  Zn111  1  0.68340046  0.19880336  0.18362829  1
  Zn  Zn112  1  0.68503552  0.18866745  0.68960430  1
  Zn  Zn113  1  0.68801901  0.68960039  0.18909044  1
  Zn  Zn114  1  0.68751686  0.68573591  0.68509903  1
  Zn  Zn115  1  0.31713483  0.31641154  0.30500114  1
  Zn  Zn116  1  0.31257343  0.31576043  0.81458366  1
  Zn  Zn117  1  0.31388517  0.81019948  0.31235314  1
  Zn  Zn118  1  0.31485965  0.81163218  0.81504441  1
  Zn  Zn119  1  0.81784095  0.30650665  0.30827463  1
  Zn  Zn120  1  0.81239758  0.31063606  0.81305385  1
  Zn  Zn121  1  0.81197903  0.81240801  0.31482168  1
  Zn  Zn122  1  0.81403339  0.80828401  0.80899907  1
  Zn  Zn123  1  0.18848959  0.42043459  0.42492242  1
  Zn  Zn124  1  0.18931933  0.44241032  0.93264537  1
  Zn  Zn125  1  0.18376453  0.93810111  0.43872938  1
  Zn  Zn126  1  0.19086515  0.93349503  0.94152576  1
  Zn  Zn127  1  0.70083716  0.40838707  0.41845700  1
  Zn  Zn128  1  0.68635572  0.44017178  0.93830251  1
  Zn  Zn129  1  0.68594892  0.93185588  0.44356459  1
  Zn  Zn130  1  0.68742484  0.93794413  0.94137594  1
  Zn  Zn131  1  0.30932518  0.06072584  0.06621568  1
  Zn  Zn132  1  0.31466416  0.06263818  0.56638267  1
  Zn  Zn133  1  0.31410105  0.55919568  0.06128847  1
  Zn  Zn134  1  0.31330794  0.55120907  0.56147301  1
  Zn  Zn135  1  0.81030814  0.06279976  0.06025148  1
  Zn  Zn136  1  0.80742719  0.06188516  0.55979903  1
  Zn  Zn137  1  0.81114907  0.56291191  0.05779456  1
  Zn  Zn138  1  0.79345191  0.52680363  0.54098774  1
  Zn  Zn139  1  0.43379503  0.44131835  0.18196452  1
  Zn  Zn140  1  0.43853081  0.43629775  0.69061483  1
  Zn  Zn141  1  0.43681439  0.93653434  0.18852394  1
  Zn  Zn142  1  0.43900810  0.93921573  0.68494716  1
  Zn  Zn143  1  0.93794698  0.43422240  0.18282917  1
  Zn  Zn144  1  0.94223993  0.43994542  0.68877876  1
  Zn  Zn145  1  0.94279974  0.93615037  0.19020487  1
  Zn  Zn146  1  0.93599890  0.93400623  0.68448551  1
  Zn  Zn147  1  0.03110601  0.13815578  0.34598645  1
  Zn  Zn148  1  0.06110737  0.06280890  0.81756349  1
  Zn  Zn149  1  0.06522543  0.56271182  0.31133749  1
  Zn  Zn150  1  0.06071920  0.56661234  0.81728247  1
  Zn  Zn151  1  0.52877183  0.11326686  0.34256230  1
  Zn  Zn152  1  0.56162446  0.06227759  0.80828086  1
  Zn  Zn153  1  0.56440240  0.55758860  0.30866560  1
  Zn  Zn154  1  0.56354132  0.56648658  0.81211207  1
  Zn  Zn155  1  0.41320492  0.18305813  0.44674348  1
  Zn  Zn156  1  0.43537725  0.18662274  0.94012882  1
  Zn  Zn157  1  0.44076840  0.68617120  0.43201464  1
  Zn  Zn158  1  0.44437939  0.68378652  0.93272215  1
  Zn  Zn159  1  0.88656932  0.18123772  0.44383629  1
  Zn  Zn160  1  0.93218103  0.18549831  0.93853584  1
  Zn  Zn161  1  0.93919781  0.67968852  0.43646125  1
  Zn  Zn162  1  0.93931939  0.68695536  0.93702015  1
  Zn  Zn163  1  0.06306944  0.31399049  0.06265008  1
  Zn  Zn164  1  0.06450066  0.30782617  0.56637402  1
  Zn  Zn165  1  0.06102559  0.81546626  0.06668006  1
  Zn  Zn166  1  0.06199377  0.81287078  0.55843633  1
  Zn  Zn167  1  0.56210618  0.31443031  0.06295125  1
  Zn  Zn168  1  0.56927887  0.31249417  0.57859644  1
  Zn  Zn169  1  0.56196891  0.81249480  0.06311562  1
  Zn  Zn170  1  0.56456818  0.81492686  0.55990994  1
  O  O171  1  0.13044013  0.10663168  0.12369669  1
  O  O172  1  0.11990533  0.11854695  0.62317630  1
  O  O173  1  0.12181870  0.61622816  0.11687189  1
  O  O174  1  0.11647819  0.62849313  0.61406942  1
  O  O175  1  0.61591904  0.12077542  0.11941343  1
  O  O176  1  0.62782766  0.10948328  0.62669280  1
  O  O177  1  0.63334199  0.62743802  0.10813069  1
  O  O178  1  0.61538568  0.61748838  0.62334257  1
  O  O179  1  0.38851690  0.39031596  0.37154372  1
  O  O180  1  0.37449949  0.39261362  0.87645485  1
  O  O181  1  0.37716137  0.87805859  0.38629454  1
  O  O182  1  0.37799286  0.88291494  0.88438561  1
  O  O183  1  0.89161369  0.38175348  0.37160609  1
  O  O184  1  0.87859479  0.38150059  0.88052134  1
  O  O185  1  0.87485792  0.89260666  0.36554281  1
  O  O186  1  0.88039197  0.87620201  0.87904930  1
  O  O187  1  0.26246589  -0.01164281  0.37282744  1
  O  O188  1  0.25609106  0.00606762  0.87270336  1
  O  O189  1  0.25866092  0.50287390  0.36542984  1
  O  O190  1  0.26354136  0.50841249  0.86982427  1
  O  O191  1  0.75192902  -0.00602667  0.36523695  1
  O  O192  1  0.75432522  0.00478861  0.87349299  1
  O  O193  1  0.76903817  0.49782463  0.36376700  1
  O  O194  1  0.75921643  0.51049937  0.88187706  1
  O  O195  1  0.24194309  0.50354854  0.13244924  1
  O  O196  1  0.25870135  0.49464888  0.64567072  1
  O  O197  1  0.23970894  0.98785232  0.12573571  1
  O  O198  1  0.24056006  0.99739312  0.63239589  1
  O  O199  1  0.75831944  0.48275091  0.12122465  1
  O  O200  1  0.73531349  0.51811051  0.64261250  1
  O  O201  1  0.73501294  0.99189097  0.11405588  1
  O  O202  1  0.74129242  0.99105888  0.62276452  1
  O  O203  1  0.01179910  0.36924071  0.24198799  1
  O  O204  1  0.00311563  0.36656289  0.75634438  1
  O  O205  1  0.01103287  0.85988931  0.24489565  1
  O  O206  1  0.00428024  0.86706143  0.75568330  1
  O  O207  1  0.50472425  0.37380204  0.23898452  1
  O  O208  1  0.50546061  0.36481512  0.75233169  1
  O  O209  1  0.49919398  0.86163278  0.25080063  1
  O  O210  1  0.49514454  0.86265134  0.75003948  1
  O  O211  1  0.48451081  0.11646805  0.23368541  1
  O  O212  1  0.49448152  0.13585074  0.74686633  1
  O  O213  1  0.48707770  0.63161135  0.25250780  1
  O  O214  1  0.49529727  0.63337564  0.73874104  1
  O  O215  1  0.98336510  0.12199215  0.24018724  1
  O  O216  1  0.99157953  0.12986605  0.74825224  1
  O  O217  1  0.99652307  0.63371070  0.24250903  1
  O  O218  1  1.00224569  0.63119687  0.74143131  1
  O  O219  1  0.36726328  0.25330869  0.00376318  1
  O  O220  1  0.37614760  0.26675042  0.51501947  1
  O  O221  1  0.38499791  0.75905432  -0.00496180  1
  O  O222  1  0.37090795  0.75576021  0.50404975  1
  O  O223  1  0.86255411  0.25263018  0.00667734  1
  O  O224  1  0.89039430  0.26685790  0.52963150  1
  O  O225  1  0.87046227  0.75383910  0.00588665  1
  O  O226  1  0.87005256  0.74679263  0.50410189  1
  O  O227  1  0.12146471  0.23047827  0.50608543  1
  O  O228  1  0.13285272  0.24895338  0.99565931  1
  O  O229  1  0.13242202  0.74073067  0.49520972  1
  O  O230  1  0.11830889  0.73519914  1.00367266  1
  O  O231  1  0.60840746  0.24729173  0.49794874  1
  O  O232  1  0.63467626  0.24478968  1.00342360  1
  O  O233  1  0.63246669  0.73654053  0.50310458  1
  O  O234  1  0.62677787  0.74016698  0.99343960  1
  O  O235  1  0.48914179  0.23967143  0.11452711  1
  O  O236  1  0.48710476  0.25177606  0.63933240  1
  O  O237  1  0.50223102  0.75047407  0.13999250  1
  O  O238  1  0.49673596  0.74409348  0.62796262  1
  O  O239  1  0.98127093  0.25060404  0.11402235  1
  O  O240  1  0.99758398  0.24202187  0.63963587  1
  O  O241  1  0.99332014  0.74428731  0.13229439  1
  O  O242  1  0.99659082  0.74283839  0.63001820  1
  O  O243  1  -0.02829565  0.22555627  0.38440304  1
  O  O244  1  0.00027670  0.25446910  0.86611666  1
  O  O245  1  0.00906319  0.74133095  0.36595918  1
  O  O246  1  0.00227743  0.75872951  0.86675615  1
  O  O247  1  0.48494633  0.21622093  0.36681077  1
  O  O248  1  0.49793793  0.24595331  0.86314980  1
  O  O249  1  0.50117273  0.75200476  0.36346973  1
  O  O250  1  0.50972061  0.75060993  0.86282331  1
  O  O251  1  0.24771544  0.12987958  0.50388369  1
  O  O252  1  0.25148157  0.12998776  0.98816667  1
  O  O253  1  0.24568087  0.62436818  0.49677232  1
  O  O254  1  0.23658303  0.62144455  1.00192572  1
  O  O255  1  0.78863600  0.14188330  0.48696271  1
  O  O256  1  0.74208495  0.13160918  0.99230472  1
  O  O257  1  0.74067162  0.62624133  0.49867772  1
  O  O258  1  0.74102618  0.63017488  0.99094097  1
  O  O259  1  0.25262475  0.36555809  -0.00684549  1
  O  O260  1  0.25377115  0.40465542  0.52101719  1
  O  O261  1  0.26036502  0.87336451  0.01131125  1
  O  O262  1  0.25595753  0.86920216  0.50718036  1
  O  O263  1  0.75253544  0.36907449  0.00470516  1
  O  O264  1  0.75322749  0.42172246  0.51595332  1
  O  O265  1  0.75369601  0.86767657  0.00947330  1
  O  O266  1  0.75648300  0.86184578  0.50921782  1
  O  O267  1  0.13261008  0.49819366  0.24097634  1
  O  O268  1  0.13823062  0.50260125  0.76062561  1
  O  O269  1  0.12808304  0.98141661  0.23860455  1
  O  O270  1  0.13175935  0.99576673  0.74642190  1
  O  O271  1  0.62604096  0.48343965  0.24765796  1
  O  O272  1  0.61479528  0.49093287  0.74174775  1
  O  O273  1  0.63100968  1.00109668  0.24357374  1
  O  O274  1  0.62485929  0.99630776  0.73491398  1
  O  O275  1  0.37371619  0.00482076  0.25891347  1
  O  O276  1  0.37231829  0.00845919  0.75401993  1
  O  O277  1  0.37069016  0.50883716  0.25387902  1
  O  O278  1  0.37401400  0.50611112  0.76126973  1
  O  O279  1  0.87368385  0.00680757  0.24524570  1
  O  O280  1  0.87055082  0.00493282  0.75429285  1
  O  O281  1  0.88237211  0.50899457  0.25156212  1
  O  O282  1  0.88260916  0.50363914  0.76532720  1
  O  O283  1  0.11004115  0.37429832  0.35600518  1
  O  O284  1  0.11728691  0.36867803  0.87482302  1
  O  O285  1  0.13301870  0.86428848  0.36484182  1
  O  O286  1  0.11693880  0.87529877  0.87014239  1
  O  O287  1  0.60667373  0.38155565  0.36233521  1
  O  O288  1  0.62155487  0.38400743  0.86298882  1
  O  O289  1  0.62116280  0.86978604  0.37370978  1
  O  O290  1  0.62537844  0.86010056  0.88171981  1
  O  O291  1  0.37982880  0.13186320  0.12769709  1
  O  O292  1  0.37037731  0.13420880  0.64113198  1
  O  O293  1  0.37087630  0.62381623  0.13869319  1
  O  O294  1  0.38193343  0.62814376  0.62723633  1
  O  O295  1  0.86787764  0.13383739  0.12842991  1
  O  O296  1  0.88152477  0.12527470  0.63793631  1
  O  O297  1  0.87866207  0.62919544  0.13241907  1
  O  O298  1  0.88682172  0.63708474  0.62546420  1
  O  O299  1  0.25919726  0.24303734  0.11017777  1
  O  O300  1  0.26350642  0.26188320  0.63959811  1
  O  O301  1  0.24842727  0.76047795  0.12664292  1
  O  O302  1  0.25644412  0.75427122  0.61990510  1
  O  O303  1  0.75618611  0.26103934  0.11421918  1
  O  O304  1  0.76174972  0.24766621  0.62806978  1
  O  O305  1  0.75596884  0.75620547  0.11851361  1
  O  O306  1  0.75807250  0.75019857  0.61549982  1
  O  O307  1  0.26551589  0.31675655  0.40613792  1
  O  O308  1  0.24669988  0.24342800  0.88088851  1
  O  O309  1  0.24663315  0.74160223  0.38189630  1
  O  O310  1  0.24434262  0.74591011  0.86854374  1
  O  O311  1  0.75640006  0.29761867  0.40209296  1
  O  O312  1  0.75533327  0.23898747  0.88458409  1
  O  O313  1  0.75004195  0.74536292  0.38780850  1
  O  O314  1  0.74533119  0.74552559  0.88093762  1
  O  O315  1  0.00274439  0.11621705  -0.01362896  1
  O  O316  1  -0.00543097  0.11350420  0.51776931  1
  O  O317  1  0.00752339  0.61961791  0.00623895  1
  O  O318  1  0.01047526  0.61848169  0.50687525  1
  O  O319  1  0.50281236  0.11701731  0.00691626  1
  O  O320  1  0.48060642  0.10892812  0.51164312  1
  O  O321  1  0.51391086  0.61913039  -0.00252471  1
  O  O322  1  0.50427179  0.62272412  0.51082598  1
  O  O323  1  0.50403454  0.38333123  0.50392098  1
  O  O324  1  0.50200547  0.39247239  1.00185175  1
  O  O325  1  0.49024977  0.88489751  0.50055758  1
  O  O326  1  0.49306972  0.88260690  1.00002614  1
  O  O327  1  1.01291916  0.38716656  0.49954336  1
  O  O328  1  0.99313548  0.38030320  0.99414506  1
  O  O329  1  0.99776680  0.88339895  0.50356882  1
  O  O330  1  0.99325165  0.87430142  0.99070858  1
  O  O331  1  0.49323324  0.51388847  0.39027808  1
  O  O332  1  0.48934014  0.50843367  0.88195156  1
  O  O333  1  0.48687094  1.00446257  0.38554456  1
  O  O334  1  0.49585617  0.99864406  0.88248210  1
  O  O335  1  0.99424815  0.50764053  0.38161637  1
  O  O336  1  0.99400223  0.49595873  0.88194689  1
  O  O337  1  0.98208701  1.01688122  0.37186536  1
  O  O338  1  0.99216368  0.98522890  0.87086166  1
  O  O339  1  0.02122911  -0.01578563  0.12169625  1
  O  O340  1  0.01386655  0.00636290  0.63458628  1
  O  O341  1  0.00774034  0.50566590  0.11837391  1
  O  O342  1  -0.00365438  0.51009156  0.61510131  1
  O  O343  1  0.50876066  0.00376527  0.11888357  1
  O  O344  1  0.51205976  0.00013977  0.62089070  1
  O  O345  1  0.49477734  0.50695028  0.10913019  1
  O  O346  1  0.49869866  0.50735505  0.61879238  1
  O  O347  1  0.23907987  0.38779173  0.24963151  1
  O  O348  1  0.24704957  0.38652949  0.75020296  1
  O  O349  1  0.24642490  0.87164306  0.23888925  1
  O  O350  1  0.24784403  0.88281626  0.74385141  1
  O  O351  1  0.75642056  0.37708605  0.23323054  1
  O  O352  1  0.73279524  0.37024107  0.75804946  1
  O  O353  1  0.74622313  0.86497559  0.23487178  1
  O  O354  1  0.75596505  0.87109480  0.73263019  1
  O  O355  1  0.26195330  0.11676358  0.24225337  1
  O  O356  1  0.25714096  0.12152374  0.76193335  1
  O  O357  1  0.26067856  0.61809953  0.25525452  1
  O  O358  1  0.25879833  0.61947701  0.74882813  1
  O  O359  1  0.74879193  0.11821577  0.23780244  1
  O  O360  1  0.75520843  0.12242105  0.75686938  1
  O  O361  1  0.75951256  0.62177288  0.24907087  1
  O  O362  1  0.75326386  0.63466646  0.76501064  1
  O  O363  1  0.36531741  0.11437387  0.36541097  1
  O  O364  1  0.37002393  0.11977016  0.86602352  1
  O  O365  1  0.36878058  0.61493527  0.37097683  1
  O  O366  1  0.37698091  0.61708849  0.86697060  1
  O  O367  1  0.85919083  0.10821133  0.34676759  1
  O  O368  1  0.86406555  0.11896089  0.86421956  1
  O  O369  1  0.87529993  0.61976754  0.35961419  1
  O  O370  1  0.86744782  0.61834683  0.87606375  1
  O  O371  1  0.12209932  0.38639493  0.13162282  1
  O  O372  1  0.13955597  0.36895972  0.63124025  1
  O  O373  1  0.13852277  0.87536377  0.12833947  1
  O  O374  1  0.13103775  0.88277125  0.63116859  1
  O  O375  1  0.63844348  0.37383388  0.12883334  1
  O  O376  1  0.62580524  0.39149555  0.63804934  1
  O  O377  1  0.63078358  0.88437285  0.12687353  1
  O  O378  1  0.63515037  0.88508108  0.61867074  1
  O  O379  1  0.13015603  0.26156319  0.24219824  1
  O  O380  1  0.11575215  0.24861010  0.75855714  1
  O  O381  1  0.11985103  0.75374201  0.25494574  1
  O  O382  1  0.11368727  0.75653945  0.74778221  1
  O  O383  1  0.62924776  0.27408058  0.24815673  1
  O  O384  1  0.61274828  0.26318126  0.74501851  1
  O  O385  1  0.61200469  0.74716929  0.25223740  1
  O  O386  1  0.61730562  0.74531332  0.75657666  1
  O  O387  1  0.36485317  0.24213586  0.23723876  1
  O  O388  1  0.38433612  0.24692247  0.75110504  1
  O  O389  1  0.38345715  0.73625050  0.25374537  1
  O  O390  1  0.38352147  0.74549865  0.74130080  1
  O  O391  1  0.86685299  0.23567812  0.23282085  1
  O  O392  1  0.88113541  0.24095054  0.74511311  1
  O  O393  1  0.88284240  0.74364181  0.24732304  1
  O  O394  1  0.88885966  0.74685629  0.74219737  1
  O  O395  1  0.38169084  0.48678307  0.48938951  1
  O  O396  1  0.38659469  0.50273175  0.99044377  1
  O  O397  1  0.37624053  0.99059064  0.49685056  1
  O  O398  1  0.38509350  0.99780581  0.99778234  1
  O  O399  1  0.89123523  0.50907725  0.48323847  1
  O  O400  1  0.88160676  0.49529430  0.99152800  1
  O  O401  1  0.87053666  0.99681408  0.47925669  1
  O  O402  1  0.87355173  0.99092735  0.99290515  1
  O  O403  1  0.12597635  -0.00186272  0.01171916  1
  O  O404  1  0.12742715  0.01131677  0.51075288  1
  O  O405  1  0.12158038  0.50627916  0.00642378  1
  O  O406  1  0.12126062  0.51091708  0.48739671  1
  O  O407  1  0.61364979  0.00509729  0.00637342  1
  O  O408  1  0.61414125  -0.00234914  0.51008680  1
  O  O409  1  0.61391314  0.51238681  -0.00481696  1
  O  O410  1  0.61513700  0.51116156  0.51813805  1
  O  O411  1  0.37601002  0.36257860  0.12026700  1
  O  O412  1  0.36446130  0.37073545  0.63041668  1
  O  O413  1  0.36283530  0.87847218  0.11720524  1
  O  O414  1  0.37013905  0.87164657  0.61524917  1
  O  O415  1  0.86862486  0.36320246  0.11814219  1
  O  O416  1  0.86733524  0.36604606  0.64608465  1
  O  O417  1  0.86817526  0.87089422  0.12065405  1
  O  O418  1  0.87116507  0.86060517  0.62162362  1
  O  O419  1  0.13186948  0.11800369  0.39213676  1
  O  O420  1  0.13524759  0.13099194  0.87562557  1
  O  O421  1  0.13407887  0.63163127  0.38036070  1
  O  O422  1  0.12378537  0.62653766  0.89353312  1
  O  O423  1  0.64257595  0.11698665  0.36338836  1
  O  O424  1  0.63579014  0.11860664  0.87783657  1
  O  O425  1  0.62721485  0.62302125  0.38561908  1
  O  O426  1  0.63200335  0.63432384  0.88074921  1
