# generated using pymatgen
data_V85Zn86O256
_symmetry_space_group_name_H-M   'P 1'
_cell_length_a   16.94508028
_cell_length_b   16.94650797
_cell_length_c   16.94317578
_cell_angle_alpha   89.99280781
_cell_angle_beta   90.04026596
_cell_angle_gamma   90.12099801
_symmetry_Int_Tables_number   1
_chemical_formula_structural   V85Zn86O256
_chemical_formula_sum   'V85 Zn86 O256'
_cell_volume   4865.38921866
_cell_formula_units_Z   1
loop_
 _symmetry_equiv_pos_site_id
 _symmetry_equiv_pos_as_xyz
  1  'x, y, z'
loop_
 _atom_site_type_symbol
 _atom_site_label
 _atom_site_symmetry_multiplicity
 _atom_site_fract_x
 _atom_site_fract_y
 _atom_site_fract_z
 _atom_site_occupancy
  V  V0  1  0.50431573  0.50594662  0.49746640  1
  V  V1  1  0.00102465  0.12250108  0.12915442  1
  V  V2  1  0.62033592  0.23995932  0.37594397  1
  V  V3  1  0.63950525  0.01165009  0.11282441  1
  V  V4  1  0.74607359  0.50928797  0.75198166  1
  V  V5  1  0.24527669  0.75724203  -0.00682740  1
  V  V6  1  -0.00263505  0.37215495  0.37724506  1
  V  V7  1  0.24933285  0.62568754  0.37361594  1
  V  V8  1  0.13811408  -0.00009476  0.62816168  1
  V  V9  1  0.00389978  0.75600262  0.25155837  1
  V  V10  1  0.12309810  0.37565742  0.25216527  1
  V  V11  1  0.50686569  0.75116041  0.25323017  1
  V  V12  1  0.00082908  0.25170764  0.75086926  1
  V  V13  1  0.86094808  -0.01004864  0.37727291  1
  V  V14  1  0.13707150  0.37816864  0.75404788  1
  V  V15  1  0.25281505  0.61681432  0.86978440  1
  V  V16  1  0.74677903  0.74493996  -0.00636177  1
  V  V17  1  0.87230858  0.37292492  0.50002213  1
  V  V18  1  0.87292447  0.62458239  0.25356183  1
  V  V19  1  0.62355040  0.88041479  0.75487576  1
  V  V20  1  0.37468359  0.75465734  0.11667364  1
  V  V21  1  0.12583977  0.62627917  0.50052893  1
  V  V22  1  0.48678745  0.88439461  0.89086492  1
  V  V23  1  -0.00146126  0.62443035  0.12617437  1
  V  V24  1  0.62338412  0.37598548  0.74595046  1
  V  V25  1  0.63340693  0.88622356  0.25076930  1
  V  V26  1  0.73254080  0.62759195  0.37858970  1
  V  V27  1  0.12702668  0.75908522  0.37447211  1
  V  V28  1  0.87263390  0.49883621  0.37579850  1
  V  V29  1  0.37605700  0.62643272  0.24496951  1
  V  V30  1  0.62568502  0.00318484  0.60859418  1
  V  V31  1  0.25190206  0.36978306  0.61782607  1
  V  V32  1  0.37701696  0.11590200  0.75625691  1
  V  V33  1  0.86885847  0.50440596  0.87441602  1
  V  V34  1  0.25215328  0.10628797  0.37394777  1
  V  V35  1  0.12665800  0.24848127  0.87753741  1
  V  V36  1  0.74817534  0.37711631  0.62333969  1
  V  V37  1  0.24830313  0.37531930  0.12594135  1
  V  V38  1  0.26533610  0.74730607  0.50604500  1
  V  V39  1  -0.00222904  0.49980727  0.00009846  1
  V  V40  1  0.87320712  0.12787105  0.75300857  1
  V  V41  1  -0.00079376  0.50095038  0.50255835  1
  V  V42  1  0.00274169  0.12541011  0.62254741  1
  V  V43  1  0.37402705  0.11016957  0.25168163  1
  V  V44  1  -0.00133305  0.24654779  0.25400793  1
  V  V45  1  0.87111754  0.00479939  0.87787170  1
  V  V46  1  0.63130234  0.23561608  0.87397727  1
  V  V47  1  0.00071505  0.37753469  0.87367650  1
  V  V48  1  0.49946639  0.62508137  0.10999099  1
  V  V49  1  0.37590447  0.49912687  0.37365371  1
  V  V50  1  0.87558156  0.24803248  0.12511002  1
  V  V51  1  0.49872240  0.24836289  0.74734233  1
  V  V52  1  0.50339161  0.37856002  0.88229730  1
  V  V53  1  0.49118739  0.89478077  0.36860568  1
  V  V54  1  0.00120017  0.63372794  0.63112941  1
  V  V55  1  0.13628906  0.25061350  0.38264195  1
  V  V56  1  0.62283465  0.74085265  0.87095374  1
  V  V57  1  0.12169314  -0.00817840  0.14116918  1
  V  V58  1  0.62403867  0.51435861  0.61867918  1
  V  V59  1  0.74566674  0.00906860  0.75584339  1
  V  V60  1  0.61977926  0.36608640  0.24672344  1
  V  V61  1  0.12297409  0.50079512  0.12541776  1
  V  V62  1  0.25365093  0.25278867  0.00312721  1
  V  V63  1  0.87372963  0.25054305  0.62480439  1
  V  V64  1  0.49977181  0.37012736  0.37152348  1
  V  V65  1  0.87087667  0.75053382  0.12508911  1
  V  V66  1  0.74195568  0.23848550  0.50015238  1
  V  V67  1  -0.00275151  -0.01121624  0.50292180  1
  V  V68  1  0.13101963  0.50199228  0.63088731  1
  V  V69  1  0.00091341  -0.00510260  0.00137112  1
  V  V70  1  0.37977056  0.89251006  0.49967542  1
  V  V71  1  0.87496368  0.63462109  0.75076801  1
  V  V72  1  0.50347171  0.12170550  0.61096785  1
  V  V73  1  0.24878415  0.50195884  0.24869821  1
  V  V74  1  0.61933493  0.49929959  0.11595997  1
  V  V75  1  0.74857222  0.49689058  0.24829406  1
  V  V76  1  0.49021230  0.75602318  0.73947723  1
  V  V77  1  0.75871272  0.87635095  0.62332322  1
  V  V78  1  0.24318402  0.87350632  0.13866894  1
  V  V79  1  0.74932121  0.37225295  0.11933954  1
  V  V80  1  0.38727386  0.25526803  0.13733220  1
  V  V81  1  0.12377475  0.12363464  0.00203877  1
  V  V82  1  0.75053570  0.23231592  -0.00476993  1
  V  V83  1  0.00199970  0.86919484  0.86722845  1
  V  V84  1  0.46300359  0.08280803  0.10173009  1
  Zn  Zn85  1  0.38320030  0.50463865  0.88136023  1
  Zn  Zn86  1  0.88201876  0.75892684  0.62003005  1
  Zn  Zn87  1  0.62599383  0.61696994  -0.01308291  1
  Zn  Zn88  1  0.11861866  0.74376449  0.86570336  1
  Zn  Zn89  1  0.25449759  -0.00796707  0.77032789  1
  Zn  Zn90  1  0.87232953  0.87288293  -0.00083614  1
  Zn  Zn91  1  0.13530245  0.12904098  0.50377484  1
  Zn  Zn92  1  0.87282884  0.37335709  -0.00327865  1
  Zn  Zn93  1  0.73842277  0.10891766  0.37377464  1
  Zn  Zn94  1  0.36951814  0.24427316  0.61999999  1
  Zn  Zn95  1  0.37350426  0.37161803  0.49682133  1
  Zn  Zn96  1  0.37030367  0.62251293  0.73825246  1
  Zn  Zn97  1  0.12838186  0.86728455  0.74501669  1
  Zn  Zn98  1  -0.00137109  0.87386252  0.37800812  1
  Zn  Zn99  1  0.26004767  0.12247363  0.88049753  1
  Zn  Zn100  1  0.75063980  0.87562419  0.12679888  1
  Zn  Zn101  1  0.49383190  0.64136940  0.61065178  1
  Zn  Zn102  1  0.86928399  0.11330665  0.25428532  1
  Zn  Zn103  1  0.26198887  0.86956345  0.63074638  1
  Zn  Zn104  1  0.12533628  0.62500137  -0.00189413  1
  Zn  Zn105  1  0.74798648  0.74445475  0.49941539  1
  Zn  Zn106  1  0.38318347  0.37908391  0.00412239  1
  Zn  Zn107  1  0.18882881  0.18524217  0.19180765  1
  Zn  Zn108  1  0.18963351  0.18684177  0.69192533  1
  Zn  Zn109  1  0.18587649  0.68892762  0.18606655  1
  Zn  Zn110  1  0.18807731  0.69201569  0.69126500  1
  Zn  Zn111  1  0.69182783  0.18479190  0.19199376  1
  Zn  Zn112  1  0.68444761  0.18583347  0.68614649  1
  Zn  Zn113  1  0.68572111  0.68581999  0.18701257  1
  Zn  Zn114  1  0.68467168  0.69250595  0.68864333  1
  Zn  Zn115  1  0.31360901  0.31262977  0.31014977  1
  Zn  Zn116  1  0.31749720  0.30877854  0.81215235  1
  Zn  Zn117  1  0.31663797  0.81065200  0.31208632  1
  Zn  Zn118  1  0.31304157  0.81553432  0.81434120  1
  Zn  Zn119  1  0.80609235  0.30110600  0.31023257  1
  Zn  Zn120  1  0.81032579  0.31699760  0.81243885  1
  Zn  Zn121  1  0.81514578  0.81065946  0.31789248  1
  Zn  Zn122  1  0.80951084  0.81758330  0.81402158  1
  Zn  Zn123  1  0.18597586  0.43925946  0.43865959  1
  Zn  Zn124  1  0.19006712  0.44031862  0.93974617  1
  Zn  Zn125  1  0.18758575  0.93616125  0.44657944  1
  Zn  Zn126  1  0.18686876  0.93787420  0.94104481  1
  Zn  Zn127  1  0.68587433  0.43444244  0.43612473  1
  Zn  Zn128  1  0.68589938  0.43172974  0.93409253  1
  Zn  Zn129  1  0.67494940  0.90083627  0.44754403  1
  Zn  Zn130  1  0.68798399  0.93184390  0.93827227  1
  Zn  Zn131  1  0.29638797  0.06113485  0.06706000  1
  Zn  Zn132  1  0.31821173  0.06920758  0.55876850  1
  Zn  Zn133  1  0.31399955  0.56312481  0.05350593  1
  Zn  Zn134  1  0.31557780  0.55898815  0.56257410  1
  Zn  Zn135  1  0.81517624  0.05976309  0.06724094  1
  Zn  Zn136  1  0.81348965  0.05871166  0.56223836  1
  Zn  Zn137  1  0.80869231  0.56436591  0.06082463  1
  Zn  Zn138  1  0.81242054  0.56899073  0.56068086  1
  Zn  Zn139  1  0.43885303  0.43955635  0.18568249  1
  Zn  Zn140  1  0.43597437  0.44569467  0.68957055  1
  Zn  Zn141  1  0.43624306  0.93251866  0.17428052  1
  Zn  Zn142  1  0.44155649  0.93975370  0.68423377  1
  Zn  Zn143  1  0.93480324  0.43435343  0.18811163  1
  Zn  Zn144  1  0.93868925  0.44131575  0.68929159  1
  Zn  Zn145  1  0.93506916  0.93458689  0.19262372  1
  Zn  Zn146  1  0.93853940  0.94462222  0.69130213  1
  Zn  Zn147  1  0.06123075  0.06403349  0.32036462  1
  Zn  Zn148  1  0.06505792  0.06025998  0.81338406  1
  Zn  Zn149  1  0.06031580  0.56584954  0.31455936  1
  Zn  Zn150  1  0.06366444  0.56489816  0.81238935  1
  Zn  Zn151  1  0.55672504  0.06665467  0.29311538  1
  Zn  Zn152  1  0.55647815  0.05954233  0.81307266  1
  Zn  Zn153  1  0.55950353  0.55739475  0.30134963  1
  Zn  Zn154  1  0.53955431  0.55805042  0.80030500  1
  Zn  Zn155  1  0.42922502  0.19107564  0.43629617  1
  Zn  Zn156  1  0.44158656  0.19237286  0.93967889  1
  Zn  Zn157  1  0.44082904  0.68660374  0.43202597  1
  Zn  Zn158  1  0.43541415  0.69941215  0.93172567  1
  Zn  Zn159  1  0.93382629  0.18033846  0.43863342  1
  Zn  Zn160  1  0.93810608  0.18615218  0.94001305  1
  Zn  Zn161  1  0.93262647  0.68998499  0.44125657  1
  Zn  Zn162  1  0.93392637  0.68527621  0.93856778  1
  Zn  Zn163  1  0.06147873  0.31328717  0.06262578  1
  Zn  Zn164  1  0.06462418  0.31323923  0.56345226  1
  Zn  Zn165  1  0.06295611  0.81110087  0.06005097  1
  Zn  Zn166  1  0.07213662  0.81146214  0.56510792  1
  Zn  Zn167  1  0.56976471  0.30028028  0.05971232  1
  Zn  Zn168  1  0.55754818  0.31370280  0.55892173  1
  Zn  Zn169  1  0.56752827  0.81444914  0.06366983  1
  Zn  Zn170  1  0.56724670  0.81909490  0.55799219  1
  O  O171  1  0.12004395  0.11706703  0.12280171  1
  O  O172  1  0.11988702  0.12009646  0.62520260  1
  O  O173  1  0.11559449  0.61746852  0.12463580  1
  O  O174  1  0.12032895  0.61754855  0.62288012  1
  O  O175  1  0.63336810  0.11194803  0.12824951  1
  O  O176  1  0.61339608  0.11773070  0.62635300  1
  O  O177  1  0.61603279  0.61529053  0.12360855  1
  O  O178  1  0.62142553  0.61682069  0.62524718  1
  O  O179  1  0.38310379  0.38172506  0.37044683  1
  O  O180  1  0.39502114  0.37196138  0.87199984  1
  O  O181  1  0.38495950  0.87427893  0.37767479  1
  O  O182  1  0.38733054  0.87221570  0.87954733  1
  O  O183  1  0.87751886  0.37804292  0.37938467  1
  O  O184  1  0.88131189  0.38808959  0.87323817  1
  O  O185  1  0.87990296  0.88418501  0.37885254  1
  O  O186  1  0.88479965  0.88642420  0.87561655  1
  O  O187  1  0.24142343  0.00834210  0.37217366  1
  O  O188  1  0.24558483  0.01034845  0.88249988  1
  O  O189  1  0.25456854  0.50448471  0.36905191  1
  O  O190  1  0.25205633  0.51367658  0.87621815  1
  O  O191  1  0.75970969  -0.00912869  0.38794183  1
  O  O192  1  0.76037162  -0.00417349  0.86954636  1
  O  O193  1  0.75303896  0.50454757  0.36750684  1
  O  O194  1  0.75622378  0.49487171  0.86475634  1
  O  O195  1  0.24358956  0.49531026  0.12929163  1
  O  O196  1  0.23631157  0.49184889  0.62220724  1
  O  O197  1  0.23628712  0.98138804  0.12369830  1
  O  O198  1  0.24155248  1.00541087  0.62110695  1
  O  O199  1  0.74526868  0.49104896  0.12939746  1
  O  O200  1  0.74210609  0.49660377  0.62962761  1
  O  O201  1  0.74528155  0.99419606  0.12783369  1
  O  O202  1  0.74465930  0.99834305  0.63588068  1
  O  O203  1  0.00551486  0.36908165  0.25728088  1
  O  O204  1  0.00895403  0.36990632  0.75451244  1
  O  O205  1  -0.00072548  0.85884412  0.25364351  1
  O  O206  1  0.00137325  0.88260354  0.76531811  1
  O  O207  1  0.50913548  0.38215047  0.25881891  1
  O  O208  1  0.50807055  0.36687583  0.75364999  1
  O  O209  1  0.49958247  0.86751974  0.25242040  1
  O  O210  1  0.50693836  0.87059695  0.75186647  1
  O  O211  1  0.47935183  0.11825543  0.22303187  1
  O  O212  1  0.49238082  0.13108152  0.74412586  1
  O  O213  1  0.49708567  0.63641957  0.23922653  1
  O  O214  1  0.50692563  0.65228767  0.74272210  1
  O  O215  1  0.99717275  0.13301097  0.24868382  1
  O  O216  1  0.99609082  0.13048167  0.74033316  1
  O  O217  1  0.99119412  0.63013319  0.24473159  1
  O  O218  1  0.98894526  0.61673270  0.74093595  1
  O  O219  1  0.36787292  0.25477629  0.01274276  1
  O  O220  1  0.38166419  0.26025073  0.50934308  1
  O  O221  1  0.36128272  0.74627148  0.01006241  1
  O  O222  1  0.36684731  0.75230530  0.49163525  1
  O  O223  1  0.87034662  0.25245022  0.00665985  1
  O  O224  1  0.86759437  0.25397815  0.50570708  1
  O  O225  1  0.86765386  0.74816852  0.00891839  1
  O  O226  1  0.86195745  0.73977152  0.50948773  1
  O  O227  1  0.11800162  0.24654903  0.48799426  1
  O  O228  1  0.13129169  0.24551715  0.99772428  1
  O  O229  1  0.13508224  0.74302768  0.49283958  1
  O  O230  1  0.13390080  0.74587145  0.99525391  1
  O  O231  1  0.63116918  0.25483652  0.49016020  1
  O  O232  1  0.63826569  0.24731884  0.98749326  1
  O  O233  1  0.64698349  0.79360557  0.48650143  1
  O  O234  1  0.63059918  0.74770647  0.98955623  1
  O  O235  1  0.48575103  0.26379670  0.12892179  1
  O  O236  1  0.50700870  0.23959223  0.63505816  1
  O  O237  1  0.49102476  0.74659080  0.12820877  1
  O  O238  1  0.50729449  0.75901247  0.63426352  1
  O  O239  1  0.99754582  0.24481758  0.13372371  1
  O  O240  1  0.99650969  0.24421049  0.63067918  1
  O  O241  1  0.99419978  0.74338774  0.13116984  1
  O  O242  1  1.00178031  0.73718877  0.62031192  1
  O  O243  1  0.00357324  0.25214672  0.36980177  1
  O  O244  1  0.00463894  0.25804456  0.87153777  1
  O  O245  1  0.00785285  0.74720821  0.36962945  1
  O  O246  1  -0.00435019  0.76646097  0.88338703  1
  O  O247  1  0.50608689  0.26132079  0.37752236  1
  O  O248  1  0.51034263  0.25444634  0.86348591  1
  O  O249  1  0.49462143  0.75250412  0.35451811  1
  O  O250  1  0.50644723  0.76313474  0.86349130  1
  O  O251  1  0.25385754  0.12447795  0.47990670  1
  O  O252  1  0.24293005  0.13849962  1.00407007  1
  O  O253  1  0.24762821  0.63186479  0.49379428  1
  O  O254  1  0.24616771  0.63665631  0.99140254  1
  O  O255  1  0.75207993  0.13554866  0.49721123  1
  O  O256  1  0.76025721  0.13383303  0.99847756  1
  O  O257  1  0.74373005  0.61910097  0.48313684  1
  O  O258  1  0.74464410  0.63807091  1.00218112  1
  O  O259  1  0.24774031  0.36413379  0.00635894  1
  O  O260  1  0.24828984  0.37853864  0.51484353  1
  O  O261  1  0.24282968  0.85995700  0.00957828  1
  O  O262  1  0.26584796  0.86542671  0.49774854  1
  O  O263  1  0.75062058  0.36988750  0.01047351  1
  O  O264  1  0.75516826  0.36905806  0.50659269  1
  O  O265  1  0.75346165  0.86009322  0.00403185  1
  O  O266  1  0.76571471  0.89233687  0.52526010  1
  O  O267  1  0.12733323  0.49589625  0.24601327  1
  O  O268  1  0.11960500  0.48932986  0.74239105  1
  O  O269  1  0.11343614  1.00113121  0.23989270  1
  O  O270  1  0.12819174  1.00010475  0.73847617  1
  O  O271  1  0.63077785  0.48813260  0.23698466  1
  O  O272  1  0.62788819  0.49511696  0.74192102  1
  O  O273  1  0.62972103  0.98931381  0.24485875  1
  O  O274  1  0.63208911  0.99776003  0.74788530  1
  O  O275  1  0.36958951  0.01210812  0.23757965  1
  O  O276  1  0.37576938  0.01331059  0.74717315  1
  O  O277  1  0.36959486  0.50670517  0.25378720  1
  O  O278  1  0.41864288  0.51996488  0.77153088  1
  O  O279  1  0.87925904  -0.00389435  0.27141985  1
  O  O280  1  0.86774681  0.00869123  0.75887997  1
  O  O281  1  0.86779130  0.50302951  0.25469908  1
  O  O282  1  0.86476819  0.50569843  0.75569250  1
  O  O283  1  0.11811293  0.36865688  0.37237386  1
  O  O284  1  0.12238536  0.37154079  0.86933641  1
  O  O285  1  0.12291654  0.86168691  0.38285227  1
  O  O286  1  0.10823803  0.87582939  0.87820968  1
  O  O287  1  0.61817060  0.36922513  0.36472112  1
  O  O288  1  0.62040521  0.36524697  0.86241877  1
  O  O289  1  0.60474032  0.87999943  0.35596596  1
  O  O290  1  0.62087998  0.86987046  0.86427070  1
  O  O291  1  0.36604440  0.14091467  0.13350863  1
  O  O292  1  0.38810179  0.12471418  0.63334596  1
  O  O293  1  0.38148862  0.63046248  0.12720510  1
  O  O294  1  0.38314291  0.61852534  0.62551865  1
  O  O295  1  0.88385555  0.13011785  0.13160448  1
  O  O296  1  0.88259997  0.13096911  0.63112058  1
  O  O297  1  0.87785085  0.63302476  0.13200610  1
  O  O298  1  0.88488521  0.62175716  0.63479392  1
  O  O299  1  0.25270099  0.25876179  0.12207816  1
  O  O300  1  0.24745207  0.26618900  0.62821886  1
  O  O301  1  0.25207467  0.75459373  0.11611970  1
  O  O302  1  0.24805748  0.75009090  0.60879998  1
  O  O303  1  0.75382243  0.25542792  0.11562911  1
  O  O304  1  0.75249131  0.25554492  0.61831538  1
  O  O305  1  0.75733082  0.74947871  0.12049249  1
  O  O306  1  0.74733912  0.76898845  0.62886258  1
  O  O307  1  0.23768037  0.25217696  0.37028673  1
  O  O308  1  0.24695659  0.24792956  0.88572120  1
  O  O309  1  0.24459145  0.74408026  0.38050567  1
  O  O310  1  0.24820389  0.74624881  0.88529377  1
  O  O311  1  0.73596328  0.25596565  0.38797676  1
  O  O312  1  0.74434406  0.25576669  0.88344658  1
  O  O313  1  0.75300185  0.72863393  0.36948173  1
  O  O314  1  0.73829818  0.75424256  0.88090907  1
  O  O315  1  0.00347203  0.11509944  0.00890322  1
  O  O316  1  0.00160485  0.11928523  0.51413846  1
  O  O317  1  -0.00034740  0.61597936  0.00712920  1
  O  O318  1  0.00615016  0.61800535  0.50818261  1
  O  O319  1  0.49788292  0.13439499  0.02346293  1
  O  O320  1  0.49534859  0.12820427  0.51296695  1
  O  O321  1  0.50228162  0.63433416  0.00767003  1
  O  O322  1  0.50146227  0.61203903  0.49367937  1
  O  O323  1  0.50141182  0.38700401  0.48686110  1
  O  O324  1  0.50435948  0.36074039  0.98423001  1
  O  O325  1  0.48786504  0.87405721  0.48009407  1
  O  O326  1  0.50210566  0.86983008  0.98963321  1
  O  O327  1  0.99306479  0.37974890  0.49647425  1
  O  O328  1  0.99701735  0.38340744  0.99386166  1
  O  O329  1  1.00279691  0.88667707  0.50619926  1
  O  O330  1  0.99620725  0.88439809  0.99559122  1
  O  O331  1  0.49591441  0.49356034  0.37638961  1
  O  O332  1  0.51878788  0.47909166  0.88418030  1
  O  O333  1  0.49463565  0.99295868  0.36155713  1
  O  O334  1  0.50269801  0.98382769  0.87571171  1
  O  O335  1  0.99399740  0.49274508  0.38173813  1
  O  O336  1  0.99363752  0.49589025  0.88130362  1
  O  O337  1  1.00258079  0.99683913  0.39324283  1
  O  O338  1  0.99509150  0.99370629  0.88446427  1
  O  O339  1  0.00159930  0.00047864  0.11995730  1
  O  O340  1  0.00613356  0.00708768  0.61933683  1
  O  O341  1  0.00087557  0.50344751  0.11980846  1
  O  O342  1  0.01032112  0.50461545  0.62012708  1
  O  O343  1  0.52457206  0.00080683  0.13163476  1
  O  O344  1  0.51119316  0.01337898  0.62653787  1
  O  O345  1  0.50819879  0.51103061  0.12761732  1
  O  O346  1  0.51048564  0.49675833  0.61225348  1
  O  O347  1  0.24198234  0.38262988  0.24609184  1
  O  O348  1  0.24053570  0.37188111  0.74587217  1
  O  O349  1  0.24489993  0.86156588  0.23729376  1
  O  O350  1  0.24972095  0.87873476  0.74564505  1
  O  O351  1  0.74324132  0.37525570  0.23762065  1
  O  O352  1  0.74245156  0.38560863  0.74313510  1
  O  O353  1  0.73388482  0.86525017  0.25335671  1
  O  O354  1  0.74266486  0.88950399  0.74792474  1
  O  O355  1  0.25995000  0.12836213  0.26199792  1
  O  O356  1  0.26816635  0.12698740  0.75111037  1
  O  O357  1  0.25472291  0.62010581  0.25286666  1
  O  O358  1  0.25372252  0.63043563  0.76509704  1
  O  O359  1  0.76227997  0.14759020  0.26816639  1
  O  O360  1  0.75633485  0.11647624  0.74635770  1
  O  O361  1  0.75439656  0.61671293  0.25475217  1
  O  O362  1  0.75520843  0.61409125  0.74260565  1
  O  O363  1  0.36687049  0.12688658  0.36058021  1
  O  O364  1  0.38094629  0.13358818  0.86043979  1
  O  O365  1  0.36918193  0.61869808  0.36558378  1
  O  O366  1  0.36098268  0.62991097  0.87618454  1
  O  O367  1  0.87434043  0.10343308  0.37875566  1
  O  O368  1  0.88432583  0.11302894  0.86826610  1
  O  O369  1  0.87237359  0.61388628  0.36790278  1
  O  O370  1  0.87970529  0.61218564  0.86635092  1
  O  O371  1  0.12803130  0.38091018  0.13260017  1
  O  O372  1  0.13355362  0.38050913  0.63251357  1
  O  O373  1  0.13195927  0.87774331  0.12548167  1
  O  O374  1  0.13288795  0.88763875  0.62424795  1
  O  O375  1  0.62919500  0.37727143  0.12826964  1
  O  O376  1  0.62804052  0.37911036  0.63442113  1
  O  O377  1  0.62765678  0.88279596  0.13688248  1
  O  O378  1  0.63447439  0.88796773  0.63812207  1
  O  O379  1  0.11423536  0.25473714  0.25709314  1
  O  O380  1  0.12029881  0.25735067  0.75742505  1
  O  O381  1  0.11503817  0.73866725  0.26211124  1
  O  O382  1  0.12000501  0.75379564  0.75248558  1
  O  O383  1  0.62620591  0.26146718  0.25561429  1
  O  O384  1  0.62163786  0.25846667  0.75281269  1
  O  O385  1  0.60972652  0.76002826  0.23800533  1
  O  O386  1  0.62132802  0.76286315  0.75545102  1
  O  O387  1  0.37292825  0.24438964  0.23963136  1
  O  O388  1  0.38522640  0.24362049  0.74149426  1
  O  O389  1  0.38249023  0.74439077  0.23741395  1
  O  O390  1  0.38859269  0.75276256  0.74864139  1
  O  O391  1  0.88974132  0.25586798  0.24479693  1
  O  O392  1  0.87972948  0.24813287  0.74527210  1
  O  O393  1  0.88128578  0.74318215  0.24514499  1
  O  O394  1  0.86727657  0.73670815  0.75017142  1
  O  O395  1  0.38239410  0.49304139  0.48844381  1
  O  O396  1  0.37316238  0.49071272  0.99409115  1
  O  O397  1  0.37234491  0.99054170  0.49267451  1
  O  O398  1  0.39870567  1.01423047  1.06005012  1
  O  O399  1  0.87891043  0.49365880  0.49596412  1
  O  O400  1  0.87805459  0.49961100  0.99173374  1
  O  O401  1  0.89079340  1.00199159  0.49546956  1
  O  O402  1  0.88331814  0.99836949  0.99437732  1
  O  O403  1  0.11461610  0.00461264  0.01111394  1
  O  O404  1  0.11571939  0.00541380  0.51072408  1
  O  O405  1  0.11594915  0.50007965  0.00800784  1
  O  O406  1  0.11919344  0.50641794  0.50745410  1
  O  O407  1  0.63475762  -0.00060838  0.01369919  1
  O  O408  1  0.63054513  -0.00736887  0.51016301  1
  O  O409  1  0.63340439  0.49958928  0.01211015  1
  O  O410  1  0.61848937  0.49366717  0.50863463  1
  O  O411  1  0.36708441  0.36788651  0.12835278  1
  O  O412  1  0.35708391  0.38329570  0.63129556  1
  O  O413  1  0.35742815  0.86435221  0.12725009  1
  O  O414  1  0.37924383  0.88175072  0.60512959  1
  O  O415  1  0.86542553  0.36742578  0.12308104  1
  O  O416  1  0.86979696  0.36987581  0.62157333  1
  O  O417  1  0.87417645  0.86069559  0.12611657  1
  O  O418  1  0.86242895  0.87443603  0.64387822  1
  O  O419  1  0.13870201  0.13242725  0.37472219  1
  O  O420  1  0.12067395  0.13444148  0.88437278  1
  O  O421  1  0.13155193  0.62962966  0.38252907  1
  O  O422  1  0.13659619  0.62489106  0.87709404  1
  O  O423  1  0.61810379  0.13650998  0.36485490  1
  O  O424  1  0.62423278  0.13689813  0.86382862  1
  O  O425  1  0.63472450  0.61880876  0.36391323  1
  O  O426  1  0.61233761  0.63791371  0.86920724  1
