# generated using pymatgen
data_V85Zn86O256
_symmetry_space_group_name_H-M   'P 1'
_cell_length_a   16.96088558
_cell_length_b   16.95338205
_cell_length_c   16.97605142
_cell_angle_alpha   90.01074971
_cell_angle_beta   90.00850871
_cell_angle_gamma   89.96323773
_symmetry_Int_Tables_number   1
_chemical_formula_structural   V85Zn86O256
_chemical_formula_sum   'V85 Zn86 O256'
_cell_volume   4881.36691746
_cell_formula_units_Z   1
loop_
 _symmetry_equiv_pos_site_id
 _symmetry_equiv_pos_as_xyz
  1  'x, y, z'
loop_
 _atom_site_type_symbol
 _atom_site_label
 _atom_site_symmetry_multiplicity
 _atom_site_fract_x
 _atom_site_fract_y
 _atom_site_fract_z
 _atom_site_occupancy
  V  V0  1  0.13087073  0.23660831  0.37487968  1
  V  V1  1  0.00285018  0.86474205  0.37033174  1
  V  V2  1  0.24925579  0.00156655  0.75358267  1
  V  V3  1  -0.00393157  0.24476148  0.25091140  1
  V  V4  1  0.38184687  0.37517622  0.50134140  1
  V  V5  1  0.48596590  0.24371009  0.74910020  1
  V  V6  1  0.37135091  0.87562712  0.49453097  1
  V  V7  1  0.62190688  0.12505285  0.00570817  1
  V  V8  1  0.74919705  0.13085252  0.39089603  1
  V  V9  1  0.37301536  0.87664947  -0.00003559  1
  V  V10  1  0.93114491  0.19640850  0.07729893  1
  V  V11  1  0.00305822  0.50542497  -0.00051813  1
  V  V12  1  0.62004231  0.61041334  0.50382912  1
  V  V13  1  0.87212027  0.25353362  0.61581705  1
  V  V14  1  0.75639618  0.37465486  0.12611522  1
  V  V15  1  -0.00176391  0.50480135  0.49743669  1
  V  V16  1  0.74523837  0.37544217  0.61600134  1
  V  V17  1  0.75108608  0.50964326  0.24893128  1
  V  V18  1  0.00042665  0.62480651  0.62510419  1
  V  V19  1  0.25455931  0.49695792  0.24742862  1
  V  V20  1  0.74885234  0.86712142  0.61932503  1
  V  V21  1  0.62040685  0.86578168  0.25140445  1
  V  V22  1  0.36064218  0.24739341  0.12320859  1
  V  V23  1  0.24016744  0.62545248  0.87934355  1
  V  V24  1  0.12639556  0.37148345  0.74728025  1
  V  V25  1  0.24730004  0.87895113  0.12717622  1
  V  V26  1  -0.00338561  0.62189119  0.13019384  1
  V  V27  1  0.62632497  0.37672419  0.24911821  1
  V  V28  1  0.00225433  0.24870458  0.74393917  1
  V  V29  1  0.62042790  0.75687509  0.39263646  1
  V  V30  1  0.12972293  0.24717416  0.88604736  1
  V  V31  1  0.62214660  0.00067807  0.12640191  1
  V  V32  1  0.49631180  0.87747225  0.87715355  1
  V  V33  1  0.38079278  0.12230336  0.25773586  1
  V  V34  1  0.88894632  0.87221817  -0.00364463  1
  V  V35  1  0.87650114  0.12524668  0.74566355  1
  V  V36  1  0.87377025  0.50565959  0.36965535  1
  V  V37  1  0.75048712  0.63478229  0.37992439  1
  V  V38  1  0.24652936  0.50055527  0.74931079  1
  V  V39  1  0.37969686  0.50562539  0.38360273  1
  V  V40  1  0.36643573  0.75416674  0.62311114  1
  V  V41  1  0.87489278  0.74513213  0.13592653  1
  V  V42  1  0.50032484  0.37406522  0.87764220  1
  V  V43  1  0.19049753  0.92390340  0.57842034  1
  V  V44  1  0.75002224  0.00008410  0.74158984  1
  V  V45  1  0.62268375  0.75003870  0.87571697  1
  V  V46  1  0.62542196  0.87660364  0.75167290  1
  V  V47  1  0.62303845  0.62528080  -0.00438778  1
  V  V48  1  0.87112261  0.86750981  0.49841575  1
  V  V49  1  0.74976912  0.87396177  0.12542913  1
  V  V50  1  0.87753295  0.00009239  0.37474073  1
  V  V51  1  0.49440774  0.75270444  0.74840684  1
  V  V52  1  0.37565218  0.75011153  0.12686119  1
  V  V53  1  0.50307160  0.37982649  0.37648342  1
  V  V54  1  0.49992706  0.50098799  -0.00162567  1
  V  V55  1  0.62540426  0.37126753  0.74680307  1
  V  V56  1  0.25600836  0.24030971  0.48913486  1
  V  V57  1  0.00135374  0.37489081  0.37823359  1
  V  V58  1  -0.00305936  0.75052984  0.75877360  1
  V  V59  1  0.37099538  0.49928292  0.87728385  1
  V  V60  1  0.23459529  0.62605603  0.37554130  1
  V  V61  1  0.12402126  0.49779305  0.61487320  1
  V  V62  1  0.75083526  0.75151811  -0.00139447  1
  V  V63  1  0.24280973  0.74657276  0.00203707  1
  V  V64  1  0.74752656  0.49844981  0.74539106  1
  V  V65  1  0.11979889  0.01404197  0.12312330  1
  V  V66  1  0.25267571  0.00744985  0.25702867  1
  V  V67  1  0.37952232  0.62950008  0.25378166  1
  V  V68  1  0.12984953  0.37506217  0.24797513  1
  V  V69  1  0.23358799  0.73874955  0.50077462  1
  V  V70  1  0.74862591  0.24966200  0.00522353  1
  V  V71  1  -0.00020824  0.37458706  0.87574448  1
  V  V72  1  0.74714790  0.00395797  0.25260878  1
  V  V73  1  0.25183522  0.12563783  0.88990838  1
  V  V74  1  0.13125735  0.50412504  0.12131461  1
  V  V75  1  0.50393390  0.24772066  0.23917112  1
  V  V76  1  0.49752440  0.00471204  0.00456859  1
  V  V77  1  0.49080390  0.87925759  0.36796067  1
  V  V78  1  0.87299684  0.50004053  0.87572683  1
  V  V79  1  0.75183543  0.12211486  0.87557991  1
  V  V80  1  0.50031235  0.62950266  0.12866938  1
  V  V81  1  0.37182666  0.62626990  0.74913327  1
  V  V82  1  0.11996288  0.87853208  0.76808749  1
  V  V83  1  0.25814413  0.37247904  0.62067160  1
  V  V84  1  0.36294288  0.37326180  0.00844080  1
  Zn  Zn85  1  0.37804334  0.01025210  0.87043605  1
  Zn  Zn86  1  0.87690664  0.37447626  0.00422026  1
  Zn  Zn87  1  0.88399117  -0.01006447  0.86976516  1
  Zn  Zn88  1  0.49557549  0.00477479  0.49842618  1
  Zn  Zn89  1  0.04995397  0.09773182  0.62572756  1
  Zn  Zn90  1  0.87106396  0.62530796  0.74782920  1
  Zn  Zn91  1  0.00369202  0.00525918  0.00385046  1
  Zn  Zn92  1  0.61383239  0.13154750  0.51333182  1
  Zn  Zn93  1  0.87149635  0.74567456  0.62397873  1
  Zn  Zn94  1  0.62550493  0.50177662  0.12406279  1
  Zn  Zn95  1  0.87376349  0.13013300  0.24904425  1
  Zn  Zn96  1  0.61123714  0.00874033  0.62610785  1
  Zn  Zn97  1  0.63203731  0.25147830  0.37973955  1
  Zn  Zn98  1  0.11650448  0.74796820  0.88474990  1
  Zn  Zn99  1  0.02231805  -0.00069056  0.49359249  1
  Zn  Zn100  1  0.12706762  0.86835249  0.24992396  1
  Zn  Zn101  1  0.74758790  0.62358618  0.87069229  1
  Zn  Zn102  1  0.62438996  0.24951954  0.87618217  1
  Zn  Zn103  1  0.44599315  0.16110695  0.60372163  1
  Zn  Zn104  1  0.86925672  0.37274914  0.49478972  1
  Zn  Zn105  1  0.00866019  0.73830606  0.25557820  1
  Zn  Zn106  1  0.49613174  0.61750490  0.61093058  1
  Zn  Zn107  1  0.18926935  0.18762424  0.19141132  1
  Zn  Zn108  1  0.24312356  0.16711885  0.66720268  1
  Zn  Zn109  1  0.18699817  0.68445653  0.18811543  1
  Zn  Zn110  1  0.18074237  0.68942038  0.68887355  1
  Zn  Zn111  1  0.68824568  0.18795150  0.18790266  1
  Zn  Zn112  1  0.68576584  0.18939767  0.68322061  1
  Zn  Zn113  1  0.68595949  0.68816378  0.18703632  1
  Zn  Zn114  1  0.68390721  0.68705773  0.68571042  1
  Zn  Zn115  1  0.31716252  0.31362515  0.31094375  1
  Zn  Zn116  1  0.30972909  0.31360407  0.81768359  1
  Zn  Zn117  1  0.30619978  0.80783914  0.31248831  1
  Zn  Zn118  1  0.30626682  0.81664639  0.81413596  1
  Zn  Zn119  1  0.81461529  0.31320797  0.31163733  1
  Zn  Zn120  1  0.81289183  0.31144081  0.81340753  1
  Zn  Zn121  1  0.80933014  0.81411086  0.31334216  1
  Zn  Zn122  1  0.81357252  0.81100078  0.81296972  1
  Zn  Zn123  1  0.19028765  0.43431706  0.43457352  1
  Zn  Zn124  1  0.18503128  0.43647334  0.93807685  1
  Zn  Zn125  1  0.19221913  0.93139949  0.41725147  1
  Zn  Zn126  1  0.18574042  0.94108849  0.94310801  1
  Zn  Zn127  1  0.68686990  0.44065568  0.43554444  1
  Zn  Zn128  1  0.68702714  0.43699019  0.93601762  1
  Zn  Zn129  1  0.68389566  0.94677178  0.44322113  1
  Zn  Zn130  1  0.68976268  0.93904311  0.93535879  1
  Zn  Zn131  1  0.31393446  0.06567154  0.06697700  1
  Zn  Zn132  1  0.31319801  0.06111944  0.55360296  1
  Zn  Zn133  1  0.31328032  0.56315159  0.06276167  1
  Zn  Zn134  1  0.31186529  0.56472223  0.56269337  1
  Zn  Zn135  1  0.80965937  0.05467082  0.06017583  1
  Zn  Zn136  1  0.89468731  0.06442954  0.56087288  1
  Zn  Zn137  1  0.81268323  0.56307181  0.06085324  1
  Zn  Zn138  1  0.81049814  0.56163429  0.55940377  1
  Zn  Zn139  1  0.43843315  0.43992158  0.18597390  1
  Zn  Zn140  1  0.44034713  0.43857654  0.68833556  1
  Zn  Zn141  1  0.43734983  0.93924244  0.18691498  1
  Zn  Zn142  1  0.42676291  0.93874982  0.68415433  1
  Zn  Zn143  1  0.93915669  0.43618360  0.19073617  1
  Zn  Zn144  1  0.93446278  0.43528592  0.68644543  1
  Zn  Zn145  1  0.93603617  0.93676864  0.18791673  1
  Zn  Zn146  1  0.93982436  0.93427134  0.68667084  1
  Zn  Zn147  1  0.06257444  0.05931148  0.30746288  1
  Zn  Zn148  1  0.06863194  0.06281459  0.81289462  1
  Zn  Zn149  1  0.06192083  0.55970434  0.30714479  1
  Zn  Zn150  1  0.06093554  0.56206496  0.80861850  1
  Zn  Zn151  1  0.56315385  0.06151232  0.31693131  1
  Zn  Zn152  1  0.56530883  0.06538892  0.81344293  1
  Zn  Zn153  1  0.56466124  0.56598131  0.31471926  1
  Zn  Zn154  1  0.54773997  0.55016432  0.78357180  1
  Zn  Zn155  1  0.44372422  0.19532647  0.42916642  1
  Zn  Zn156  1  0.43430839  0.19005038  0.93890473  1
  Zn  Zn157  1  0.43993665  0.69728887  0.43580665  1
  Zn  Zn158  1  0.43162255  0.68830899  0.93669396  1
  Zn  Zn159  1  0.94456542  0.18439428  0.43639295  1
  Zn  Zn160  1  0.96550548  0.15212511  0.90688177  1
  Zn  Zn161  1  0.93590348  0.68539549  0.43951830  1
  Zn  Zn162  1  0.93515530  0.68222447  0.94030962  1
  Zn  Zn163  1  0.06865323  0.32405265  0.06277156  1
  Zn  Zn164  1  0.09516550  0.26488328  0.58496924  1
  Zn  Zn165  1  0.06536696  0.80941333  0.07344022  1
  Zn  Zn166  1  0.04970061  0.80805220  0.55985624  1
  Zn  Zn167  1  0.56374885  0.31519356  0.06350420  1
  Zn  Zn168  1  0.56481435  0.31037758  0.56356286  1
  Zn  Zn169  1  0.56137330  0.81315021  0.06403961  1
  Zn  Zn170  1  0.54795397  0.83762145  0.57294508  1
  O  O171  1  0.12775091  0.11266158  0.13016253  1
  O  O172  1  0.13509235  0.16462047  0.62723497  1
  O  O173  1  0.11662735  0.61043954  0.12708596  1
  O  O174  1  0.11110086  0.61047485  0.63228365  1
  O  O175  1  0.63071026  0.11882343  0.11217387  1
  O  O176  1  0.61736070  0.12269789  0.63007416  1
  O  O177  1  0.61739242  0.62745041  0.11380969  1
  O  O178  1  0.62361226  0.63273400  0.60533102  1
  O  O179  1  0.38320703  0.38642822  0.37882210  1
  O  O180  1  0.38011807  0.37957688  0.88510660  1
  O  O181  1  0.37938573  0.86502193  0.37942149  1
  O  O182  1  0.38195827  0.87532068  0.88377333  1
  O  O183  1  0.88229722  0.38322035  0.37541636  1
  O  O184  1  0.88197213  0.38387813  0.87699738  1
  O  O185  1  0.88020829  0.87936041  0.37836872  1
  O  O186  1  0.87311370  0.87330206  0.89195452  1
  O  O187  1  0.25382199  0.00076831  0.35654572  1
  O  O188  1  0.24752889  0.01104857  0.87444738  1
  O  O189  1  0.26011990  0.50787009  0.36892859  1
  O  O190  1  0.25072365  0.50642071  0.87115514  1
  O  O191  1  0.75550538  0.00754487  0.36751658  1
  O  O192  1  0.75653901  0.00796406  0.86887844  1
  O  O193  1  0.75543131  0.50894914  0.36802591  1
  O  O194  1  0.75920842  0.49961883  0.87086796  1
  O  O195  1  0.24399316  0.50668471  0.13464025  1
  O  O196  1  0.24125243  0.49462468  0.62765822  1
  O  O197  1  0.24399019  0.99477131  0.13057947  1
  O  O198  1  0.24573952  0.99028912  0.63324131  1
  O  O199  1  0.74816218  0.49673760  0.13296254  1
  O  O200  1  0.75621841  0.49021469  0.63541316  1
  O  O201  1  0.74326748  0.99157378  0.13146974  1
  O  O202  1  0.74893227  0.98780913  0.64005698  1
  O  O203  1  0.00801432  0.36972557  0.25906015  1
  O  O204  1  0.00661504  0.37180625  0.75668032  1
  O  O205  1  -0.00334979  0.87220098  0.26290193  1
  O  O206  1  0.00982759  0.86601320  0.74878393  1
  O  O207  1  0.51266988  0.37401933  0.25077646  1
  O  O208  1  0.50711594  0.36840989  0.75976162  1
  O  O209  1  0.50822594  0.87825203  0.25325737  1
  O  O210  1  0.50100116  0.86743502  0.76046988  1
  O  O211  1  0.49188558  0.13258441  0.25282118  1
  O  O212  1  0.50019035  0.14429668  0.76398425  1
  O  O213  1  0.49320365  0.62132505  0.24062194  1
  O  O214  1  0.48577886  0.64920315  0.77374978  1
  O  O215  1  0.99916329  0.14014838  0.25234920  1
  O  O216  1  0.99400558  0.13318647  0.74528994  1
  O  O217  1  0.99673648  0.62032204  0.23578654  1
  O  O218  1  0.99614315  0.63032748  0.74198230  1
  O  O219  1  0.37972229  0.25765887  0.01601622  1
  O  O220  1  0.36943226  0.26465324  0.49034977  1
  O  O221  1  0.36505705  0.75637592  0.00689618  1
  O  O222  1  0.36236050  0.75452171  0.50568846  1
  O  O223  1  0.87163492  0.25007174  0.01002258  1
  O  O224  1  0.88289106  0.25276713  0.51321333  1
  O  O225  1  0.86849614  0.75664660  0.00542636  1
  O  O226  1  0.87719822  0.76250140  0.50241236  1
  O  O227  1  0.14294425  0.26622241  0.48222974  1
  O  O228  1  0.12267642  0.26136685  0.98400323  1
  O  O229  1  0.13512082  0.74999375  0.50548990  1
  O  O230  1  0.13803411  0.75334821  1.00244675  1
  O  O231  1  0.61385083  0.24392412  0.49074297  1
  O  O232  1  0.63144313  0.24235123  0.99954514  1
  O  O233  1  0.61960942  0.75857526  0.49213152  1
  O  O234  1  0.63147757  0.74589607  0.99652607  1
  O  O235  1  0.49820360  0.25466473  0.13661099  1
  O  O236  1  0.49665472  0.25574901  0.64368216  1
  O  O237  1  0.49248759  0.73768141  0.11825750  1
  O  O238  1  0.48839308  0.75036851  0.63617181  1
  O  O239  1  0.99708469  0.25778593  0.13105793  1
  O  O240  1  0.99131649  0.26217027  0.63895148  1
  O  O241  1  0.99107126  0.73865384  0.12504620  1
  O  O242  1  0.99792869  0.73894571  0.63467851  1
  O  O243  1  0.00806307  0.25865286  0.36939326  1
  O  O244  1  0.01115654  0.25105784  0.86432273  1
  O  O245  1  -0.00778443  0.76065928  0.37253762  1
  O  O246  1  0.00029943  0.73854910  0.86361019  1
  O  O247  1  0.49889739  0.26809661  0.35757107  1
  O  O248  1  0.49953713  0.26234575  0.87234463  1
  O  O249  1  0.51138855  0.76196420  0.36999619  1
  O  O250  1  0.50189247  0.76395502  0.87685661  1
  O  O251  1  0.25568294  0.14084031  0.49291843  1
  O  O252  1  0.24783982  0.12197585  0.98877541  1
  O  O253  1  0.24876497  0.63149913  0.49122461  1
  O  O254  1  0.25551110  0.63418975  0.99194475  1
  O  O255  1  0.75436031  0.12399638  0.48733107  1
  O  O256  1  0.74634298  0.12953779  0.99481547  1
  O  O257  1  0.73616219  0.62086846  0.49003886  1
  O  O258  1  0.74137842  0.63574223  0.99953237  1
  O  O259  1  0.26401088  0.38046533  -0.00088894  1
  O  O260  1  0.26476689  0.37886267  0.50385281  1
  O  O261  1  0.25510570  0.87006146  0.00729204  1
  O  O262  1  0.24596649  0.86587153  0.50358131  1
  O  O263  1  0.75124634  0.36721517  0.00757024  1
  O  O264  1  0.74886309  0.38146219  0.51173542  1
  O  O265  1  0.75261077  0.86410982  0.00440210  1
  O  O266  1  0.75491074  0.87900808  0.51010931  1
  O  O267  1  0.13507339  0.49452321  0.24357738  1
  O  O268  1  0.12679644  0.48831989  0.74134177  1
  O  O269  1  0.13736414  0.99725625  0.24172651  1
  O  O270  1  0.12485249  0.98543363  0.75134293  1
  O  O271  1  0.63335247  0.49413903  0.24879232  1
  O  O272  1  0.64157486  0.48536778  0.76324001  1
  O  O273  1  0.63002358  0.99345669  0.24481011  1
  O  O274  1  0.63232662  0.99301298  0.75320767  1
  O  O275  1  0.36903273  0.01546137  0.24003571  1
  O  O276  1  0.35662329  -0.01596812  0.75808398  1
  O  O277  1  0.37074978  0.50864403  0.25635900  1
  O  O278  1  0.36187502  0.50287822  0.75992395  1
  O  O279  1  0.86629649  -0.00060773  0.25882942  1
  O  O280  1  0.86961991  0.00797936  0.75156577  1
  O  O281  1  0.86642512  0.49653160  0.26143065  1
  O  O282  1  0.86482373  0.49835953  0.75811978  1
  O  O283  1  0.11831414  0.37722308  0.36206077  1
  O  O284  1  0.12118174  0.36882285  0.86749560  1
  O  O285  1  0.10700037  0.87488202  0.37066450  1
  O  O286  1  0.11986878  0.87312674  0.87054288  1
  O  O287  1  0.62038298  0.37648564  0.36601549  1
  O  O288  1  0.61537093  0.37239426  0.87194787  1
  O  O289  1  0.62022241  0.87144815  0.36885222  1
  O  O290  1  0.61686207  0.87052751  0.87179556  1
  O  O291  1  0.37445243  0.14146873  0.13139245  1
  O  O292  1  0.34777410  0.12402381  0.63837203  1
  O  O293  1  0.38241257  0.62818790  0.13286774  1
  O  O294  1  0.37590048  0.63498821  0.63089236  1
  O  O295  1  0.87252095  0.12827902  0.12741582  1
  O  O296  1  0.86251469  0.13829665  0.63959032  1
  O  O297  1  0.88232358  0.63363162  0.11887536  1
  O  O298  1  0.88645432  0.62278530  0.62433339  1
  O  O299  1  0.26190429  0.25429463  0.13080791  1
  O  O300  1  0.25427272  0.26926995  0.60878971  1
  O  O301  1  0.25594387  0.75610230  0.11949829  1
  O  O302  1  0.25255686  0.73824783  0.61182637  1
  O  O303  1  0.74575590  0.25805297  0.11417503  1
  O  O304  1  0.76081185  0.26418753  0.63401000  1
  O  O305  1  0.75580110  0.75318705  0.11816570  1
  O  O306  1  0.75377462  0.76329771  0.63455822  1
  O  O307  1  0.24290461  0.25759782  0.37692928  1
  O  O308  1  0.23822530  0.24006284  0.87090351  1
  O  O309  1  0.25048258  0.73910721  0.38920271  1
  O  O310  1  0.24727351  0.74261001  0.88471985  1
  O  O311  1  0.75323918  0.23481711  0.36941314  1
  O  O312  1  0.75043740  0.24485799  0.88986621  1
  O  O313  1  0.74078386  0.74001785  0.37019186  1
  O  O314  1  0.74252504  0.74709318  0.88260441  1
  O  O315  1  -0.01001335  0.13891542  0.01921515  1
  O  O316  1  -0.00853258  0.11337706  0.50915371  1
  O  O317  1  -0.00214519  0.61200180  0.00944061  1
  O  O318  1  -0.00063138  0.61279239  0.50525989  1
  O  O319  1  0.50987087  0.11648722  -0.00928603  1
  O  O320  1  0.48544158  0.12296862  0.50450602  1
  O  O321  1  0.50438007  0.62117105  0.00359626  1
  O  O322  1  0.51388811  0.63012026  0.49588489  1
  O  O323  1  0.49122723  0.37476887  0.49063384  1
  O  O324  1  0.49624644  0.38207808  0.99411935  1
  O  O325  1  0.48291651  0.86636460  0.48409250  1
  O  O326  1  0.49539783  0.88263334  0.99480477  1
  O  O327  1  0.99963046  0.38827622  0.48340109  1
  O  O328  1  0.99697719  0.38620867  0.99425970  1
  O  O329  1  0.99205298  0.87778111  0.48692443  1
  O  O330  1  0.98983806  0.87061801  1.00530955  1
  O  O331  1  0.49295156  0.48943752  0.36635866  1
  O  O332  1  0.49235592  0.49031297  0.87594245  1
  O  O333  1  0.50066767  0.98401518  0.37564753  1
  O  O334  1  0.49970306  0.99147437  0.88262430  1
  O  O335  1  0.99261510  0.49834542  0.37757851  1
  O  O336  1  0.99498267  0.49731278  0.88145852  1
  O  O337  1  0.99337227  0.99102097  0.37379529  1
  O  O338  1  0.99054887  1.03375801  0.89059875  1
  O  O339  1  0.01534644  -0.00368442  0.12805657  1
  O  O340  1  -0.01193623  0.00512778  0.61380699  1
  O  O341  1  0.00460298  0.50291709  0.11880416  1
  O  O342  1  0.00399584  0.50068037  0.61563094  1
  O  O343  1  0.50617106  -0.00383861  0.11149255  1
  O  O344  1  0.50506026  -0.03848830  0.61090970  1
  O  O345  1  0.50207804  0.51299195  0.11795688  1
  O  O346  1  0.50473850  0.52739096  0.67705028  1
  O  O347  1  0.24586025  0.38906664  0.25557120  1
  O  O348  1  0.24519674  0.37944079  0.74217031  1
  O  O349  1  0.25366473  0.88657797  0.24294284  1
  O  O350  1  0.22978468  0.88208629  0.75700213  1
  O  O351  1  0.74229269  0.38253000  0.24564251  1
  O  O352  1  0.74342649  0.37889098  0.74525918  1
  O  O353  1  0.74233549  0.88585062  0.24690221  1
  O  O354  1  0.74553197  0.88213215  0.75047120  1
  O  O355  1  0.26195691  0.11449911  0.24452983  1
  O  O356  1  0.23636647  0.10542468  0.76535641  1
  O  O357  1  0.25833518  0.61576076  0.25716257  1
  O  O358  1  0.25309644  0.62088553  0.75615371  1
  O  O359  1  0.75123430  0.11224561  0.24876303  1
  O  O360  1  0.75367663  0.11850749  0.75776105  1
  O  O361  1  0.74126852  0.61446238  0.25791702  1
  O  O362  1  0.74865802  0.61475580  0.75005821  1
  O  O363  1  0.37508152  0.13345232  0.35533559  1
  O  O364  1  0.35734649  0.12788866  0.87852982  1
  O  O365  1  0.37448001  0.62144218  0.36877450  1
  O  O366  1  0.36210408  0.61945220  0.87060419  1
  O  O367  1  0.86676093  0.11690955  0.37138320  1
  O  O368  1  0.86189919  0.13180938  0.86033226  1
  O  O369  1  0.86333909  0.61846498  0.37970829  1
  O  O370  1  0.87120251  0.61119956  0.87356393  1
  O  O371  1  0.12244455  0.38770163  0.13987014  1
  O  O372  1  0.13407349  0.37736138  0.63151675  1
  O  O373  1  0.13836845  0.88219933  0.12700755  1
  O  O374  1  0.12321305  0.87080307  0.63159875  1
  O  O375  1  0.63601407  0.37950616  0.13175774  1
  O  O376  1  0.63201450  0.37348836  0.63560032  1
  O  O377  1  0.62999482  0.87827185  0.13234430  1
  O  O378  1  0.63563060  0.87303929  0.63774941  1
  O  O379  1  0.12146693  0.25858247  0.25496868  1
  O  O380  1  0.11833409  0.26478623  0.75856283  1
  O  O381  1  0.12106335  0.75452272  0.24179132  1
  O  O382  1  0.11773308  0.76160518  0.75557233  1
  O  O383  1  0.62078763  0.25855627  0.25207935  1
  O  O384  1  0.62070562  0.26159287  0.75713373  1
  O  O385  1  0.63088180  0.76349284  0.25502718  1
  O  O386  1  0.61367165  0.75446102  0.75664110  1
  O  O387  1  0.38195382  0.24506121  0.23971542  1
  O  O388  1  0.38716249  0.25731267  0.75581749  1
  O  O389  1  0.36775654  0.73569750  0.24366028  1
  O  O390  1  0.37425320  0.75093327  0.74275377  1
  O  O391  1  0.88754387  0.25096415  0.24987544  1
  O  O392  1  0.88423120  0.24584729  0.74609958  1
  O  O393  1  0.87409882  0.75329479  0.23745060  1
  O  O394  1  0.88299124  0.74715047  0.74796488  1
  O  O395  1  0.37481169  0.49945010  0.48796698  1
  O  O396  1  0.38144555  0.49437884  0.99657539  1
  O  O397  1  0.36824712  0.97954428  0.49926610  1
  O  O398  1  0.38317372  0.99703214  0.99886891  1
  O  O399  1  0.88191788  0.49752173  0.48817828  1
  O  O400  1  0.88129777  0.49749980  0.99228582  1
  O  O401  1  0.86952028  0.98616661  0.48210167  1
  O  O402  1  0.87871852  0.98241476  1.00332154  1
  O  O403  1  0.12189707  -0.00086899  0.01781568  1
  O  O404  1  0.13952102  -0.01686485  0.51018275  1
  O  O405  1  0.11637944  0.49319012  0.00969494  1
  O  O406  1  0.11892050  0.49232903  0.50995358  1
  O  O407  1  0.61953338  0.00573672  0.00445549  1
  O  O408  1  0.61640136  0.01139942  0.50421748  1
  O  O409  1  0.61995566  0.50952037  0.00054129  1
  O  O410  1  0.61980053  0.51151682  0.49742123  1
  O  O411  1  0.38146336  0.36424456  0.11949882  1
  O  O412  1  0.37021833  0.38895907  0.61366723  1
  O  O413  1  0.36554649  0.87191968  0.12083094  1
  O  O414  1  0.36714325  0.85974480  0.61493678  1
  O  O415  1  0.86046473  0.38150619  0.12590603  1
  O  O416  1  0.86568966  0.36949474  0.62137666  1
  O  O417  1  0.86896387  0.86666235  0.11619092  1
  O  O418  1  0.86727491  0.87366980  0.61516905  1
  O  O419  1  0.12127395  0.13761226  0.37091833  1
  O  O420  1  0.13098994  0.14059080  0.87622576  1
  O  O421  1  0.13571790  0.61833069  0.37050557  1
  O  O422  1  0.13660097  0.62490721  0.87026422  1
  O  O423  1  0.64166205  0.12495940  0.37314052  1
  O  O424  1  0.63792209  0.12580101  0.88586333  1
  O  O425  1  0.62850231  0.63518896  0.38518643  1
  O  O426  1  0.62242669  0.63103764  0.88698769  1
