# generated using pymatgen
data_V85Zn86O256
_symmetry_space_group_name_H-M   'P 1'
_cell_length_a   16.96343569
_cell_length_b   16.95939312
_cell_length_c   16.95649878
_cell_angle_alpha   90.01516586
_cell_angle_beta   89.98324014
_cell_angle_gamma   90.07720005
_symmetry_Int_Tables_number   1
_chemical_formula_structural   V85Zn86O256
_chemical_formula_sum   'V85 Zn86 O256'
_cell_volume   4878.20310964
_cell_formula_units_Z   1
loop_
 _symmetry_equiv_pos_site_id
 _symmetry_equiv_pos_as_xyz
  1  'x, y, z'
loop_
 _atom_site_type_symbol
 _atom_site_label
 _atom_site_symmetry_multiplicity
 _atom_site_fract_x
 _atom_site_fract_y
 _atom_site_fract_z
 _atom_site_occupancy
  V  V0  1  -0.00049808  0.37785306  0.37274454  1
  V  V1  1  0.62180121  0.13162634  0.49375182  1
  V  V2  1  0.12929286  0.76362775  0.37468221  1
  V  V3  1  0.00447744  0.24891331  0.75124984  1
  V  V4  1  0.01271219  0.37666387  0.87320937  1
  V  V5  1  0.37031122  0.86854570  0.49909827  1
  V  V6  1  0.62747449  0.24881056  0.87943992  1
  V  V7  1  0.24363833  0.49107648  0.75837613  1
  V  V8  1  0.24790726  0.61831342  0.36072780  1
  V  V9  1  0.13831763  0.37957938  0.24096821  1
  V  V10  1  0.87430700  0.52233945  0.37325462  1
  V  V11  1  0.13407598  0.62888869  0.50117730  1
  V  V12  1  0.50642366  0.50766323  -0.00084173  1
  V  V13  1  0.00126916  0.62916120  0.62923000  1
  V  V14  1  0.74695037  0.87637993  0.63112829  1
  V  V15  1  0.25595652  0.25449402  0.00219441  1
  V  V16  1  0.74951372  0.37495842  0.62390584  1
  V  V17  1  0.62418021  0.37559945  0.75223248  1
  V  V18  1  0.12242797  0.49261258  0.63038628  1
  V  V19  1  0.75157291  0.24734444  -0.00184212  1
  V  V20  1  0.49833346  0.25062719  0.75259724  1
  V  V21  1  0.87887357  0.37460756  -0.00135700  1
  V  V22  1  0.87583688  0.75488067  0.62586290  1
  V  V23  1  0.49980746  0.62398764  0.62415339  1
  V  V24  1  0.62684986  0.62459791  0.49223613  1
  V  V25  1  0.24502234  0.86924361  0.62786251  1
  V  V26  1  0.62340257  0.50006739  0.62365652  1
  V  V27  1  0.61505152  0.74466628  0.88478900  1
  V  V28  1  0.12654416  0.25241591  0.37433641  1
  V  V29  1  0.75057327  0.74890875  0.49396374  1
  V  V30  1  0.12125891  -0.00148976  0.62419110  1
  V  V31  1  0.74663180  0.10772917  0.36976736  1
  V  V32  1  0.49535745  0.37471844  0.88479147  1
  V  V33  1  0.24365762  0.87124527  0.11409005  1
  V  V34  1  0.00472078  0.50373498  0.00301060  1
  V  V35  1  0.49801652  0.74660228  0.24869620  1
  V  V36  1  0.40118936  -0.00325421  0.87409939  1
  V  V37  1  0.12517385  0.63800339  -0.00000024  1
  V  V38  1  0.86973034  0.11506387  0.25267869  1
  V  V39  1  0.37248266  0.49738660  0.88263065  1
  V  V40  1  0.24807280  -0.00418305  0.75118449  1
  V  V41  1  0.49918503  0.11916842  0.12030257  1
  V  V42  1  0.49734649  0.12617528  0.62299353  1
  V  V43  1  0.49807006  0.87033702  0.37372772  1
  V  V44  1  0.87719129  0.62645254  0.75258874  1
  V  V45  1  0.62986251  0.50572147  0.12128235  1
  V  V46  1  -0.00041267  0.50319029  0.50133831  1
  V  V47  1  0.87582054  0.25078675  0.12538525  1
  V  V48  1  0.24863730  0.37203102  0.62619162  1
  V  V49  1  0.37909187  0.12425194  0.74971784  1
  V  V50  1  0.75821611  0.87862230  0.12093626  1
  V  V51  1  0.12743436  0.12037523  -0.00166048  1
  V  V52  1  0.63262645  0.87355214  0.25248751  1
  V  V53  1  -0.00164894  0.25303108  0.25301762  1
  V  V54  1  0.00232254  0.12608176  0.12515430  1
  V  V55  1  0.00215574  0.77200212  0.25272147  1
  V  V56  1  0.39056228  0.87939743  -0.00433587  1
  V  V57  1  0.75529354  0.51417125  0.25424463  1
  V  V58  1  0.63007830  0.37446012  0.25671133  1
  V  V59  1  0.87397907  0.25241178  0.62319922  1
  V  V60  1  0.87760646  0.74741005  0.12120258  1
  V  V61  1  0.00154600  0.62546191  0.13812148  1
  V  V62  1  0.87456770  0.37671346  0.49607107  1
  V  V63  1  0.74894216  0.25281704  0.48598913  1
  V  V64  1  0.75156617  0.50249309  0.75065921  1
  V  V65  1  0.24308147  -0.00845168  0.24551668  1
  V  V66  1  0.37439050  -0.00228070  0.37142771  1
  V  V67  1  0.37686265  0.26318119  0.11991353  1
  V  V68  1  0.37213465  0.62300554  0.74959145  1
  V  V69  1  -0.00136137  0.12289450  0.62028357  1
  V  V70  1  0.25110979  0.12632661  0.37330117  1
  V  V71  1  -0.01882681  -0.00348971  -0.00595590  1
  V  V72  1  0.62915907  0.11490246  0.00122888  1
  V  V73  1  0.50617463  0.25076446  0.25422949  1
  V  V74  1  0.37611900  0.12306069  0.24460352  1
  V  V75  1  0.11289798  0.76064158  0.86043961  1
  V  V76  1  0.85841493  0.12589419  0.75863748  1
  V  V77  1  0.36972623  0.74633155  0.62150220  1
  V  V78  1  0.62346351  -0.00258649  0.13269517  1
  V  V79  1  0.25282027  0.12011185  0.87576537  1
  V  V80  1  0.49669978  0.00122285  0.49667802  1
  V  V81  1  0.37373100  0.75076544  0.11756338  1
  V  V82  1  0.24880898  0.63762880  0.87782834  1
  V  V83  1  0.12767005  0.24856624  0.87486998  1
  V  V84  1  0.62461089  -0.00145528  0.62798945  1
  Zn  Zn85  1  0.37491310  0.49167180  0.36687135  1
  Zn  Zn86  1  0.12105947  -0.00653996  0.12395781  1
  Zn  Zn87  1  0.49794141  0.75752146  0.75331830  1
  Zn  Zn88  1  0.49402630  0.49620483  0.49640744  1
  Zn  Zn89  1  0.37122239  0.61880191  0.24160839  1
  Zn  Zn90  1  0.73750957  0.61765080  0.88925738  1
  Zn  Zn91  1  0.75192154  0.37718905  0.12654740  1
  Zn  Zn92  1  0.14266911  0.50985578  0.13728892  1
  Zn  Zn93  1  0.37590790  0.37395013  0.49649482  1
  Zn  Zn94  1  0.74864936  0.74336218  0.00059739  1
  Zn  Zn95  1  0.25009241  0.25073195  0.50018057  1
  Zn  Zn96  1  0.87537707  0.50225943  0.87745270  1
  Zn  Zn97  1  0.62722867  0.74427453  0.37227544  1
  Zn  Zn98  1  0.80549421  -0.02515387  0.83271881  1
  Zn  Zn99  1  0.61670865  0.87230862  0.75830401  1
  Zn  Zn100  1  0.50066752  0.37583124  0.37741572  1
  Zn  Zn101  1  0.02702537  -0.05582642  0.45261350  1
  Zn  Zn102  1  0.85468056  0.91791622  0.46915011  1
  Zn  Zn103  1  -0.03105725  0.86845672  0.86455176  1
  Zn  Zn104  1  0.37393493  0.25270672  0.62457491  1
  Zn  Zn105  1  0.50383009  0.62729177  0.12062393  1
  Zn  Zn106  1  0.12010473  0.11986374  0.49430772  1
  Zn  Zn107  1  0.19035092  0.18963214  0.18691157  1
  Zn  Zn108  1  0.18530920  0.18258598  0.68988360  1
  Zn  Zn109  1  0.18288642  0.69753056  0.18750329  1
  Zn  Zn110  1  0.18758350  0.68405556  0.69178579  1
  Zn  Zn111  1  0.68895509  0.18891226  0.18674441  1
  Zn  Zn112  1  0.68175603  0.19158060  0.68195458  1
  Zn  Zn113  1  0.68839890  0.68869160  0.18557424  1
  Zn  Zn114  1  0.68538067  0.69007832  0.69067115  1
  Zn  Zn115  1  0.31695507  0.31174513  0.30801075  1
  Zn  Zn116  1  0.31182813  0.31224139  0.81545403  1
  Zn  Zn117  1  0.30856105  0.80810861  0.30651665  1
  Zn  Zn118  1  0.31781734  0.81454055  0.81167198  1
  Zn  Zn119  1  0.81435328  0.31588732  0.31135015  1
  Zn  Zn120  1  0.81531376  0.31239418  0.81465424  1
  Zn  Zn121  1  0.81430848  0.80709771  0.30836731  1
  Zn  Zn122  1  0.79870936  0.80090315  0.81195467  1
  Zn  Zn123  1  0.18745651  0.43818077  0.43989524  1
  Zn  Zn124  1  0.20778857  0.45624347  0.97563617  1
  Zn  Zn125  1  0.19715914  0.94007262  0.44197771  1
  Zn  Zn126  1  0.19010642  0.93702400  0.93834036  1
  Zn  Zn127  1  0.68702644  0.44210742  0.43428307  1
  Zn  Zn128  1  0.69015955  0.43577563  0.93845943  1
  Zn  Zn129  1  0.68003291  0.93413561  0.44374556  1
  Zn  Zn130  1  0.67843641  0.92496548  0.94572385  1
  Zn  Zn131  1  0.31506409  0.05729654  0.05895960  1
  Zn  Zn132  1  0.31027426  0.06196242  0.56106946  1
  Zn  Zn133  1  0.31325956  0.56455551  0.06360099  1
  Zn  Zn134  1  0.31105877  0.55470372  0.55982016  1
  Zn  Zn135  1  0.80824342  0.06338037  0.06777064  1
  Zn  Zn136  1  0.80429760  0.06942516  0.57112708  1
  Zn  Zn137  1  0.81867409  0.56315423  0.06837218  1
  Zn  Zn138  1  0.81323163  0.56669331  0.56152230  1
  Zn  Zn139  1  0.44021607  0.44147729  0.19114787  1
  Zn  Zn140  1  0.43509151  0.43793978  0.69018913  1
  Zn  Zn141  1  0.43723803  0.93415883  0.18599440  1
  Zn  Zn142  1  0.43748404  0.93769167  0.68556977  1
  Zn  Zn143  1  0.93956785  0.44142092  0.18736758  1
  Zn  Zn144  1  0.93926180  0.43577150  0.69132785  1
  Zn  Zn145  1  0.93781691  0.94113864  0.18633998  1
  Zn  Zn146  1  0.93266557  0.93719702  0.68848235  1
  Zn  Zn147  1  0.06618400  0.06415225  0.30642852  1
  Zn  Zn148  1  0.03803561  0.03052823  0.79275162  1
  Zn  Zn149  1  0.06632669  0.56210665  0.31659873  1
  Zn  Zn150  1  0.06313323  0.56445852  0.81529736  1
  Zn  Zn151  1  0.56293338  0.06223583  0.31025660  1
  Zn  Zn152  1  0.60876070  0.04146101  0.83442158  1
  Zn  Zn153  1  0.55968322  0.55884408  0.30966389  1
  Zn  Zn154  1  0.56034939  0.56616635  0.81068471  1
  Zn  Zn155  1  0.43177820  0.19385839  0.43661274  1
  Zn  Zn156  1  0.44159712  0.18263673  0.93909920  1
  Zn  Zn157  1  0.43448717  0.68319905  0.43779838  1
  Zn  Zn158  1  0.43530254  0.68775387  0.93898441  1
  Zn  Zn159  1  0.93079289  0.09053321  0.44017081  1
  Zn  Zn160  1  0.93879463  0.18231027  0.93470720  1
  Zn  Zn161  1  0.94017506  0.77726822  0.43950926  1
  Zn  Zn162  1  0.93594833  0.68871196  0.93933573  1
  Zn  Zn163  1  0.06629123  0.31095321  0.06178386  1
  Zn  Zn164  1  0.06235781  0.31167954  0.55973581  1
  Zn  Zn165  1  0.05479705  0.81534899  0.05354830  1
  Zn  Zn166  1  0.06628477  0.80613678  0.57019749  1
  Zn  Zn167  1  0.56436297  0.31660800  0.06828497  1
  Zn  Zn168  1  0.56098667  0.31212596  0.56222997  1
  Zn  Zn169  1  0.56459244  0.81089592  0.06265124  1
  Zn  Zn170  1  0.55911133  0.80952271  0.56457730  1
  O  O171  1  0.11715742  0.12501963  0.12029936  1
  O  O172  1  0.11769014  0.11709413  0.62117461  1
  O  O173  1  0.12113369  0.62762775  0.11632996  1
  O  O174  1  0.12070832  0.61757213  0.62167609  1
  O  O175  1  0.62109516  0.11631901  0.12298034  1
  O  O176  1  0.61793894  0.11948665  0.61475207  1
  O  O177  1  0.62420170  0.61044997  0.12989081  1
  O  O178  1  0.61503412  0.61964122  0.62146872  1
  O  O179  1  0.37959191  0.37191987  0.37586908  1
  O  O180  1  0.38493595  0.38388290  0.86976098  1
  O  O181  1  0.37573548  0.87547957  0.38081568  1
  O  O182  1  0.37547365  0.88137438  0.88736319  1
  O  O183  1  0.88381937  0.37912588  0.38084728  1
  O  O184  1  0.88563545  0.37280779  0.88820556  1
  O  O185  1  0.88034112  0.85765568  0.38133183  1
  O  O186  1  0.85652959  0.88097604  0.86414520  1
  O  O187  1  0.25499433  0.00432898  0.36459194  1
  O  O188  1  0.25529323  0.00400030  0.86617647  1
  O  O189  1  0.24516295  0.51678235  0.37680101  1
  O  O190  1  0.25574314  0.50429950  0.87454372  1
  O  O191  1  0.74714808  0.00896275  0.38028416  1
  O  O192  1  0.71001166  0.00826397  0.87711173  1
  O  O193  1  0.75989341  0.49876279  0.36300509  1
  O  O194  1  0.75408213  0.50013196  0.86568346  1
  O  O195  1  0.23754292  0.48760750  0.08308724  1
  O  O196  1  0.24206626  0.49055234  0.63613916  1
  O  O197  1  0.25085893  0.98874247  0.12948045  1
  O  O198  1  0.24481686  0.99315211  0.63056689  1
  O  O199  1  0.74913188  0.49866757  0.13700371  1
  O  O200  1  0.74513760  0.49331157  0.63137559  1
  O  O201  1  0.74290930  0.98595075  0.12599771  1
  O  O202  1  0.73515878  0.99148000  0.61719916  1
  O  O203  1  0.00353530  0.36842673  0.25441869  1
  O  O204  1  -0.00543530  0.36298128  0.76176525  1
  O  O205  1  0.00708681  0.87050880  0.24508922  1
  O  O206  1  0.00517212  0.92211670  0.77126276  1
  O  O207  1  0.51198811  0.36601026  0.24760034  1
  O  O208  1  0.50640511  0.37151637  0.76005815  1
  O  O209  1  0.50682420  0.86398681  0.25298717  1
  O  O210  1  0.50316462  0.87104003  0.74122417  1
  O  O211  1  0.49842753  0.13105159  0.23914952  1
  O  O212  1  0.48730593  0.12942363  0.74443624  1
  O  O213  1  0.50047822  0.63852110  0.24734292  1
  O  O214  1  0.48889891  0.62096869  0.73619836  1
  O  O215  1  0.99413003  0.13328068  0.24029348  1
  O  O216  1  0.98837425  0.13167058  0.73914626  1
  O  O217  1  1.01230366  0.62773310  0.23900867  1
  O  O218  1  0.99205849  0.61450658  0.73803458  1
  O  O219  1  0.37173761  0.24089588  0.01250013  1
  O  O220  1  0.36710388  0.25199182  0.50732551  1
  O  O221  1  0.37926782  0.76329517  0.00799565  1
  O  O222  1  0.37700262  0.75505162  0.51223870  1
  O  O223  1  0.87074528  0.25381083  0.00358665  1
  O  O224  1  0.86349908  0.26005968  0.51002797  1
  O  O225  1  0.88558974  0.75538292  0.01858618  1
  O  O226  1  0.86305238  0.73822532  0.51804806  1
  O  O227  1  0.12742515  0.25045177  0.48394154  1
  O  O228  1  0.13428113  0.23883381  0.99869370  1
  O  O229  1  0.11759563  0.73955668  0.48549625  1
  O  O230  1  0.11688131  0.74072821  0.98917974  1
  O  O231  1  0.63353905  0.23785460  0.50633456  1
  O  O232  1  0.63340077  0.24700329  0.99860467  1
  O  O233  1  0.63048048  0.74116226  0.50007190  1
  O  O234  1  0.62276488  0.74515663  0.99128799  1
  O  O235  1  0.49191128  0.24288610  0.12899713  1
  O  O236  1  0.50092483  0.24220966  0.63554604  1
  O  O237  1  0.49281945  0.74936215  0.13098542  1
  O  O238  1  0.48912505  0.73876382  0.62521100  1
  O  O239  1  0.99739318  0.24446012  0.13373860  1
  O  O240  1  0.99313494  0.24957371  0.63332735  1
  O  O241  1  1.00171055  0.74749147  0.13539384  1
  O  O242  1  0.99065262  0.73894609  0.62863951  1
  O  O243  1  0.00998712  0.25459949  0.36050301  1
  O  O244  1  0.00587927  0.25404180  0.86945653  1
  O  O245  1  0.01424646  0.74599738  0.35835648  1
  O  O246  1  0.00760781  0.75629851  0.87375490  1
  O  O247  1  0.49742364  0.24539775  0.35648886  1
  O  O248  1  0.50414722  0.25786292  0.87294563  1
  O  O249  1  0.49880648  0.75444976  0.36757096  1
  O  O250  1  0.50848524  0.74028914  0.87146226  1
  O  O251  1  0.24744242  0.12368642  0.48393836  1
  O  O252  1  0.24526372  0.12823557  0.99583163  1
  O  O253  1  0.23633568  0.62321871  0.50020046  1
  O  O254  1  0.23911688  0.62636916  0.98733097  1
  O  O255  1  0.74154011  0.13290347  0.48818178  1
  O  O256  1  0.73989107  0.13524345  1.00757922  1
  O  O257  1  0.73673555  0.63457293  0.51011205  1
  O  O258  1  0.77066409  0.63110263  0.99698294  1
  O  O259  1  0.25173675  0.35180368  -0.01459791  1
  O  O260  1  0.24772501  0.37331898  0.51321093  1
  O  O261  1  0.26271555  0.88120808  0.01178509  1
  O  O262  1  0.26408569  0.87738287  0.51020865  1
  O  O263  1  0.76264383  0.36932795  0.00332520  1
  O  O264  1  0.75229116  0.37059542  0.50338745  1
  O  O265  1  0.74416576  0.86462740  0.01936957  1
  O  O266  1  0.74992302  0.86748193  0.50849115  1
  O  O267  1  0.12372233  0.48456046  0.25026482  1
  O  O268  1  0.13274426  0.50425243  0.74358692  1
  O  O269  1  0.13926170  1.00305017  0.24268889  1
  O  O270  1  0.14225508  1.01128202  0.73804372  1
  O  O271  1  0.63796981  0.49475376  0.24552825  1
  O  O272  1  0.63239476  0.49551708  0.74434989  1
  O  O273  1  0.62167373  0.98976938  0.24135196  1
  O  O274  1  0.61463447  0.99961016  0.72953576  1
  O  O275  1  0.36802366  0.00397701  0.25358959  1
  O  O276  1  0.36941264  0.00644875  0.75626329  1
  O  O277  1  0.37609769  0.50669544  0.25180528  1
  O  O278  1  0.36688263  0.50498366  0.76169694  1
  O  O279  1  0.87673481  0.01621565  0.24623840  1
  O  O280  1  0.86296248  0.02132397  0.74272607  1
  O  O281  1  0.86380101  0.49764617  0.25724139  1
  O  O282  1  0.86624269  0.50411559  0.75070738  1
  O  O283  1  0.12059614  0.37004967  0.36646175  1
  O  O284  1  0.11392437  0.36580278  0.88345208  1
  O  O285  1  0.12853088  0.86438788  0.38619496  1
  O  O286  1  0.13488334  0.85759811  0.87804197  1
  O  O287  1  0.62528372  0.37786374  0.36051161  1
  O  O288  1  0.61900004  0.36562619  0.87208634  1
  O  O289  1  0.61681881  0.87265605  0.36778427  1
  O  O290  1  0.62414752  0.85275574  0.87548212  1
  O  O291  1  0.38478850  0.12236017  0.12815514  1
  O  O292  1  0.37863417  0.12516281  0.63247840  1
  O  O293  1  0.37744391  0.63711521  0.12121160  1
  O  O294  1  0.37684448  0.62913839  0.62669625  1
  O  O295  1  0.88072063  0.13270721  0.13190073  1
  O  O296  1  0.87785129  0.14093536  0.63141794  1
  O  O297  1  0.89118522  0.63360737  0.12864322  1
  O  O298  1  0.88355261  0.62718279  0.63364675  1
  O  O299  1  0.26779692  0.24355095  0.11807905  1
  O  O300  1  0.24296594  0.26329531  0.62996471  1
  O  O301  1  0.25774634  0.76411471  0.12759618  1
  O  O302  1  0.25576726  0.75760754  0.63132830  1
  O  O303  1  0.75748052  0.25345628  0.11506799  1
  O  O304  1  0.75565395  0.25710035  0.61690712  1
  O  O305  1  0.76111163  0.75731403  0.12823049  1
  O  O306  1  0.75202938  0.75838957  0.61815013  1
  O  O307  1  0.24368318  0.24100536  0.37035802  1
  O  O308  1  0.24860216  0.23788898  0.87872622  1
  O  O309  1  0.23453892  0.74276897  0.36880353  1
  O  O310  1  0.24625124  0.73985717  0.86625048  1
  O  O311  1  0.75005885  0.25065809  0.38479515  1
  O  O312  1  0.74181442  0.25792976  0.88877102  1
  O  O313  1  0.74626447  0.75138867  0.39012787  1
  O  O314  1  0.73372136  0.73770832  0.87914382  1
  O  O315  1  0.00718133  0.12952194  0.01395681  1
  O  O316  1  0.00237516  0.14074114  0.51758946  1
  O  O317  1  0.00442816  0.62023334  0.00854494  1
  O  O318  1  0.01114920  0.61486390  0.51684181  1
  O  O319  1  0.51266469  0.13020674  0.01381210  1
  O  O320  1  0.50561446  0.12455109  0.50016985  1
  O  O321  1  0.49851598  0.61066872  -0.00067934  1
  O  O322  1  0.50597808  0.62379418  0.51058282  1
  O  O323  1  0.49909829  0.37561018  0.49701098  1
  O  O324  1  0.50531878  0.38214955  0.98858247  1
  O  O325  1  0.48809509  0.87837423  0.49505984  1
  O  O326  1  0.48898519  0.87911382  1.00641028  1
  O  O327  1  0.99559061  0.38216429  0.49344862  1
  O  O328  1  0.99818095  0.38155879  0.99580695  1
  O  O329  1  0.98882548  0.85931749  0.50820383  1
  O  O330  1  0.99978621  0.89363739  0.98740846  1
  O  O331  1  0.49754115  0.49690608  0.37798722  1
  O  O332  1  0.49495372  0.49336652  0.87911907  1
  O  O333  1  0.49322334  0.99234904  0.37680697  1
  O  O334  1  0.49943674  1.00589826  0.86886052  1
  O  O335  1  0.99347863  0.49809589  0.38113770  1
  O  O336  1  0.99718743  0.49145866  0.88046335  1
  O  O337  1  0.99867597  1.02064886  0.38097974  1
  O  O338  1  0.99756827  1.03028199  0.90033978  1
  O  O339  1  0.00152305  0.00818416  0.11274645  1
  O  O340  1  0.01141954  0.00978763  0.63008233  1
  O  O341  1  0.00657218  0.50971965  0.11900617  1
  O  O342  1  0.00673357  0.50171813  0.62225895  1
  O  O343  1  0.50871798  0.00831664  0.13151557  1
  O  O344  1  0.49989140  0.00928434  0.61279023  1
  O  O345  1  0.51038436  0.49996605  0.11457628  1
  O  O346  1  0.50610704  0.50577812  0.62430924  1
  O  O347  1  0.23599900  0.36754628  0.24759876  1
  O  O348  1  0.25043326  0.38590899  0.74862596  1
  O  O349  1  0.25789772  0.88308272  0.23303245  1
  O  O350  1  0.25969411  0.88580714  0.74011036  1
  O  O351  1  0.74444949  0.38062601  0.24685920  1
  O  O352  1  0.74602984  0.38271687  0.74646183  1
  O  O353  1  0.73707039  0.86656622  0.24222484  1
  O  O354  1  0.73668411  0.87311299  0.73485709  1
  O  O355  1  0.25549824  0.11790842  0.25660988  1
  O  O356  1  0.26276490  0.11902584  0.75410527  1
  O  O357  1  0.24455275  0.62652328  0.25796008  1
  O  O358  1  0.25370077  0.61173514  0.75833420  1
  O  O359  1  0.75306569  0.12796547  0.26184000  1
  O  O360  1  0.75974180  0.13974975  0.74619777  1
  O  O361  1  0.74863136  0.61279928  0.25153358  1
  O  O362  1  0.75782453  0.61144795  0.74537415  1
  O  O363  1  0.36864746  0.11971476  0.36611919  1
  O  O364  1  0.37467880  0.11477110  0.86921004  1
  O  O365  1  0.35272857  0.63358249  0.37368192  1
  O  O366  1  0.36558624  0.61949890  0.87132501  1
  O  O367  1  0.85470331  0.13293749  0.36565955  1
  O  O368  1  0.86993770  0.13421981  0.85846950  1
  O  O369  1  0.88036373  0.61769458  0.38062029  1
  O  O370  1  0.88083530  0.62427734  0.85956855  1
  O  O371  1  0.12063402  0.37420399  0.13956383  1
  O  O372  1  0.12787749  0.38677146  0.62292647  1
  O  O373  1  0.13985053  0.87407383  0.11159633  1
  O  O374  1  0.13775485  0.88098316  0.62265426  1
  O  O375  1  0.62874217  0.38775038  0.13451203  1
  O  O376  1  0.63051465  0.37924249  0.63318279  1
  O  O377  1  0.63112360  0.88018236  0.13247958  1
  O  O378  1  0.62924257  0.88512461  0.61547600  1
  O  O379  1  0.11952641  0.25730496  0.25540400  1
  O  O380  1  0.11138641  0.24180045  0.75712778  1
  O  O381  1  0.11598013  0.75373801  0.26190181  1
  O  O382  1  0.12265906  0.74764623  0.76166635  1
  O  O383  1  0.61740244  0.26090808  0.23940404  1
  O  O384  1  0.61923516  0.25411921  0.76034399  1
  O  O385  1  0.61753492  0.75600382  0.25110913  1
  O  O386  1  0.61862492  0.74857117  0.75956701  1
  O  O387  1  0.38221722  0.24215544  0.23534362  1
  O  O388  1  0.38019571  0.24147832  0.75003579  1
  O  O389  1  0.38157634  0.74848667  0.23660235  1
  O  O390  1  0.37492762  0.74109505  0.73911032  1
  O  O391  1  0.88296995  0.24608294  0.24506021  1
  O  O392  1  0.88215309  0.24738186  0.74282481  1
  O  O393  1  0.89571058  0.75392779  0.24017779  1
  O  O394  1  0.86423722  0.73727314  0.73631783  1
  O  O395  1  0.37471786  0.49486200  0.49106279  1
  O  O396  1  0.38570413  0.50179449  0.98678390  1
  O  O397  1  0.37826186  0.99260450  0.49149939  1
  O  O398  1  0.37787738  0.99013405  0.98766486  1
  O  O399  1  0.87895585  0.49619235  0.49342675  1
  O  O400  1  0.88871821  0.49097302  1.00083764  1
  O  O401  1  0.88036986  1.01561645  0.51040188  1
  O  O402  1  0.88216606  1.00572046  1.00338008  1
  O  O403  1  0.12483379  0.01253347  0.00231312  1
  O  O404  1  0.12439731  -0.00013504  0.51000516  1
  O  O405  1  0.10952074  0.51688521  -0.01151400  1
  O  O406  1  0.11916931  0.50636727  0.50927608  1
  O  O407  1  0.62543242  0.00968523  0.01580334  1
  O  O408  1  0.61511411  0.01199760  0.50403545  1
  O  O409  1  0.62012766  0.49388370  0.00846464  1
  O  O410  1  0.62748922  0.50791807  0.50951376  1
  O  O411  1  0.38425169  0.36066117  0.12337599  1
  O  O412  1  0.36165441  0.37384775  0.62860800  1
  O  O413  1  0.37002777  0.87180319  0.11319768  1
  O  O414  1  0.36726714  0.86639904  0.61733821  1
  O  O415  1  0.88049685  0.36872721  0.11371797  1
  O  O416  1  0.87095168  0.36793781  0.62065426  1
  O  O417  1  0.86147664  0.87152736  0.13416575  1
  O  O418  1  0.86345498  0.86663102  0.63144453  1
  O  O419  1  0.13470329  0.13543484  0.37172326  1
  O  O420  1  0.13361777  0.13236586  0.88541507  1
  O  O421  1  0.13414188  0.63086350  0.38236336  1
  O  O422  1  0.12955931  0.63734411  0.87877799  1
  O  O423  1  0.63539699  0.12298770  0.37974109  1
  O  O424  1  0.61449706  0.14286293  0.88936008  1
  O  O425  1  0.62008101  0.62389725  0.38943972  1
  O  O426  1  0.62419303  0.63391656  0.87148313  1
