# generated using pymatgen
data_V85Zn86O256
_symmetry_space_group_name_H-M   'P 1'
_cell_length_a   16.93277676
_cell_length_b   16.93113589
_cell_length_c   16.93602488
_cell_angle_alpha   89.93651892
_cell_angle_beta   90.02321423
_cell_angle_gamma   89.96453141
_symmetry_Int_Tables_number   1
_chemical_formula_structural   V85Zn86O256
_chemical_formula_sum   'V85 Zn86 O256'
_cell_volume   4855.40404331
_cell_formula_units_Z   1
loop_
 _symmetry_equiv_pos_site_id
 _symmetry_equiv_pos_as_xyz
  1  'x, y, z'
loop_
 _atom_site_type_symbol
 _atom_site_label
 _atom_site_symmetry_multiplicity
 _atom_site_fract_x
 _atom_site_fract_y
 _atom_site_fract_z
 _atom_site_occupancy
  V  V0  1  -0.00045403  0.37527991  0.37487787  1
  V  V1  1  0.49984483  0.62437509  0.11978964  1
  V  V2  1  0.01163559  0.11996501  0.12128338  1
  V  V3  1  0.87426855  0.87483739  0.00240722  1
  V  V4  1  0.12155310  0.62495348  0.49982532  1
  V  V5  1  0.01558073  0.00167007  -0.00050748  1
  V  V6  1  0.37576193  0.25308268  0.12793752  1
  V  V7  1  -0.00476128  0.88222139  0.37028005  1
  V  V8  1  0.12843781  0.12260794  0.50025438  1
  V  V9  1  0.74879816  0.36561948  0.62256305  1
  V  V10  1  0.88385700  0.12829832  0.75041509  1
  V  V11  1  0.62796651  0.37792590  0.25172240  1
  V  V12  1  0.62551459  0.50024782  0.62674338  1
  V  V13  1  0.74331881  0.62590231  0.87200568  1
  V  V14  1  0.88396461  0.25133633  0.62732855  1
  V  V15  1  0.25923061  0.25060419  0.49689685  1
  V  V16  1  0.24461732  0.87802484  0.62591294  1
  V  V17  1  0.87518552  0.12097217  0.25346164  1
  V  V18  1  0.24096415  0.24488962  0.00009572  1
  V  V19  1  0.74537349  0.87484575  0.62494220  1
  V  V20  1  0.49862219  0.86831072  0.37856278  1
  V  V21  1  0.11438159  0.75065034  0.36769791  1
  V  V22  1  0.12136499  0.24006678  0.87726574  1
  V  V23  1  0.10736122  0.65491677  0.01451173  1
  V  V24  1  0.93199250  0.68331968  0.80888607  1
  V  V25  1  0.50248059  0.12807879  0.12457698  1
  V  V26  1  0.12395470  0.37657917  0.25046502  1
  V  V27  1  0.62168732  0.74954266  0.87753612  1
  V  V28  1  0.48684896  0.00078038  -0.00585874  1
  V  V29  1  0.37044014  0.12868037  0.25945647  1
  V  V30  1  0.48577942  0.87915818  0.87686304  1
  V  V31  1  0.62481180  0.74659283  0.36927984  1
  V  V32  1  0.88626724  0.63602145  0.23430845  1
  V  V33  1  0.50398928  0.25184626  0.25293512  1
  V  V34  1  -0.00024264  0.49620808  0.00097296  1
  V  V35  1  0.62403152  -0.00041149  0.12329093  1
  V  V36  1  0.24010722  0.63155813  0.87912351  1
  V  V37  1  0.25775637  0.00397075  0.75532413  1
  V  V38  1  0.62219213  0.87866077  0.75078000  1
  V  V39  1  0.36884558  0.00390670  0.37757648  1
  V  V40  1  0.75606523  0.50301626  0.74754980  1
  V  V41  1  0.49614446  0.12065475  0.62734279  1
  V  V42  1  0.38134193  0.25968635  0.62531422  1
  V  V43  1  0.75162526  -0.00115552  0.25597486  1
  V  V44  1  0.24677116  0.74961877  0.50196743  1
  V  V45  1  -0.00102494  0.24828925  0.24871188  1
  V  V46  1  0.75060757  0.74402307  0.49529595  1
  V  V47  1  0.24885005  0.62492362  0.37391458  1
  V  V48  1  0.74413063  0.25606825  -0.00571569  1
  V  V49  1  0.37425742  0.49672364  0.87565214  1
  V  V50  1  0.37904528  0.62353205  0.24764775  1
  V  V51  1  0.87022798  0.36826526  0.49618083  1
  V  V52  1  0.37351003  0.49361180  0.37862910  1
  V  V53  1  0.75364136  0.87344012  0.12478673  1
  V  V54  1  0.37730813  0.37662268  0.00086987  1
  V  V55  1  -0.00167310  0.49948850  0.50074323  1
  V  V56  1  0.11650279  0.86461679  0.75468930  1
  V  V57  1  0.44591870  0.79582460  0.19660132  1
  V  V58  1  0.24874093  0.37784044  0.12580898  1
  V  V59  1  0.62620123  0.62226015  0.49476360  1
  V  V60  1  0.87620360  0.25392846  0.11768101  1
  V  V61  1  0.12227810  0.50423458  0.12090344  1
  V  V62  1  0.62684385  0.50459331  0.11844817  1
  V  V63  1  0.37295503  0.87410281  0.50061523  1
  V  V64  1  0.87241503  0.51255101  0.37441817  1
  V  V65  1  0.24881083  0.49278597  0.75269966  1
  V  V66  1  0.75029730  0.74566031  0.00307178  1
  V  V67  1  0.12126379  0.88007077  0.23988834  1
  V  V68  1  0.75085942  0.50969386  0.25297363  1
  V  V69  1  -0.00438205  0.62639744  0.62998003  1
  V  V70  1  0.87788606  0.74665822  0.62569690  1
  V  V71  1  0.12265868  0.49780769  0.62690181  1
  V  V72  1  0.87517505  -0.00015347  0.87645989  1
  V  V73  1  0.49554509  0.49419158  0.50184993  1
  V  V74  1  0.63123091  0.12478772  0.50417629  1
  V  V75  1  0.63549131  0.24777594  0.37892574  1
  V  V76  1  0.87542139  0.49623118  0.87759303  1
  V  V77  1  0.74890609  0.00213624  0.74728971  1
  V  V78  1  0.12090490  0.36517706  0.75004803  1
  V  V79  1  0.13062111  0.24337627  0.37441350  1
  V  V80  1  0.50708475  -0.00178319  0.50456293  1
  V  V81  1  -0.00512187  0.36715360  0.87377743  1
  V  V82  1  0.26375576  0.75600164  0.00530597  1
  V  V83  1  0.50885546  0.24670533  0.75764499  1
  V  V84  1  0.87344340  0.88310196  0.49553289  1
  Zn  Zn85  1  0.37630961  0.74521129  0.62707729  1
  Zn  Zn86  1  -0.00161710  0.86161080  0.87168231  1
  Zn  Zn87  1  0.25526111  0.11324029  0.88071820  1
  Zn  Zn88  1  0.37648092  0.62412607  0.75019506  1
  Zn  Zn89  1  0.00249406  0.12515049  0.62521641  1
  Zn  Zn90  1  0.62402330  0.87083398  0.24812807  1
  Zn  Zn91  1  0.49579784  0.62524987  0.62908010  1
  Zn  Zn92  1  0.75718262  0.37844616  0.12467458  1
  Zn  Zn93  1  0.49793827  0.37240532  0.37931016  1
  Zn  Zn94  1  0.75662831  0.12245474  0.38060441  1
  Zn  Zn95  1  0.74651545  0.13173962  0.87213850  1
  Zn  Zn96  1  0.25178042  0.87553945  0.12106736  1
  Zn  Zn97  1  -0.00507586  0.00549915  0.49837451  1
  Zn  Zn98  1  0.62411851  0.12928786  -0.01054930  1
  Zn  Zn99  1  0.50660836  0.36940371  0.88067073  1
  Zn  Zn100  1  0.24281795  0.00522756  0.24685878  1
  Zn  Zn101  1  0.62909650  0.37183362  0.76064383  1
  Zn  Zn102  1  0.24822383  0.50389989  0.24975590  1
  Zn  Zn103  1  0.49586661  0.74702421  0.74848495  1
  Zn  Zn104  1  0.50719910  0.50239330  -0.00370015  1
  Zn  Zn105  1  0.12075997  0.00294528  0.62878004  1
  Zn  Zn106  1  0.25382937  0.37624161  0.62136007  1
  Zn  Zn107  1  0.18840774  0.18872767  0.18862982  1
  Zn  Zn108  1  0.19229814  0.18721483  0.68512055  1
  Zn  Zn109  1  0.18704155  0.69247427  0.18740216  1
  Zn  Zn110  1  0.18833663  0.68377073  0.68869649  1
  Zn  Zn111  1  0.69050466  0.18755930  0.18580671  1
  Zn  Zn112  1  0.68703002  0.18354118  0.68460582  1
  Zn  Zn113  1  0.68972104  0.68483487  0.18656740  1
  Zn  Zn114  1  0.68525190  0.68783346  0.68832866  1
  Zn  Zn115  1  0.31076543  0.31377697  0.31333714  1
  Zn  Zn116  1  0.33001012  0.27787913  0.82850242  1
  Zn  Zn117  1  0.30229422  0.81624874  0.31700343  1
  Zn  Zn118  1  0.30897794  0.81057643  0.80743682  1
  Zn  Zn119  1  0.81282504  0.31380137  0.30839575  1
  Zn  Zn120  1  0.81239756  0.31377215  0.80962512  1
  Zn  Zn121  1  0.81209182  0.80943263  0.31175526  1
  Zn  Zn122  1  0.80864476  0.81775015  0.81615052  1
  Zn  Zn123  1  0.18892928  0.43402669  0.43911586  1
  Zn  Zn124  1  0.18512146  0.43154887  0.93700999  1
  Zn  Zn125  1  0.18479796  0.93685283  0.43259133  1
  Zn  Zn126  1  0.19086780  0.92652427  0.92951402  1
  Zn  Zn127  1  0.68954777  0.43850015  0.43589670  1
  Zn  Zn128  1  0.69184375  0.43262151  0.93920091  1
  Zn  Zn129  1  0.68532207  0.93491095  0.43706886  1
  Zn  Zn130  1  0.68347730  0.94287405  0.93580507  1
  Zn  Zn131  1  0.30639816  0.06731803  0.06428228  1
  Zn  Zn132  1  0.31293933  0.06528731  0.56518381  1
  Zn  Zn133  1  0.30960272  0.56714088  0.06161677  1
  Zn  Zn134  1  0.31135862  0.56140287  0.56409352  1
  Zn  Zn135  1  0.81328033  0.06728876  0.06449793  1
  Zn  Zn136  1  0.81162004  0.06279663  0.56749217  1
  Zn  Zn137  1  0.80889241  0.55941265  0.05896138  1
  Zn  Zn138  1  0.81250878  0.56214637  0.56195131  1
  Zn  Zn139  1  0.43961139  0.44104114  0.19049192  1
  Zn  Zn140  1  0.44018114  0.43422518  0.69166392  1
  Zn  Zn141  1  0.40250682  0.96746915  0.16233256  1
  Zn  Zn142  1  0.43458743  0.93318002  0.68606160  1
  Zn  Zn143  1  0.93827760  0.44056058  0.18793749  1
  Zn  Zn144  1  0.93704403  0.43597335  0.69054856  1
  Zn  Zn145  1  0.93834635  0.93813609  0.18554810  1
  Zn  Zn146  1  0.93833458  0.93884666  0.68339230  1
  Zn  Zn147  1  0.06092700  0.06122049  0.31310253  1
  Zn  Zn148  1  0.06637084  0.05498391  0.81076936  1
  Zn  Zn149  1  0.05931030  0.56333763  0.30948671  1
  Zn  Zn150  1  0.06831341  0.55677020  0.81962176  1
  Zn  Zn151  1  0.56094109  0.06043036  0.31368194  1
  Zn  Zn152  1  0.56286747  0.06283124  0.81063843  1
  Zn  Zn153  1  0.55859266  0.56421547  0.31133418  1
  Zn  Zn154  1  0.56307071  0.55951036  0.81246005  1
  Zn  Zn155  1  0.44343383  0.18887544  0.44075401  1
  Zn  Zn156  1  0.43342500  0.18170186  0.93937506  1
  Zn  Zn157  1  0.43699247  0.68257380  0.44088378  1
  Zn  Zn158  1  0.43629314  0.68397148  0.93212921  1
  Zn  Zn159  1  0.93949067  0.18839875  0.43680369  1
  Zn  Zn160  1  0.93609180  0.18326699  0.93797514  1
  Zn  Zn161  1  0.93657970  0.69019108  0.43804422  1
  Zn  Zn162  1  0.93635607  0.68568803  1.04930257  1
  Zn  Zn163  1  0.05881951  0.31536602  0.06004960  1
  Zn  Zn164  1  0.06507056  0.31112191  0.55962406  1
  Zn  Zn165  1  0.07152759  0.82107764  0.05093502  1
  Zn  Zn166  1  0.05971083  0.81457886  0.56129499  1
  Zn  Zn167  1  0.56554303  0.31728750  0.06484811  1
  Zn  Zn168  1  0.56558379  0.31168323  0.56206550  1
  Zn  Zn169  1  0.56643062  0.81758810  0.05430908  1
  Zn  Zn170  1  0.56358338  0.80859831  0.56328874  1
  O  O171  1  0.11120704  0.12714175  0.13177978  1
  O  O172  1  0.12234444  0.12755889  0.61480706  1
  O  O173  1  0.13823240  0.61002490  0.11815001  1
  O  O174  1  0.11629426  0.61874637  0.62111869  1
  O  O175  1  0.61355925  0.11980855  0.12686141  1
  O  O176  1  0.61289796  0.12876473  0.61415211  1
  O  O177  1  0.61463479  0.61516369  0.13424921  1
  O  O178  1  0.62792711  0.61348236  0.61528368  1
  O  O179  1  0.37587094  0.38952555  0.37009804  1
  O  O180  1  0.37870504  0.37626599  0.88545389  1
  O  O181  1  0.38086028  0.87957356  0.38081316  1
  O  O182  1  0.38803074  0.87135970  0.87008370  1
  O  O183  1  0.87886400  0.38069677  0.38068777  1
  O  O184  1  0.88280535  0.38367439  0.86946142  1
  O  O185  1  0.88292486  0.86611175  0.38313464  1
  O  O186  1  0.87911521  0.88221708  0.88199612  1
  O  O187  1  0.26587455  -0.00478874  0.37157613  1
  O  O188  1  0.24861834  -0.00145462  0.86203342  1
  O  O189  1  0.25525095  0.50660617  0.37552600  1
  O  O190  1  0.25559872  0.50220044  0.87241985  1
  O  O191  1  0.74256092  -0.00094512  0.35942233  1
  O  O192  1  0.76176843  -0.00595411  0.86354729  1
  O  O193  1  0.76109186  0.49810390  0.36659850  1
  O  O194  1  0.75709725  0.50776898  0.87159429  1
  O  O195  1  0.24345728  0.49140069  0.12566170  1
  O  O196  1  0.24130299  0.49736947  0.63393453  1
  O  O197  1  0.28460970  0.98592007  0.13773304  1
  O  O198  1  0.24607194  0.99160293  0.62901034  1
  O  O199  1  0.74417947  0.49880503  0.13218509  1
  O  O200  1  0.74718835  0.49443090  0.63206726  1
  O  O201  1  0.74118426  0.99458365  0.13048327  1
  O  O202  1  0.75567540  0.98898881  0.63841255  1
  O  O203  1  0.00518171  0.36944630  0.25484237  1
  O  O204  1  0.00835681  0.37675965  0.75990253  1
  O  O205  1  0.00875528  0.87746699  0.25492475  1
  O  O206  1  0.01142523  0.87571765  0.74859929  1
  O  O207  1  0.51006470  0.37070774  0.25331073  1
  O  O208  1  0.50559150  0.35933311  0.74968720  1
  O  O209  1  0.49916153  0.86281049  0.25626593  1
  O  O210  1  0.50677299  0.87514871  0.75894338  1
  O  O211  1  0.49471652  0.13255509  0.24432331  1
  O  O212  1  0.50473246  0.13420435  0.73958251  1
  O  O213  1  0.48843863  0.62617842  0.24170314  1
  O  O214  1  0.49805624  0.62678656  0.74911728  1
  O  O215  1  0.99392935  0.12795480  0.24343965  1
  O  O216  1  0.98711842  0.11806253  0.74980956  1
  O  O217  1  0.98514456  0.62249103  0.24583386  1
  O  O218  1  0.99957102  0.62617414  0.75265291  1
  O  O219  1  0.36715085  0.26249096  0.01095489  1
  O  O220  1  0.37162072  0.24865726  0.50888788  1
  O  O221  1  0.36208180  0.74297798  -0.00237223  1
  O  O222  1  0.36282898  0.75562354  0.49758307  1
  O  O223  1  0.86964083  0.24424954  0.01371598  1
  O  O224  1  0.87652479  0.26258905  0.50437000  1
  O  O225  1  0.86557578  0.76506726  0.00187487  1
  O  O226  1  0.86642385  0.75580678  0.50691455  1
  O  O227  1  0.13134539  0.24205415  0.49200622  1
  O  O228  1  0.12931374  0.25437930  0.99270133  1
  O  O229  1  0.12819084  0.74433885  0.49294745  1
  O  O230  1  0.14256994  0.75045233  0.98427365  1
  O  O231  1  0.62167943  0.23957032  0.49044780  1
  O  O232  1  0.64070048  0.24980696  1.00909487  1
  O  O233  1  0.63220357  0.74173016  0.49339191  1
  O  O234  1  0.63555487  0.75575884  0.98563557  1
  O  O235  1  0.49773560  0.24574864  0.13181859  1
  O  O236  1  0.49424985  0.24442897  0.62556811  1
  O  O237  1  0.50931718  0.74538048  0.13034883  1
  O  O238  1  0.49725493  0.74635959  0.62723011  1
  O  O239  1  0.99259281  0.24347006  0.12679814  1
  O  O240  1  0.98709033  0.25115313  0.62214607  1
  O  O241  1  1.03875907  0.71756271  0.08223640  1
  O  O242  1  0.98541936  0.74590266  0.62025869  1
  O  O243  1  0.00748491  0.25707533  0.36809871  1
  O  O244  1  0.00480995  0.25784601  0.88243789  1
  O  O245  1  0.00979158  0.75855311  0.38030656  1
  O  O246  1  -0.01752055  0.74083805  0.87099487  1
  O  O247  1  0.51184333  0.25264866  0.36876583  1
  O  O248  1  0.49969002  0.24646375  0.85999269  1
  O  O249  1  0.50750083  0.76027854  0.38630539  1
  O  O250  1  0.50669780  0.76027523  0.87670285  1
  O  O251  1  0.24347917  0.13932829  0.50486778  1
  O  O252  1  0.24775651  0.13984925  1.00166321  1
  O  O253  1  0.24141554  0.63138451  0.49462270  1
  O  O254  1  0.24005107  0.63417612  0.99510060  1
  O  O255  1  0.73665862  0.11553651  0.49844696  1
  O  O256  1  0.74873403  0.14040839  1.00278908  1
  O  O257  1  0.74243312  0.63371509  0.50232307  1
  O  O258  1  0.75819138  0.63698709  0.98744179  1
  O  O259  1  0.25406561  0.36953026  0.01215246  1
  O  O260  1  0.24312836  0.35741680  0.50476423  1
  O  O261  1  0.25334624  0.86211508  -0.00008086  1
  O  O262  1  0.24952977  0.86803081  0.50456748  1
  O  O263  1  0.75411875  0.36144264  0.00723271  1
  O  O264  1  0.76015261  0.38309462  0.50909791  1
  O  O265  1  0.75501426  0.87054101  0.00476062  1
  O  O266  1  0.75277195  0.86767044  0.50696512  1
  O  O267  1  0.12543565  0.49472390  0.24184674  1
  O  O268  1  0.12957504  0.48985891  0.74675860  1
  O  O269  1  0.12701222  0.98605193  0.25598794  1
  O  O270  1  0.13311663  0.98625086  0.74689664  1
  O  O271  1  0.63278297  0.49614907  0.24876701  1
  O  O272  1  0.63651471  0.49936463  0.74059361  1
  O  O273  1  0.62795191  0.99697051  0.23851997  1
  O  O274  1  0.63387330  0.98635567  0.75118249  1
  O  O275  1  0.38588865  0.01478520  0.26496144  1
  O  O276  1  0.35673409  -0.00706846  0.74511446  1
  O  O277  1  0.37188385  0.50842585  0.25874252  1
  O  O278  1  0.36565890  0.49644866  0.75896761  1
  O  O279  1  0.86487194  0.00869515  0.24263099  1
  O  O280  1  0.86955902  0.00389334  0.75683477  1
  O  O281  1  0.86988253  0.50764204  0.25523273  1
  O  O282  1  0.86335557  0.49731293  0.75851206  1
  O  O283  1  0.12013838  0.36701267  0.36992880  1
  O  O284  1  0.11272217  0.37013677  0.86723200  1
  O  O285  1  0.11587912  0.86792134  0.36769125  1
  O  O286  1  0.11718876  0.87093106  0.86013070  1
  O  O287  1  0.62649241  0.36923223  0.36556513  1
  O  O288  1  0.61834927  0.38497642  0.87308534  1
  O  O289  1  0.61519349  0.86661132  0.37240947  1
  O  O290  1  0.61976552  0.86947927  0.86756852  1
  O  O291  1  0.38632528  0.13421115  0.13289138  1
  O  O292  1  0.39028409  0.13549218  0.61763134  1
  O  O293  1  0.38165047  0.61977837  0.13706077  1
  O  O294  1  0.37481226  0.62563516  0.62958410  1
  O  O295  1  0.88366313  0.13466829  0.13419435  1
  O  O296  1  0.87558308  0.13528840  0.63041517  1
  O  O297  1  0.87518344  0.62569745  0.12828720  1
  O  O298  1  0.88173397  0.63250352  0.62290300  1
  O  O299  1  0.25294816  0.25880154  0.12060613  1
  O  O300  1  0.26720962  0.25131803  0.62150594  1
  O  O301  1  0.24839526  0.75362579  0.11017060  1
  O  O302  1  0.24550619  0.75420807  0.61222064  1
  O  O303  1  0.76304334  0.25187321  0.12061556  1
  O  O304  1  0.75729807  0.26209256  0.62705181  1
  O  O305  1  0.74036847  0.75899093  0.11332030  1
  O  O306  1  0.75842098  0.75346388  0.61898343  1
  O  O307  1  0.24233232  0.25311852  0.38187366  1
  O  O308  1  0.23122551  0.26923580  0.89010186  1
  O  O309  1  0.23780711  0.74608833  0.38550513  1
  O  O310  1  0.25541637  0.73398385  0.87958568  1
  O  O311  1  0.73917974  0.24664673  0.36855366  1
  O  O312  1  0.75807039  0.25201258  0.89100426  1
  O  O313  1  0.74123078  0.75585085  0.38807174  1
  O  O314  1  0.74427041  0.74384473  0.87996217  1
  O  O315  1  -0.00306980  0.10986644  0.00569071  1
  O  O316  1  0.01074497  0.12538332  0.49945590  1
  O  O317  1  0.00866444  0.60676919  -0.01235038  1
  O  O318  1  0.00362361  0.61886219  0.50589452  1
  O  O319  1  0.50344123  0.12349841  0.00746788  1
  O  O320  1  0.50912911  0.11516973  0.50500056  1
  O  O321  1  0.49301032  0.62331818  0.01507861  1
  O  O322  1  0.50917159  0.61313159  0.50334603  1
  O  O323  1  0.50837569  0.38989272  0.49728943  1
  O  O324  1  0.49007254  0.37919891  1.00345507  1
  O  O325  1  0.49630458  0.88047484  0.49590828  1
  O  O326  1  0.50101141  0.88447829  0.98590352  1
  O  O327  1  0.99274855  0.38102959  0.49500243  1
  O  O328  1  1.00033512  0.38537816  0.98819524  1
  O  O329  1  0.98909068  0.87618133  0.49161541  1
  O  O330  1  0.99199328  0.88567094  0.99667480  1
  O  O331  1  0.49095589  0.49989548  0.38272073  1
  O  O332  1  0.48452085  0.50118202  0.87868033  1
  O  O333  1  0.49524579  0.98657259  0.38270702  1
  O  O334  1  0.50143567  0.98794244  0.87949577  1
  O  O335  1  0.99293216  0.49391220  0.37946241  1
  O  O336  1  0.99219727  0.48984801  0.87772594  1
  O  O337  1  1.00068818  0.98667162  0.37923796  1
  O  O338  1  0.98984155  1.00098703  0.88575007  1
  O  O339  1  -0.00371878  0.00540381  0.10845699  1
  O  O340  1  0.00258130  0.00417180  0.61619963  1
  O  O341  1  0.00844454  0.49401263  0.11410730  1
  O  O342  1  0.00233235  0.50537729  0.62144697  1
  O  O343  1  0.50290014  0.00904652  0.11801169  1
  O  O344  1  0.49401385  0.00534267  0.61582680  1
  O  O345  1  0.50885105  0.50786251  0.12485340  1
  O  O346  1  0.50974760  0.49888887  0.62032388  1
  O  O347  1  0.24395575  0.37633432  0.23932838  1
  O  O348  1  0.24081229  0.38563228  0.74991289  1
  O  O349  1  0.23469356  0.87642040  0.24809913  1
  O  O350  1  0.24072852  0.88012273  0.74227943  1
  O  O351  1  0.74487175  0.38727384  0.24729887  1
  O  O352  1  0.74862977  0.38306368  0.73981932  1
  O  O353  1  0.74964674  0.88012711  0.24132153  1
  O  O354  1  0.74391627  0.87967354  0.74350347  1
  O  O355  1  0.26604701  0.12526920  0.24567074  1
  O  O356  1  0.24520034  0.10629833  0.74653035  1
  O  O357  1  0.25892186  0.62703335  0.25645605  1
  O  O358  1  0.24265025  0.61175786  0.76417695  1
  O  O359  1  0.75755681  0.11583266  0.24869991  1
  O  O360  1  0.75916716  0.11591719  0.74694264  1
  O  O361  1  0.76186211  0.61448575  0.24551305  1
  O  O362  1  0.74604726  0.61784697  0.76040222  1
  O  O363  1  0.38372099  0.11836879  0.36999743  1
  O  O364  1  0.35168538  0.16938928  0.86803692  1
  O  O365  1  0.37017067  0.61720200  0.36849060  1
  O  O366  1  0.36027694  0.61187916  0.87686172  1
  O  O367  1  0.87422938  0.13215044  0.35958749  1
  O  O368  1  0.86886310  0.11751897  0.86783502  1
  O  O369  1  0.88046078  0.61555733  0.36840536  1
  O  O370  1  0.86937279  0.61980164  0.86361463  1
  O  O371  1  0.13062051  0.38199053  0.12960713  1
  O  O372  1  0.12367113  0.37905526  0.63359013  1
  O  O373  1  0.12460215  0.87614743  0.13720753  1
  O  O374  1  0.13320274  0.87592182  0.62763474  1
  O  O375  1  0.62698870  0.38501775  0.13886390  1
  O  O376  1  0.63464827  0.38604157  0.62217627  1
  O  O377  1  0.63310825  0.88217562  0.12668691  1
  O  O378  1  0.63837310  0.86721248  0.63216960  1
  O  O379  1  0.12018491  0.25544072  0.25649084  1
  O  O380  1  0.13175890  0.26012234  0.75629190  1
  O  O381  1  0.12612715  0.76155650  0.25815813  1
  O  O382  1  0.12963784  0.76551793  0.74348729  1
  O  O383  1  0.62360730  0.25854609  0.25358734  1
  O  O384  1  0.61282719  0.25183805  0.74091155  1
  O  O385  1  0.63302074  0.74806568  0.26604193  1
  O  O386  1  0.62631905  0.76092158  0.76075086  1
  O  O387  1  0.38237061  0.24728443  0.24819332  1
  O  O388  1  0.39152996  0.25321663  0.73173573  1
  O  O389  1  0.37731955  0.74452879  0.25666597  1
  O  O390  1  0.37492188  0.74398950  0.74659664  1
  O  O391  1  0.88066467  0.24410819  0.24030477  1
  O  O392  1  0.87001000  0.24087873  0.74032095  1
  O  O393  1  0.87134162  0.73381812  0.24948782  1
  O  O394  1  0.87417054  0.74662028  0.74675732  1
  O  O395  1  0.38314140  0.50451534  0.49177631  1
  O  O396  1  0.36989073  0.48845464  0.99501753  1
  O  O397  1  0.38286039  0.99481386  0.49440247  1
  O  O398  1  0.38753535  1.01148258  1.00040445  1
  O  O399  1  0.87906889  0.49353646  0.49145722  1
  O  O400  1  0.88091423  0.50450855  0.98566276  1
  O  O401  1  0.86939660  0.98616651  0.50141944  1
  O  O402  1  0.87253191  0.99149916  0.99284517  1
  O  O403  1  0.11381888  -0.00750773  -0.00743496  1
  O  O404  1  0.12981205  0.01535464  0.49572581  1
  O  O405  1  0.11751946  0.49625595  0.00821689  1
  O  O406  1  0.11873502  0.50441148  0.50533699  1
  O  O407  1  0.61789582  0.00106311  0.01349319  1
  O  O408  1  0.61342533  0.00463907  0.49560821  1
  O  O409  1  0.62822792  0.49810541  0.01515974  1
  O  O410  1  0.62207295  0.50684690  0.50431827  1
  O  O411  1  0.36773742  0.37345997  0.12339431  1
  O  O412  1  0.37701938  0.36375474  0.62206986  1
  O  O413  1  0.39048746  0.85474498  0.13735793  1
  O  O414  1  0.36013438  0.87094587  0.61729042  1
  O  O415  1  0.87848805  0.35798813  0.13131622  1
  O  O416  1  0.86980383  0.37020223  0.61806793  1
  O  O417  1  0.86227161  0.88002686  0.11790994  1
  O  O418  1  0.86486015  0.86632933  0.61944751  1
  O  O419  1  0.12179704  0.13769104  0.37773605  1
  O  O420  1  0.12919484  0.13787908  0.86767490  1
  O  O421  1  0.12680665  0.63195650  0.37716681  1
  O  O422  1  0.13658231  0.61859039  0.88927224  1
  O  O423  1  0.62576770  0.13155933  0.38216900  1
  O  O424  1  0.63565971  0.11234146  0.87775842  1
  O  O425  1  0.61924267  0.63060958  0.38613794  1
  O  O426  1  0.63310807  0.63352628  0.87364660  1
