# generated using pymatgen
data_V85Zn86O256
_symmetry_space_group_name_H-M   'P 1'
_cell_length_a   16.94374097
_cell_length_b   16.94850043
_cell_length_c   16.93875658
_cell_angle_alpha   89.98629978
_cell_angle_beta   90.02079833
_cell_angle_gamma   89.94973024
_symmetry_Int_Tables_number   1
_chemical_formula_structural   V85Zn86O256
_chemical_formula_sum   'V85 Zn86 O256'
_cell_volume   4864.31735190
_cell_formula_units_Z   1
loop_
 _symmetry_equiv_pos_site_id
 _symmetry_equiv_pos_as_xyz
  1  'x, y, z'
loop_
 _atom_site_type_symbol
 _atom_site_label
 _atom_site_symmetry_multiplicity
 _atom_site_fract_x
 _atom_site_fract_y
 _atom_site_fract_z
 _atom_site_occupancy
  V  V0  1  0.37308814  0.12277852  0.75619587  1
  V  V1  1  0.24880834  0.63221631  0.88453875  1
  V  V2  1  0.61841341  0.88535979  0.24055513  1
  V  V3  1  0.11682021  0.62900874  0.50662925  1
  V  V4  1  0.00193661  0.25048721  0.75634168  1
  V  V5  1  0.49978887  -0.00022421  0.49922011  1
  V  V6  1  0.87529553  0.24995235  0.62522099  1
  V  V7  1  0.12650154  0.76123865  0.87654336  1
  V  V8  1  0.25538341  0.86346088  0.11390534  1
  V  V9  1  0.37615236  0.00100166  0.37339466  1
  V  V10  1  0.87001099  0.37038669  -0.00426089  1
  V  V11  1  0.62741593  0.74631814  0.35938839  1
  V  V12  1  0.62581072  -0.00124812  0.62384523  1
  V  V13  1  0.39124582  0.86344046  -0.00234181  1
  V  V14  1  -0.00820721  0.25463693  0.25313759  1
  V  V15  1  0.62682235  0.63583505  0.49778167  1
  V  V16  1  0.77161328  0.49135851  0.26095853  1
  V  V17  1  0.62632094  0.10966297  0.00091207  1
  V  V18  1  0.39180259  -0.00492707  0.88076479  1
  V  V19  1  0.87358688  0.87429059  -0.00084787  1
  V  V20  1  0.25184560  0.00029991  0.25029178  1
  V  V21  1  0.75052222  0.86898184  0.62255350  1
  V  V22  1  0.12009500  0.62899513  0.00655552  1
  V  V23  1  -0.00891281  0.12502380  0.13152479  1
  V  V24  1  0.37505856  0.12914828  0.24255949  1
  V  V25  1  0.12813065  0.00368556  0.12296438  1
  V  V26  1  0.25189112  0.37185996  0.11769884  1
  V  V27  1  0.62281464  0.25310537  0.36652600  1
  V  V28  1  0.87222634  0.00412342  0.87464853  1
  V  V29  1  0.76023132  0.61965761  0.87023571  1
  V  V30  1  0.50031675  0.10318405  0.11884696  1
  V  V31  1  0.12613971  0.37589857  0.75281639  1
  V  V32  1  0.24882375  0.75383194  0.50297191  1
  V  V33  1  0.63327637  0.24601366  0.87841450  1
  V  V34  1  0.37672669  0.63778220  0.24005873  1
  V  V35  1  0.75074140  0.87526232  0.12147366  1
  V  V36  1  0.00908263  0.75217323  0.74104598  1
  V  V37  1  0.50194852  0.24881465  0.74886115  1
  V  V38  1  0.75063308  0.37543949  0.62298633  1
  V  V39  1  0.37084647  0.37637389  0.49999426  1
  V  V40  1  0.49777332  0.25424399  0.23757488  1
  V  V41  1  0.24866580  0.25101443  0.50186319  1
  V  V42  1  0.86915376  0.12633731  0.75292721  1
  V  V43  1  -0.01079999  0.50728460  -0.00035027  1
  V  V44  1  0.74856953  0.24857934  0.49737245  1
  V  V45  1  0.37553161  0.75215396  0.62725311  1
  V  V46  1  0.49792169  0.50045342  0.50004597  1
  V  V47  1  0.50243963  0.37767058  0.87473218  1
  V  V48  1  0.76154584  0.11888751  0.37125098  1
  V  V49  1  0.25027287  0.37637568  0.62632431  1
  V  V50  1  0.76748077  -0.00040503  0.25084691  1
  V  V51  1  0.37409063  0.87683409  0.50063634  1
  V  V52  1  0.50198145  0.75794570  0.75698133  1
  V  V53  1  0.25205717  0.12540771  0.37570501  1
  V  V54  1  0.63220750  0.75317436  0.87620653  1
  V  V55  1  -0.00295414  0.00139514  0.49083485  1
  V  V56  1  0.37559195  0.62746591  0.75287174  1
  V  V57  1  0.24970464  0.50196084  0.75350894  1
  V  V58  1  0.37642967  0.50345078  0.87754793  1
  V  V59  1  0.24621277  0.50114092  0.24626841  1
  V  V60  1  0.62325480  0.49395575  0.14110757  1
  V  V61  1  0.24988119  0.62867192  0.37584962  1
  V  V62  1  0.50398387  0.50448372  0.00345459  1
  V  V63  1  0.88422908  0.37686803  0.49034996  1
  V  V64  1  0.49974723  0.62675879  0.62548540  1
  V  V65  1  0.12442988  0.87595447  0.24934786  1
  V  V66  1  0.36944086  0.50227973  0.37509640  1
  V  V67  1  0.11908481  0.75385763  0.37481715  1
  V  V68  1  0.13878656  0.24870455  0.88441104  1
  V  V69  1  0.62609554  0.50105521  0.62603176  1
  V  V70  1  0.24287934  0.87854879  0.63200525  1
  V  V71  1  0.49965705  0.37473719  0.37032774  1
  V  V72  1  0.12392886  0.25352604  0.37151705  1
  V  V73  1  0.00187149  0.12196278  0.62529708  1
  V  V74  1  0.63447179  0.62676055  0.00091340  1
  V  V75  1  0.24252492  0.00119311  0.76162108  1
  V  V76  1  0.74950179  0.00006469  0.75219731  1
  V  V77  1  0.50128024  0.86758077  0.37238503  1
  V  V78  1  0.76556656  0.62264947  0.37703195  1
  V  V79  1  0.00123291  0.00416894  -0.00183370  1
  V  V80  1  0.87471306  0.74285167  0.62338206  1
  V  V81  1  0.11772952  0.50718132  0.62649303  1
  V  V82  1  0.87116579  0.87625176  0.49415101  1
  V  V83  1  -0.01084207  0.74107746  0.23556763  1
  V  V84  1  0.62371009  0.12407868  0.49607013  1
  Zn  Zn85  1  0.37391674  0.24787139  0.62839615  1
  Zn  Zn86  1  0.62176852  0.87835173  0.75450845  1
  Zn  Zn87  1  -0.01203024  0.88164240  0.36677533  1
  Zn  Zn88  1  -0.00507917  0.38198311  0.87353387  1
  Zn  Zn89  1  0.76440235  0.49585393  0.75236851  1
  Zn  Zn90  1  0.37757621  0.37304032  0.00501824  1
  Zn  Zn91  1  0.49846338  0.12456641  0.62488300  1
  Zn  Zn92  1  -0.00998516  0.50732810  0.48903976  1
  Zn  Zn93  1  0.74483940  0.36661340  0.13476550  1
  Zn  Zn94  1  0.81466877  0.71154856  0.05176308  1
  Zn  Zn95  1  0.62686602  0.37540297  0.75002336  1
  Zn  Zn96  1  0.12118718  -0.00377244  0.63016917  1
  Zn  Zn97  1  0.00415264  0.88108921  0.86609056  1
  Zn  Zn98  1  0.11929018  0.50243619  0.12388029  1
  Zn  Zn99  1  0.12199452  0.37660337  0.24769585  1
  Zn  Zn100  1  0.51039296  0.63692461  0.13278599  1
  Zn  Zn101  1  0.13596172  0.12763141  -0.00227802  1
  Zn  Zn102  1  0.30065253  0.21369575  0.03864122  1
  Zn  Zn103  1  0.88672217  0.61842684  0.74599422  1
  Zn  Zn104  1  0.86819771  0.24571894  0.12758004  1
  Zn  Zn105  1  0.12615769  0.12280196  0.50165485  1
  Zn  Zn106  1  0.74785881  0.24343739  0.00544272  1
  Zn  Zn107  1  0.18344401  0.18789429  0.18624882  1
  Zn  Zn108  1  0.18785312  0.18538037  0.69172379  1
  Zn  Zn109  1  0.18427683  0.68871625  0.18990594  1
  Zn  Zn110  1  0.18837271  0.68932004  0.69256232  1
  Zn  Zn111  1  0.68442390  0.17902002  0.18515068  1
  Zn  Zn112  1  0.68539399  0.18720380  0.68567311  1
  Zn  Zn113  1  0.72037308  0.66967764  0.17958043  1
  Zn  Zn114  1  0.68986771  0.68711451  0.69061415  1
  Zn  Zn115  1  0.31074772  0.31430681  0.30962605  1
  Zn  Zn116  1  0.31720758  0.31372755  0.81772484  1
  Zn  Zn117  1  0.30635972  0.81557193  0.31472128  1
  Zn  Zn118  1  0.31270673  0.81597825  0.81687668  1
  Zn  Zn119  1  0.81079610  0.30946793  0.31295155  1
  Zn  Zn120  1  0.81169130  0.31533952  0.81253829  1
  Zn  Zn121  1  0.80711157  0.80935476  0.31177781  1
  Zn  Zn122  1  0.81544769  0.81074521  0.81015964  1
  Zn  Zn123  1  0.15234140  0.45647098  0.41967581  1
  Zn  Zn124  1  0.18111254  0.44078048  0.93913548  1
  Zn  Zn125  1  0.18316696  0.94034383  0.44044393  1
  Zn  Zn126  1  0.19182509  0.94163637  0.93906490  1
  Zn  Zn127  1  0.68698655  0.43796002  0.43762272  1
  Zn  Zn128  1  0.68854932  0.43903884  0.93870489  1
  Zn  Zn129  1  0.68930722  0.93588644  0.43371802  1
  Zn  Zn130  1  0.68867514  0.93770838  0.93447903  1
  Zn  Zn131  1  0.31935231  0.04740275  0.06471796  1
  Zn  Zn132  1  0.31229721  0.06345477  0.56838395  1
  Zn  Zn133  1  0.31128501  0.56130819  0.06263472  1
  Zn  Zn134  1  0.30636819  0.56443655  0.56378215  1
  Zn  Zn135  1  0.80777601  0.05860963  0.06503221  1
  Zn  Zn136  1  0.81321520  0.06047509  0.56216828  1
  Zn  Zn137  1  0.81062528  0.54683637  0.06885278  1
  Zn  Zn138  1  0.81142627  0.55965348  0.55919061  1
  Zn  Zn139  1  0.43349367  0.44208762  0.18806294  1
  Zn  Zn140  1  0.43716750  0.43749763  0.68909615  1
  Zn  Zn141  1  0.43729200  0.81365857  0.18284357  1
  Zn  Zn142  1  0.43499370  0.93953592  0.68825998  1
  Zn  Zn143  1  0.93830597  0.43198491  0.17754922  1
  Zn  Zn144  1  0.93962434  0.43749605  0.68246909  1
  Zn  Zn145  1  0.93961083  0.93144491  0.18207781  1
  Zn  Zn146  1  0.93663397  0.93423233  0.68504619  1
  Zn  Zn147  1  0.06275742  0.06821434  0.31176271  1
  Zn  Zn148  1  0.06270825  0.06879248  0.81564857  1
  Zn  Zn149  1  0.05560467  0.56592860  0.31323767  1
  Zn  Zn150  1  0.06030767  0.56689965  0.81793979  1
  Zn  Zn151  1  0.55997550  0.06341774  0.31026632  1
  Zn  Zn152  1  0.56417762  0.06509731  0.81439598  1
  Zn  Zn153  1  0.55675037  0.56546314  0.31518799  1
  Zn  Zn154  1  0.56740929  0.56689589  0.81258644  1
  Zn  Zn155  1  0.43650922  0.18991057  0.43613698  1
  Zn  Zn156  1  0.44541167  0.18451123  0.93474056  1
  Zn  Zn157  1  0.43734185  0.68877890  0.43627919  1
  Zn  Zn158  1  0.44432279  0.68917002  0.94128919  1
  Zn  Zn159  1  0.93879958  0.19129852  0.43766211  1
  Zn  Zn160  1  0.93797611  0.18755694  0.93939685  1
  Zn  Zn161  1  0.93883217  0.69638356  0.43789420  1
  Zn  Zn162  1  0.94639227  0.68877161  0.92715517  1
  Zn  Zn163  1  0.05956917  0.31805255  0.06523096  1
  Zn  Zn164  1  0.06530366  0.31142205  0.56651381  1
  Zn  Zn165  1  0.06125881  0.81627387  0.05979511  1
  Zn  Zn166  1  0.05787648  0.81712702  0.56197694  1
  Zn  Zn167  1  0.56356720  0.31354406  0.05849258  1
  Zn  Zn168  1  0.56151947  0.31298307  0.56007345  1
  Zn  Zn169  1  0.57077568  0.81041829  0.06108621  1
  Zn  Zn170  1  0.56374534  0.81297650  0.56312848  1
  O  O171  1  0.11646615  0.11270849  0.12633767  1
  O  O172  1  0.11118978  0.12545105  0.62669983  1
  O  O173  1  0.13240081  0.62690133  0.10937479  1
  O  O174  1  0.13148368  0.62005121  0.61965826  1
  O  O175  1  0.61063505  0.12327590  0.11362206  1
  O  O176  1  0.62386719  0.11900082  0.61146869  1
  O  O177  1  0.63096865  0.61232897  0.11856699  1
  O  O178  1  0.62246663  0.62056581  0.61694371  1
  O  O179  1  0.37676624  0.38275512  0.38113773  1
  O  O180  1  0.38957811  0.38568550  0.87334921  1
  O  O181  1  0.38221103  0.87953740  0.37841632  1
  O  O182  1  0.37350980  0.88408748  0.88610969  1
  O  O183  1  0.87193070  0.36639334  0.39249174  1
  O  O184  1  0.87607772  0.37007278  0.88886682  1
  O  O185  1  0.86991506  0.86990001  0.38967681  1
  O  O186  1  0.87496602  0.89034342  0.87723936  1
  O  O187  1  0.25381682  0.00597419  0.37104841  1
  O  O188  1  0.25996142  -0.00248319  0.86385056  1
  O  O189  1  0.24995238  0.50926631  0.36771316  1
  O  O190  1  0.25394462  0.50722243  0.87058339  1
  O  O191  1  0.74669140  0.00621200  0.36246428  1
  O  O192  1  0.75615572  0.00011667  0.86008811  1
  O  O193  1  0.74996012  0.50498574  0.36898077  1
  O  O194  1  0.74229651  0.51455987  0.86945837  1
  O  O195  1  0.24631538  0.49467599  0.13215847  1
  O  O196  1  0.24657319  0.49478323  0.63675222  1
  O  O197  1  0.24371402  0.98912490  0.13365726  1
  O  O198  1  0.24797766  0.99380822  0.63648239  1
  O  O199  1  0.73868043  0.49216529  0.14724881  1
  O  O200  1  0.74100870  0.49157006  0.62309444  1
  O  O201  1  0.75146196  0.99257198  0.14266587  1
  O  O202  1  0.74561417  0.99442598  0.63403860  1
  O  O203  1  0.00336986  0.35903396  0.24369226  1
  O  O204  1  0.00794051  0.36623150  0.74912629  1
  O  O205  1  0.01305719  0.87272349  0.25011613  1
  O  O206  1  -0.00344085  0.86059036  0.74961971  1
  O  O207  1  0.48914406  0.36737720  0.25899689  1
  O  O208  1  0.50310341  0.36891234  0.75670227  1
  O  O209  1  0.51089240  0.87342291  0.25693982  1
  O  O210  1  0.50132975  0.86153099  0.74307574  1
  O  O211  1  0.49412991  0.13006366  0.23883883  1
  O  O212  1  0.49494482  0.13325021  0.74809634  1
  O  O213  1  0.48002331  0.62316984  0.25107033  1
  O  O214  1  0.49501946  0.63295879  0.74356375  1
  O  O215  1  1.00273254  0.13576825  0.24169381  1
  O  O216  1  0.98996807  0.13004052  0.74434945  1
  O  O217  1  1.00376053  0.64161855  0.25000583  1
  O  O218  1  1.00166967  0.64470498  0.75585706  1
  O  O219  1  0.38429380  0.26080985  -0.01175857  1
  O  O220  1  0.36394329  0.25461455  0.50256275  1
  O  O221  1  0.37446768  0.76422956  -0.00987948  1
  O  O222  1  0.36951103  0.75744774  0.50560152  1
  O  O223  1  0.87074671  0.25665316  0.00151866  1
  O  O224  1  0.86737657  0.25479710  0.50689030  1
  O  O225  1  0.88137407  0.76892062  -0.01598743  1
  O  O226  1  0.88279466  0.76328965  0.51172292  1
  O  O227  1  0.13511285  0.24813441  0.49512036  1
  O  O228  1  0.11926253  0.25242869  0.98697843  1
  O  O229  1  0.12820418  0.74841547  0.49551954  1
  O  O230  1  0.11404476  0.74237862  0.98883679  1
  O  O231  1  0.62837299  0.24144494  0.49284561  1
  O  O232  1  0.62469472  0.24281586  0.99191919  1
  O  O233  1  0.62177174  0.73908257  0.49354525  1
  O  O234  1  0.62562508  0.73555402  0.99112005  1
  O  O235  1  0.50414756  0.25239378  0.13660720  1
  O  O236  1  0.49909403  0.25162225  0.63750668  1
  O  O237  1  0.50215943  0.74747290  0.12262700  1
  O  O238  1  0.49462057  0.74446858  0.63048583  1
  O  O239  1  1.00028655  0.24125018  0.13568416  1
  O  O240  1  0.99710082  0.24300863  0.63682147  1
  O  O241  1  1.00201178  0.75587648  0.13659740  1
  O  O242  1  0.99403517  0.75303647  0.63373121  1
  O  O243  1  0.00855276  0.24317790  0.36237881  1
  O  O244  1  0.00277259  0.25061374  0.86323404  1
  O  O245  1  0.01102984  0.75781619  0.37027370  1
  O  O246  1  0.01018992  0.75855540  0.86286114  1
  O  O247  1  0.50511287  0.25506464  0.36746793  1
  O  O248  1  0.50869933  0.25914192  0.86404453  1
  O  O249  1  0.50758211  0.76170069  0.37927324  1
  O  O250  1  0.51407169  0.74127316  0.86477453  1
  O  O251  1  0.25053290  0.13368599  0.49749827  1
  O  O252  1  0.24759484  0.12014829  1.01750499  1
  O  O253  1  0.24600445  0.63837341  0.49575371  1
  O  O254  1  0.24293069  0.62057779  0.98907066  1
  O  O255  1  0.74193416  0.12699865  0.49389502  1
  O  O256  1  0.73152713  0.12297441  1.00678159  1
  O  O257  1  0.73819371  0.61427176  0.48520343  1
  O  O258  1  0.74745527  0.62328247  0.98686835  1
  O  O259  1  0.25107925  0.38351293  0.01349034  1
  O  O260  1  0.25383744  0.36694643  0.50804253  1
  O  O261  1  0.25562549  0.87870908  0.01176131  1
  O  O262  1  0.25546774  0.87291846  0.50738728  1
  O  O263  1  0.76008200  0.37434602  0.00118081  1
  O  O264  1  0.75550776  0.36952380  0.50821913  1
  O  O265  1  0.75978538  0.88733677  0.00892456  1
  O  O266  1  0.75658446  0.88347979  0.51184430  1
  O  O267  1  0.13674815  0.50473285  0.24644500  1
  O  O268  1  0.12866171  0.49790088  0.74548452  1
  O  O269  1  0.12971971  0.99436730  0.24407706  1
  O  O270  1  0.13839110  1.00534623  0.75258220  1
  O  O271  1  0.61515766  0.49989716  0.24106179  1
  O  O272  1  0.62243636  0.49983242  0.73362898  1
  O  O273  1  0.62683792  0.98552761  0.25696639  1
  O  O274  1  0.63314198  1.00098893  0.74521062  1
  O  O275  1  0.36725712  0.01465448  0.25910315  1
  O  O276  1  0.36880286  0.00433993  0.75878869  1
  O  O277  1  0.36303480  0.51121563  0.25630676  1
  O  O278  1  0.37108516  0.50804936  0.75719244  1
  O  O279  1  0.86596780  -0.00939993  0.25313310  1
  O  O280  1  0.87000629  0.00707330  0.75379163  1
  O  O281  1  0.86989517  0.49266978  0.25186656  1
  O  O282  1  0.87724517  0.50593437  0.74078431  1
  O  O283  1  0.13977260  0.35549528  0.36822677  1
  O  O284  1  0.12162418  0.36589199  0.86888330  1
  O  O285  1  0.12660701  0.87033335  0.36531606  1
  O  O286  1  0.12753508  0.86503062  0.88123680  1
  O  O287  1  0.61529606  0.36243762  0.38402954  1
  O  O288  1  0.61607691  0.36989207  0.87362807  1
  O  O289  1  0.61925309  0.86680095  0.36922202  1
  O  O290  1  0.63346410  0.85884257  0.87292810  1
  O  O291  1  0.38621061  0.12273376  0.13066499  1
  O  O292  1  0.37894974  0.12613334  0.63983318  1
  O  O293  1  0.37274949  0.62402136  0.13892700  1
  O  O294  1  0.37803725  0.63255429  0.63150490  1
  O  O295  1  0.88769447  0.12343536  0.11958174  1
  O  O296  1  0.88396809  0.13035370  0.63078922  1
  O  O297  1  0.82347013  0.63654547  0.13192716  1
  O  O298  1  0.86693486  0.63981212  0.61928320  1
  O  O299  1  0.24813145  0.26605051  0.12954187  1
  O  O300  1  0.24928905  0.25608586  0.61936488  1
  O  O301  1  0.24380510  0.76614276  0.12769022  1
  O  O302  1  0.25683105  0.75857551  0.62470296  1
  O  O303  1  0.74932399  0.25011265  0.12665556  1
  O  O304  1  0.75239536  0.25612092  0.61767560  1
  O  O305  1  0.73974202  0.77172131  0.12486254  1
  O  O306  1  0.75677176  0.76131247  0.63071450  1
  O  O307  1  0.24823596  0.24258751  0.38246395  1
  O  O308  1  0.23800336  0.25509052  0.87563812  1
  O  O309  1  0.23885949  0.74984782  0.38192317  1
  O  O310  1  0.24049233  0.74153608  0.86621094  1
  O  O311  1  0.73936353  0.24124865  0.37743199  1
  O  O312  1  0.73560354  0.25226935  0.87399189  1
  O  O313  1  0.74248353  0.73163249  0.37153044  1
  O  O314  1  0.74275060  0.73668057  0.86562511  1
  O  O315  1  0.00403806  0.11523726  0.00651712  1
  O  O316  1  -0.00102590  0.11991356  0.50873156  1
  O  O317  1  0.00260011  0.61620577  -0.00327233  1
  O  O318  1  0.01362111  0.62737063  0.49747922  1
  O  O319  1  0.50669368  0.12374362  0.01245325  1
  O  O320  1  0.50654820  0.12035244  0.50030969  1
  O  O321  1  0.51086914  0.61448071  0.00041913  1
  O  O322  1  0.50579721  0.62095159  0.50571327  1
  O  O323  1  0.49008977  0.37926839  0.49339756  1
  O  O324  1  0.50259144  0.38950713  0.99226171  1
  O  O325  1  0.49466634  0.87962949  0.49304503  1
  O  O326  1  0.48969456  0.87190306  1.00221563  1
  O  O327  1  0.98563576  0.36648687  0.50501179  1
  O  O328  1  0.98720387  0.38206950  0.99826071  1
  O  O329  1  0.99166246  0.88549434  0.49641713  1
  O  O330  1  0.99257838  0.89098276  0.99847193  1
  O  O331  1  0.49144766  0.49441242  0.38167831  1
  O  O332  1  0.50046359  0.49586963  0.88038087  1
  O  O333  1  0.49595404  0.98962730  0.37975120  1
  O  O334  1  0.48952931  0.99197021  0.86494717  1
  O  O335  1  1.04354416  0.49053694  0.39212099  1
  O  O336  1  1.00480928  0.49800659  0.89231716  1
  O  O337  1  1.00377287  1.00173026  0.38653214  1
  O  O338  1  0.99457184  1.00068326  0.88100001  1
  O  O339  1  0.00812619  0.00508951  0.11954343  1
  O  O340  1  0.00089136  0.00736214  0.62044943  1
  O  O341  1  0.00186417  0.49776261  0.10692791  1
  O  O342  1  0.01672120  0.49446106  0.61289185  1
  O  O343  1  0.49802117  0.00870665  0.12777968  1
  O  O344  1  0.50747460  -0.00063952  0.61743790  1
  O  O345  1  0.50850233  0.50552076  0.12001866  1
  O  O346  1  0.50397660  0.50616643  0.61909446  1
  O  O347  1  0.24966380  0.38599615  0.24148409  1
  O  O348  1  0.24637493  0.38107863  0.74692052  1
  O  O349  1  0.24088306  0.87939645  0.24185591  1
  O  O350  1  0.25681389  0.89022824  0.74420288  1
  O  O351  1  0.74888660  0.38787330  0.25752619  1
  O  O352  1  0.74707181  0.37561874  0.73621000  1
  O  O353  1  0.74014491  0.88464494  0.24827364  1
  O  O354  1  0.75043232  0.88443694  0.74039057  1
  O  O355  1  0.25726455  0.12291951  0.25278400  1
  O  O356  1  0.25895194  0.11157720  0.74750381  1
  O  O357  1  0.25760366  0.62320895  0.25519659  1
  O  O358  1  0.25641208  0.62023128  0.76025236  1
  O  O359  1  0.74543552  0.10774877  0.25645528  1
  O  O360  1  0.76297116  0.11901325  0.74101000  1
  O  O361  1  0.74371814  0.60445836  0.27153399  1
  O  O362  1  0.75142984  0.61958710  0.76003959  1
  O  O363  1  0.37034772  0.12031870  0.36935231  1
  O  O364  1  0.38365825  0.11018376  0.86521685  1
  O  O365  1  0.36742833  0.62304341  0.36918879  1
  O  O366  1  0.36853956  0.62252055  0.87329547  1
  O  O367  1  0.85979581  0.12919300  0.38155406  1
  O  O368  1  0.87918363  0.11451888  0.86648952  1
  O  O369  1  0.86425408  0.62624854  0.38490878  1
  O  O370  1  0.86244115  0.62997925  0.87276382  1
  O  O371  1  0.13642611  0.38022439  0.12749546  1
  O  O372  1  0.13366930  0.38232824  0.63213717  1
  O  O373  1  0.13214447  0.88544597  0.12831037  1
  O  O374  1  0.13942403  0.87468747  0.62225211  1
  O  O375  1  0.62539491  0.39167223  0.11922472  1
  O  O376  1  0.63223100  0.38306234  0.62173630  1
  O  O377  1  0.62854448  0.87985341  0.13683143  1
  O  O378  1  0.63330241  0.88083101  0.62616724  1
  O  O379  1  0.11584831  0.24936660  0.25695671  1
  O  O380  1  0.11942984  0.25467076  0.75801473  1
  O  O381  1  0.11986393  0.75879840  0.25768121  1
  O  O382  1  0.11638057  0.75166925  0.75624607  1
  O  O383  1  0.61461144  0.24143209  0.26087875  1
  O  O384  1  0.61799272  0.24906870  0.75619151  1
  O  O385  1  0.63181826  0.75996186  0.25882101  1
  O  O386  1  0.61743538  0.75039540  0.75622992  1
  O  O387  1  0.38294256  0.23672531  0.25738154  1
  O  O388  1  0.38228369  0.24099887  0.75364719  1
  O  O389  1  0.37079258  0.74229064  0.25266528  1
  O  O390  1  0.38246858  0.74643533  0.74862682  1
  O  O391  1  0.88786465  0.25020957  0.25060218  1
  O  O392  1  0.88044801  0.24392601  0.74650155  1
  O  O393  1  0.89156399  0.75955445  0.25408500  1
  O  O394  1  0.88518777  0.74656130  0.73973054  1
  O  O395  1  0.37683170  0.49801736  0.49495438  1
  O  O396  1  0.38642287  0.50155545  0.99428359  1
  O  O397  1  0.37943248  0.99612944  0.49498319  1
  O  O398  1  0.37798705  0.98985032  0.98521231  1
  O  O399  1  0.87769176  0.48285630  0.50472801  1
  O  O400  1  0.88134064  0.48987457  1.00088026  1
  O  O401  1  0.88516766  0.99065164  0.50707987  1
  O  O402  1  0.88017066  0.99849013  0.99085440  1
  O  O403  1  0.11825628  0.00161249  0.00666997  1
  O  O404  1  0.11406385  0.00339618  0.50702505  1
  O  O405  1  0.11393296  0.51162864  0.00077196  1
  O  O406  1  0.14495008  0.51841901  0.51647216  1
  O  O407  1  0.62193981  0.01105432  -0.00832948  1
  O  O408  1  0.62004316  0.00653890  0.50103475  1
  O  O409  1  0.62178971  0.50965169  0.00673754  1
  O  O410  1  0.61688110  0.50691008  0.50853765  1
  O  O411  1  0.35804434  0.38311289  0.12388057  1
  O  O412  1  0.36664153  0.37381622  0.62057451  1
  O  O413  1  0.36458204  0.87461421  0.11239423  1
  O  O414  1  0.36609269  0.87129110  0.61984263  1
  O  O415  1  0.86871508  0.36836503  0.11154764  1
  O  O416  1  0.86684270  0.36629542  0.61854279  1
  O  O417  1  0.86619734  0.87974335  0.11155088  1
  O  O418  1  0.86681454  0.86761987  0.61821014  1
  O  O419  1  0.13519355  0.13418698  0.37770994  1
  O  O420  1  0.12384689  0.14383591  0.87687232  1
  O  O421  1  0.13286991  0.63871125  0.38301018  1
  O  O422  1  0.13238149  0.63529575  0.88349477  1
  O  O423  1  0.62696536  0.13039072  0.38376871  1
  O  O424  1  0.61498411  0.13342992  0.89044160  1
  O  O425  1  0.62208694  0.63258136  0.38113237  1
  O  O426  1  0.63498339  0.63142026  0.88138678  1
