# generated using pymatgen
data_La6Ce7Pr13Nd19Sm19(BiS2)64
_symmetry_space_group_name_H-M   'P 1'
_cell_length_a   16.09688188
_cell_length_b   16.11914173
_cell_length_c   27.40940638
_cell_angle_alpha   90.03022620
_cell_angle_beta   89.80507199
_cell_angle_gamma   89.94604951
_symmetry_Int_Tables_number   1
_chemical_formula_structural   La6Ce7Pr13Nd19Sm19(BiS2)64
_chemical_formula_sum   'La6 Ce7 Pr13 Nd19 Sm19 Bi64 S128'
_cell_volume   7111.81636127
_cell_formula_units_Z   1
loop_
 _symmetry_equiv_pos_site_id
 _symmetry_equiv_pos_as_xyz
  1  'x, y, z'
loop_
 _atom_type_symbol
 _atom_type_oxidation_number
  La3+  3.0
  Ce3+  3.0
  Pr3+  3.0
  Nd3+  3.0
  Sm3+  3.0
  Bi2+  2.0
  S2-  -2.0
loop_
 _atom_site_type_symbol
 _atom_site_label
 _atom_site_symmetry_multiplicity
 _atom_site_fract_x
 _atom_site_fract_y
 _atom_site_fract_z
 _atom_site_occupancy
  La3+  La0  1  0.36464323  -0.01472201  0.88359974  1
  La3+  La1  1  0.11379175  0.49308330  0.38563237  1
  La3+  La2  1  0.61785101  0.75973948  0.93708516  1
  La3+  La3  1  0.73868117  0.13981920  0.08906307  1
  La3+  La4  1  0.38374199  0.48798469  0.42706745  1
  La3+  La5  1  0.14877616  0.74727705  0.42389129  1
  Ce3+  Ce6  1  0.38683226  -0.00657410  0.44698061  1
  Ce3+  Ce7  1  -0.00536590  0.88488373  0.06374662  1
  Ce3+  Ce8  1  0.12133451  0.25884328  0.94162832  1
  Ce3+  Ce9  1  0.61151340  0.01461993  0.94388757  1
  Ce3+  Ce10  1  0.12409854  0.00866714  0.94393037  1
  Ce3+  Ce11  1  0.01283005  0.36779005  0.56431515  1
  Ce3+  Ce12  1  0.88752771  0.49183002  0.44407295  1
  Pr3+  Pr13  1  0.35772224  0.50552099  0.92359710  1
  Pr3+  Pr14  1  0.01485834  0.61622348  0.55400915  1
  Pr3+  Pr15  1  0.38424664  0.24083927  0.44206587  1
  Pr3+  Pr16  1  -0.00732050  0.38720671  0.06533288  1
  Pr3+  Pr17  1  0.49297259  0.14747415  0.06904572  1
  Pr3+  Pr18  1  0.76266000  0.86747767  0.55648623  1
  Pr3+  Pr19  1  0.24712579  0.88767678  0.06462141  1
  Pr3+  Pr20  1  0.73723654  0.63661077  0.07041446  1
  Pr3+  Pr21  1  0.88972361  0.24591407  0.43824675  1
  Pr3+  Pr22  1  0.24572271  0.13707269  0.05660589  1
  Pr3+  Pr23  1  0.74031480  0.38819995  0.06896087  1
  Pr3+  Pr24  1  0.12071858  0.75764715  0.94941039  1
  Pr3+  Pr25  1  0.25706651  0.10948639  0.57517307  1
  Nd3+  Nd26  1  0.49249240  0.88883844  0.05824238  1
  Nd3+  Nd27  1  0.63256762  0.49284330  0.43344527  1
  Nd3+  Nd28  1  0.86619997  0.25897539  0.94197610  1
  Nd3+  Nd29  1  0.76000194  0.61719447  0.55516682  1
  Nd3+  Nd30  1  0.25816708  0.86134685  0.56915153  1
  Nd3+  Nd31  1  0.88966160  0.73919342  0.43509095  1
  Nd3+  Nd32  1  0.51076701  0.11897322  0.56170375  1
  Nd3+  Nd33  1  0.13777929  0.24536592  0.44191131  1
  Nd3+  Nd34  1  0.86749041  0.51307362  0.94002673  1
  Nd3+  Nd35  1  0.25530330  0.63368414  0.08108822  1
  Nd3+  Nd36  1  0.37374477  0.25488943  0.92837990  1
  Nd3+  Nd37  1  0.50771524  0.36682012  0.56117120  1
  Nd3+  Nd38  1  -0.01241301  0.63797706  0.07763021  1
  Nd3+  Nd39  1  0.86715578  0.00992583  0.95029114  1
  Nd3+  Nd40  1  0.88646114  -0.00784085  0.43596349  1
  Nd3+  Nd41  1  0.62797193  0.25828422  0.93420385  1
  Nd3+  Nd42  1  0.51097475  0.61647480  0.55762509  1
  Nd3+  Nd43  1  0.62297845  0.50968787  0.93414326  1
  Nd3+  Nd44  1  0.11179613  0.51322580  0.94291055  1
  Sm3+  Sm45  1  0.01090553  0.86601719  0.55137954  1
  Sm3+  Sm46  1  0.26029703  0.36841888  0.55760848  1
  Sm3+  Sm47  1  0.63741051  0.24094091  0.43815855  1
  Sm3+  Sm48  1  0.26114315  0.61893251  0.55927959  1
  Sm3+  Sm49  1  0.36585951  0.75596403  0.94447824  1
  Sm3+  Sm50  1  -0.00677312  0.13631351  0.05667093  1
  Sm3+  Sm51  1  0.49189637  0.63360526  0.05298121  1
  Sm3+  Sm52  1  0.75998914  0.36615067  0.55216422  1
  Sm3+  Sm53  1  0.51233469  0.86862456  0.55792073  1
  Sm3+  Sm54  1  0.49164098  0.38663181  0.04939450  1
  Sm3+  Sm55  1  0.24406320  0.38706354  0.05796769  1
  Sm3+  Sm56  1  0.63605828  0.74342311  0.44194147  1
  Sm3+  Sm57  1  0.38593615  0.74411258  0.44279493  1
  Sm3+  Sm58  1  0.14044337  -0.00751815  0.43732060  1
  Sm3+  Sm59  1  0.76255086  0.11897663  0.55622946  1
  Sm3+  Sm60  1  0.63797923  -0.00681553  0.44516304  1
  Sm3+  Sm61  1  0.01116989  0.11717131  0.54964255  1
  Sm3+  Sm62  1  0.74114483  0.88775742  0.05778492  1
  Sm3+  Sm63  1  0.86895024  0.76029294  0.95039652  1
  Bi2+  Bi64  1  0.01798649  0.12339132  0.28745476  1
  Bi2+  Bi65  1  -0.02763523  0.11586597  0.78234305  1
  Bi2+  Bi66  1  -0.03007694  0.32194011  0.29269892  1
  Bi2+  Bi67  1  -0.04019518  0.38162962  0.80646037  1
  Bi2+  Bi68  1  -0.02419998  0.61487935  0.28864372  1
  Bi2+  Bi69  1  -0.01979306  0.65120130  0.80254975  1
  Bi2+  Bi70  1  -0.01462516  0.89179488  0.29618480  1
  Bi2+  Bi71  1  -0.02176917  0.89292588  0.74962702  1
  Bi2+  Bi72  1  0.20628317  0.11849533  0.31808083  1
  Bi2+  Bi73  1  0.24337307  0.12567294  0.78724310  1
  Bi2+  Bi74  1  0.25285705  0.30459206  0.28696176  1
  Bi2+  Bi75  1  0.23196579  0.39381198  0.78990200  1
  Bi2+  Bi76  1  0.24981218  0.62169776  0.28541837  1
  Bi2+  Bi77  1  0.23072934  0.65069732  0.79640469  1
  Bi2+  Bi78  1  0.26486460  0.87306440  0.29114577  1
  Bi2+  Bi79  1  0.22636497  0.85497693  0.79545593  1
  Bi2+  Bi80  1  0.39621569  0.11621163  0.26884810  1
  Bi2+  Bi81  1  0.51802943  0.14216643  0.79029753  1
  Bi2+  Bi82  1  0.51713608  0.36590437  0.28916601  1
  Bi2+  Bi83  1  0.48955838  0.40114196  0.78485658  1
  Bi2+  Bi84  1  0.51656905  0.63512374  0.29227295  1
  Bi2+  Bi85  1  0.43361578  0.58922315  0.80752650  1
  Bi2+  Bi86  1  0.46343071  0.87082566  0.29816647  1
  Bi2+  Bi87  1  0.52701985  0.82292788  0.75040739  1
  Bi2+  Bi88  1  0.73883253  0.11383934  0.30596149  1
  Bi2+  Bi89  1  0.77629368  0.11923933  0.79164716  1
  Bi2+  Bi90  1  0.71201684  0.40107408  0.27884908  1
  Bi2+  Bi91  1  0.76445611  0.37826979  0.78946625  1
  Bi2+  Bi92  1  0.71817166  0.59543283  0.28939480  1
  Bi2+  Bi93  1  0.72143078  0.65443210  0.80641857  1
  Bi2+  Bi94  1  0.65967196  0.86648582  0.27625999  1
  Bi2+  Bi95  1  0.79148992  0.89063121  0.79381707  1
  Bi2+  Bi96  1  0.13176451  -0.00972467  0.23069352  1
  Bi2+  Bi97  1  0.11041783  0.01389998  0.70273388  1
  Bi2+  Bi98  1  0.14715586  0.20447967  0.20766399  1
  Bi2+  Bi99  1  0.09052948  0.27019838  0.74704488  1
  Bi2+  Bi100  1  0.12569147  0.46970476  0.18703664  1
  Bi2+  Bi101  1  0.05201312  0.51534808  0.72521818  1
  Bi2+  Bi102  1  0.11728053  0.74635879  0.20205475  1
  Bi2+  Bi103  1  0.12023579  0.74592430  0.70180647  1
  Bi2+  Bi104  1  0.32037895  -0.02250233  0.19264178  1
  Bi2+  Bi105  1  0.39659928  0.02609023  0.68708660  1
  Bi2+  Bi106  1  0.38004801  0.27871559  0.20092494  1
  Bi2+  Bi107  1  0.39174235  0.27410346  0.69784064  1
  Bi2+  Bi108  1  0.46998313  0.50656423  0.21201666  1
  Bi2+  Bi109  1  0.31289648  0.52659604  0.71594623  1
  Bi2+  Bi110  1  0.43900335  0.74748989  0.20830063  1
  Bi2+  Bi111  1  0.37453446  0.71377204  0.71797303  1
  Bi2+  Bi112  1  0.54912428  0.00942865  0.22851941  1
  Bi2+  Bi113  1  0.63371004  -0.01015847  0.76070277  1
  Bi2+  Bi114  1  0.62339508  0.25662756  0.21106909  1
  Bi2+  Bi115  1  0.64465655  0.26885068  0.69374681  1
  Bi2+  Bi116  1  0.65482523  0.50810395  0.17251266  1
  Bi2+  Bi117  1  0.59645000  0.54554414  0.74720996  1
  Bi2+  Bi118  1  0.62770951  0.70506403  0.18785271  1
  Bi2+  Bi119  1  0.65148610  0.72682864  0.68442467  1
  Bi2+  Bi120  1  0.86946688  -0.05472576  0.21022875  1
  Bi2+  Bi121  1  0.86964291  0.04462388  0.69306480  1
  Bi2+  Bi122  1  0.89523345  0.22688454  0.20338596  1
  Bi2+  Bi123  1  0.88982703  0.31418702  0.70428193  1
  Bi2+  Bi124  1  0.83901623  0.49859301  0.21185767  1
  Bi2+  Bi125  1  0.85707647  0.52751537  0.73437630  1
  Bi2+  Bi126  1  0.80938862  0.74914659  0.22109194  1
  Bi2+  Bi127  1  0.84424782  0.76579527  0.70508148  1
  S2-  S128  1  0.01881984  0.13631428  0.15289080  1
  S2-  S129  1  0.01744706  0.11527071  0.64715730  1
  S2-  S130  1  -0.01616026  0.37382677  0.16528934  1
  S2-  S131  1  0.04547560  0.36955289  0.66029341  1
  S2-  S132  1  0.03375010  0.61588936  0.17334320  1
  S2-  S133  1  0.02860041  0.63718094  0.65378867  1
  S2-  S134  1  -0.00428251  0.84574166  0.15777962  1
  S2-  S135  1  0.04095487  0.87055719  0.64728294  1
  S2-  S136  1  0.29212250  0.14249237  0.15291382  1
  S2-  S137  1  0.27744152  0.16913633  0.67091540  1
  S2-  S138  1  0.27598802  0.39362411  0.15360967  1
  S2-  S139  1  0.30222895  0.38607763  0.65235090  1
  S2-  S140  1  0.22375898  0.61281240  0.18018927  1
  S2-  S141  1  0.25597088  0.72826641  0.63792886  1
  S2-  S142  1  0.25450180  0.82205107  0.15676667  1
  S2-  S143  1  0.25007943  0.96842670  0.64654319  1
  S2-  S144  1  0.59339968  0.11965782  0.15140304  1
  S2-  S145  1  0.51694269  0.14899128  0.65967722  1
  S2-  S146  1  0.50374832  0.30775639  0.13695120  1
  S2-  S147  1  0.53174242  0.37030373  0.65928239  1
  S2-  S148  1  0.41107130  0.61570519  0.13836845  1
  S2-  S149  1  0.53184933  0.61222077  0.65491300  1
  S2-  S150  1  0.48037609  0.89790450  0.15743982  1
  S2-  S151  1  0.48448443  0.88886489  0.65318326  1
  S2-  S152  1  0.80427715  0.08619654  0.18344262  1
  S2-  S153  1  0.74724590  0.13853912  0.65226593  1
  S2-  S154  1  0.75541385  0.28604411  0.14996961  1
  S2-  S155  1  0.75004114  0.37183662  0.64950080  1
  S2-  S156  1  0.84845853  0.63618514  0.14754448  1
  S2-  S157  1  0.78287886  0.61747494  0.65249106  1
  S2-  S158  1  0.74012108  0.87360186  0.15473507  1
  S2-  S159  1  0.74595545  0.87694931  0.65527449  1
  S2-  S160  1  0.13522273  -0.10755041  0.35724641  1
  S2-  S161  1  0.18533483  -0.00025978  0.85276293  1
  S2-  S162  1  0.11457665  0.32221798  0.35381576  1
  S2-  S163  1  0.15737700  0.24726420  0.84574374  1
  S2-  S164  1  0.11052099  0.50236761  0.27785018  1
  S2-  S165  1  0.21028791  0.51658198  0.85935007  1
  S2-  S166  1  0.10382778  0.66175863  0.33987364  1
  S2-  S167  1  0.10528007  0.75629306  0.84913950  1
  S2-  S168  1  0.39456234  0.00932735  0.35107494  1
  S2-  S169  1  0.34525609  -0.01709588  0.77432984  1
  S2-  S170  1  0.38524570  0.31273293  0.35132086  1
  S2-  S171  1  0.36809608  0.15230036  0.84532566  1
  S2-  S172  1  0.27931156  0.50801426  0.34800432  1
  S2-  S173  1  0.36060107  0.37413112  0.85263333  1
  S2-  S174  1  0.30661444  0.74071700  0.35542800  1
  S2-  S175  1  0.35626621  0.81609050  0.85244965  1
  S2-  S176  1  0.64741024  -0.00053875  0.34812930  1
  S2-  S177  1  0.53867700  0.00581746  0.85448964  1
  S2-  S178  1  0.62647482  0.21279225  0.34160440  1
  S2-  S179  1  0.55548115  0.27151083  0.84160678  1
  S2-  S180  1  0.51983896  0.49742162  0.35855235  1
  S2-  S181  1  0.74767091  0.50626852  0.86435069  1
  S2-  S182  1  0.64226892  0.73665484  0.34510662  1
  S2-  S183  1  0.60094173  0.75718493  0.83747486  1
  S2-  S184  1  0.87034533  -0.00241569  0.33747347  1
  S2-  S185  1  0.88342339  0.00898003  0.85192055  1
  S2-  S186  1  0.85208111  0.24146901  0.34006178  1
  S2-  S187  1  0.76361698  0.24970213  0.86162830  1
  S2-  S188  1  0.93915844  0.47978363  0.35149744  1
  S2-  S189  1  0.99094845  0.53002928  0.86801026  1
  S2-  S190  1  0.89969646  0.75268630  0.33658759  1
  S2-  S191  1  0.85295599  0.74639849  0.85327441  1
  S2-  S192  1  0.01383001  0.11565623  0.44489856  1
  S2-  S193  1  -0.00633828  0.13438944  0.95176224  1
  S2-  S194  1  0.01271197  0.37027552  0.45898709  1
  S2-  S195  1  -0.00818818  0.38082276  0.95892108  1
  S2-  S196  1  0.01428432  0.61490145  0.44932719  1
  S2-  S197  1  -0.01035825  0.64053354  0.96974245  1
  S2-  S198  1  0.00905830  0.86783911  0.44956741  1
  S2-  S199  1  -0.00660042  0.88402027  0.95651597  1
  S2-  S200  1  0.25892605  0.11661169  0.46069333  1
  S2-  S201  1  0.24513545  0.13381707  0.95237621  1
  S2-  S202  1  0.25897903  0.36741600  0.45581764  1
  S2-  S203  1  0.23864449  0.38394056  0.95557721  1
  S2-  S204  1  0.26632634  0.62034315  0.45871126  1
  S2-  S205  1  0.24504661  0.63424971  0.96307346  1
  S2-  S206  1  0.26584175  0.87184029  0.46183771  1
  S2-  S207  1  0.24729867  0.88366727  0.95829306  1
  S2-  S208  1  0.51508990  0.11816332  0.45451926  1
  S2-  S209  1  0.49930546  0.14286139  0.95983816  1
  S2-  S210  1  0.51492311  0.36229514  0.45641078  1
  S2-  S211  1  0.49847614  0.38796701  0.94795163  1
  S2-  S212  1  0.51089131  0.62329950  0.45312799  1
  S2-  S213  1  0.49119780  0.63068387  0.94862359  1
  S2-  S214  1  0.51413451  0.86755771  0.45233471  1
  S2-  S215  1  0.48841373  0.88318060  0.95324453  1
  S2-  S216  1  0.76183973  0.11813230  0.45175949  1
  S2-  S217  1  0.74418679  0.13034194  0.96185588  1
  S2-  S218  1  0.75832627  0.36793354  0.44678082  1
  S2-  S219  1  0.74600310  0.38554418  0.96320475  1
  S2-  S220  1  0.75907567  0.61738487  0.44858732  1
  S2-  S221  1  0.74325818  0.63887580  0.96283939  1
  S2-  S222  1  0.76157702  0.86597488  0.44894796  1
  S2-  S223  1  0.74225168  0.88574065  0.95295407  1
  S2-  S224  1  0.11845508  0.01102034  0.05109242  1
  S2-  S225  1  0.13054770  -0.00862767  0.54071045  1
  S2-  S226  1  0.11817593  0.26156384  0.04940743  1
  S2-  S227  1  0.13712899  0.24099488  0.54956098  1
  S2-  S228  1  0.12044294  0.51353825  0.05339963  1
  S2-  S229  1  0.14168558  0.49368608  0.55863663  1
  S2-  S230  1  0.12221319  0.75581357  0.05537683  1
  S2-  S231  1  0.13406365  0.74424728  0.53632251  1
  S2-  S232  1  0.37185323  0.01373554  0.05390463  1
  S2-  S233  1  0.38824243  -0.00743203  0.54996596  1
  S2-  S234  1  0.36611724  0.26610104  0.03842009  1
  S2-  S235  1  0.38312738  0.24076273  0.54893638  1
  S2-  S236  1  0.36816494  0.50730205  0.03717457  1
  S2-  S237  1  0.38544660  0.49409865  0.54491863  1
  S2-  S238  1  0.37122395  0.75999794  0.04693347  1
  S2-  S239  1  0.39155215  0.74453114  0.54617792  1
  S2-  S240  1  0.61934729  0.01052385  0.04891576  1
  S2-  S241  1  0.63644907  -0.00511588  0.54971247  1
  S2-  S242  1  0.62183910  0.26433863  0.04115857  1
  S2-  S243  1  0.63740347  0.24268195  0.54374037  1
  S2-  S244  1  0.61416538  0.51138901  0.04020385  1
  S2-  S245  1  0.63609679  0.49067346  0.54139196  1
  S2-  S246  1  0.61513116  0.76134813  0.04573851  1
  S2-  S247  1  0.63504996  0.74351291  0.54576657  1
  S2-  S248  1  0.86809144  0.01135512  0.05562928  1
  S2-  S249  1  0.88739809  -0.00630385  0.54265987  1
  S2-  S250  1  0.87057328  0.25807932  0.04756490  1
  S2-  S251  1  0.88588298  0.24247231  0.54577320  1
  S2-  S252  1  0.86643778  0.51086561  0.04856975  1
  S2-  S253  1  0.88442786  0.49102459  0.55012549  1
  S2-  S254  1  0.86425074  0.76572334  0.05230361  1
  S2-  S255  1  0.88686128  0.74126625  0.54253240  1
