# generated using pymatgen
data_V51Zn51O256
_symmetry_space_group_name_H-M   'P 1'
_cell_length_a   17.85825834
_cell_length_b   17.88651910
_cell_length_c   17.52273989
_cell_angle_alpha   91.05288258
_cell_angle_beta   89.42651278
_cell_angle_gamma   90.43689676
_symmetry_Int_Tables_number   1
_chemical_formula_structural   V51Zn51O256
_chemical_formula_sum   'V51 Zn51 O256'
_cell_volume   5595.76966305
_cell_formula_units_Z   1
loop_
 _symmetry_equiv_pos_site_id
 _symmetry_equiv_pos_as_xyz
  1  'x, y, z'
loop_
 _atom_site_type_symbol
 _atom_site_label
 _atom_site_symmetry_multiplicity
 _atom_site_fract_x
 _atom_site_fract_y
 _atom_site_fract_z
 _atom_site_occupancy
  V  V0  1  0.26915514  -0.04190238  0.83913283  1
  V  V1  1  0.35110862  0.73045396  0.11810411  1
  V  V2  1  0.77078762  0.74642573  -0.00328796  1
  V  V3  1  0.08445882  0.32565584  0.41279477  1
  V  V4  1  0.16788846  0.36001759  0.10429446  1
  V  V5  1  0.19274039  0.48726420  0.21965931  1
  V  V6  1  0.46226612  0.50057544  0.47676212  1
  V  V7  1  0.64232733  -0.00349586  0.12426873  1
  V  V8  1  0.53663117  0.65713369  0.57398314  1
  V  V9  1  0.57373077  0.14416764  0.02999546  1
  V  V10  1  0.39798494  0.60565954  0.25522716  1
  V  V11  1  0.82072248  0.63672324  0.83286615  1
  V  V12  1  0.88575109  0.88236320  0.02203187  1
  V  V13  1  0.26518051  0.62677433  0.87824421  1
  V  V14  1  0.10354093  0.88706016  0.78831005  1
  V  V15  1  0.53395018  0.82589409  0.90220755  1
  V  V16  1  0.18013632  -0.04086564  0.59573867  1
  V  V17  1  0.10764158  0.59719224  0.46682923  1
  V  V18  1  0.05327377  0.04753022  0.50600092  1
  V  V19  1  0.64347836  -0.01352913  0.60353446  1
  V  V20  1  0.79745289  0.15266501  0.86985219  1
  V  V21  1  -0.00342935  0.36318552  0.83722919  1
  V  V22  1  0.19015871  0.12949233  0.90726797  1
  V  V23  1  0.81460718  0.06996664  0.43119454  1
  V  V24  1  0.73991106  0.61426334  0.34807046  1
  V  V25  1  0.65461183  0.44381198  0.75295111  1
  V  V26  1  0.62802640  0.88481995  0.75678132  1
  V  V27  1  0.24222613  0.75482890  0.00407824  1
  V  V28  1  0.88864679  0.14556276  0.21228477  1
  V  V29  1  -0.02499514  0.78604618  0.27168756  1
  V  V30  1  0.77499219  -0.01340297  0.76074890  1
  V  V31  1  0.92346131  0.20437376  0.64582403  1
  V  V32  1  0.39477152  0.09686200  0.83916319  1
  V  V33  1  0.47954010  0.38639720  0.32379991  1
  V  V34  1  -0.00947440  0.26073678  0.26840380  1
  V  V35  1  0.84280361  0.48213891  0.35326421  1
  V  V36  1  0.18615737  0.28788257  0.72784865  1
  V  V37  1  0.32868786  0.39030181  0.00788376  1
  V  V38  1  0.10320205  0.62728691  -0.05924980  1
  V  V39  1  0.78981587  0.51744706  0.70347791  1
  V  V40  1  0.64801892  0.86125717  0.25289237  1
  V  V41  1  0.51496629  0.71389761  0.74646777  1
  V  V42  1  0.75996467  0.03164511  0.24137860  1
  V  V43  1  0.80322689  0.73737794  0.49307026  1
  V  V44  1  0.23119053  0.80253792  0.38020035  1
  V  V45  1  0.65805906  0.70775586  0.84123802  1
  V  V46  1  0.31952611  0.26078550  0.14663850  1
  V  V47  1  0.12694815  -0.01846819  0.17705225  1
  V  V48  1  0.69150288  0.30133938  0.49063138  1
  V  V49  1  0.87142136  0.28656341  0.10115285  1
  V  V50  1  0.10910073  0.59327471  0.64801036  1
  Zn  Zn51  1  0.93270679  0.63935383  0.41471497  1
  Zn  Zn52  1  0.76186578  0.83671287  0.84821551  1
  Zn  Zn53  1  0.19892553  0.48801854  0.99606185  1
  Zn  Zn54  1  0.20902770  0.09576068  0.72835616  1
  Zn  Zn55  1  0.80431587  0.07473775  0.61787980  1
  Zn  Zn56  1  0.81782035  0.89359456  0.36822071  1
  Zn  Zn57  1  1.00788243  0.47686451  -0.05008386  1
  Zn  Zn58  1  0.15766776  0.69961617  0.76102968  1
  Zn  Zn59  1  0.23233042  0.34311705  0.29499533  1
  Zn  Zn60  1  0.46119840  0.85039759  0.22848485  1
  Zn  Zn61  1  0.28276163  0.52222183  0.38918463  1
  Zn  Zn62  1  0.73956625  0.95341542  0.96372451  1
  Zn  Zn63  1  0.77931284  0.73065993  0.20020361  1
  Zn  Zn64  1  0.81192682  0.32150662  0.77538477  1
  Zn  Zn65  1  0.90193774  0.41580651  0.21650363  1
  Zn  Zn66  1  0.64202968  0.46762133  0.40294301  1
  Zn  Zn67  1  0.55997177  0.02150945  0.88097046  1
  Zn  Zn68  1  0.72593837  0.16715796  0.14082711  1
  Zn  Zn69  1  0.96772968  0.19847879  0.46055467  1
  Zn  Zn70  1  0.44075836  0.93174778  0.78860853  1
  Zn  Zn71  1  0.35045240  -0.00912161  0.66240630  1
  Zn  Zn72  1  0.91888309  0.95322969  0.20297165  1
  Zn  Zn73  1  0.05327707  0.17682348  0.78402177  1
  Zn  Zn74  1  0.92503119  0.68138002  0.98804183  1
  Zn  Zn75  1  0.82577412  0.06743053  0.04217687  1
  Zn  Zn76  1  0.47649134  0.29458923  0.05157590  1
  Zn  Zn77  1  0.71481098  0.68103171  0.66094675  1
  Zn  Zn78  1  0.55207825  0.34997196  0.47137710  1
  Zn  Zn79  1  0.40474646  0.42155721  0.15634224  1
  Zn  Zn80  1  0.54495666  0.62778376  0.38089764  1
  Zn  Zn81  1  0.97361144  1.00252344  0.68562826  1
  Zn  Zn82  1  0.94925103  0.23091989  0.92592045  1
  Zn  Zn83  1  0.65500960  0.00207286  0.39888895  1
  Zn  Zn84  1  0.12650556  0.19382822  0.14675371  1
  Zn  Zn85  1  0.96840566  0.54415746  0.76877652  1
  Zn  Zn86  1  0.32852308  0.56112326  0.10529102  1
  Zn  Zn87  1  0.81376858  0.30199031  0.33137941  1
  Zn  Zn88  1  0.35859947  0.78463025  0.84854695  1
  Zn  Zn89  1  0.13573433  0.91719126  0.97490792  1
  Zn  Zn90  1  0.53329567  0.52144908  0.66876228  1
  Zn  Zn91  1  0.13904734  0.50645037  0.80709084  1
  Zn  Zn92  1  -0.04346227  0.07092078  0.34275330  1
  Zn  Zn93  1  0.31849174  0.27211795  0.85805786  1
  Zn  Zn94  1  0.38770498  0.13707773  1.02881596  1
  Zn  Zn95  1  0.14699145  0.77874452  0.53864432  1
  Zn  Zn96  1  0.24462516  0.08498577  0.09114678  1
  Zn  Zn97  1  0.03057560  0.49731498  0.32885356  1
  Zn  Zn98  1  0.41794585  0.68286793  0.96147517  1
  Zn  Zn99  1  0.09001297  0.23238671  0.58650036  1
  Zn  Zn100  1  0.50098563  0.85218516  0.64533448  1
  Zn  Zn101  1  0.69720123  0.52238192  0.90030480  1
  O  O102  1  0.11952834  0.08350617  0.16040948  1
  O  O103  1  0.15550352  0.01890155  0.66954649  1
  O  O104  1  0.06603439  0.60311002  0.13414224  1
  O  O105  1  0.09858522  0.54904317  0.55415274  1
  O  O106  1  0.64157302  0.11538596  0.10252650  1
  O  O107  1  0.58282384  0.05272989  0.61566986  1
  O  O108  1  0.76870050  0.53935898  0.11348558  1
  O  O109  1  0.62758000  0.64295483  0.59140273  1
  O  O110  1  0.39025648  0.32991850  0.35747939  1
  O  O111  1  0.33934168  0.36780002  0.91303632  1
  O  O112  1  0.48281540  0.80285187  0.37604898  1
  O  O113  1  0.44451664  0.77881856  0.92085790  1
  O  O114  1  0.81392804  0.40063267  0.28999346  1
  O  O115  1  0.90667452  0.37267606  0.81042133  1
  O  O116  1  0.85153435  0.98208132  0.42886615  1
  O  O117  1  0.90928864  0.84525857  0.82623397  1
  O  O118  1  0.36242110  0.09213893  0.38448353  1
  O  O119  1  0.23803011  -0.05374997  0.92858634  1
  O  O120  1  0.24990677  0.45431091  0.30354190  1
  O  O121  1  0.21818338  0.53510114  0.88424804  1
  O  O122  1  0.74224371  0.06580023  0.36187000  1
  O  O123  1  0.77202198  -0.05246454  0.85347764  1
  O  O124  1  0.73311373  0.51000753  0.35986680  1
  O  O125  1  0.79416632  0.54603251  0.85355855  1
  O  O126  1  0.16982013  0.46859371  0.11125045  1
  O  O127  1  0.19092040  0.56785193  0.42949586  1
  O  O128  1  0.22296116  1.01379708  0.17949738  1
  O  O129  1  0.27606794  0.95697361  0.59008032  1
  O  O130  1  0.75964474  0.51279289  0.04738157  1
  O  O131  1  0.78080091  0.51558879  0.61144322  1
  O  O132  1  0.76559552  1.02671948  0.13882177  1
  O  O133  1  0.72828620  1.01110603  0.66219037  1
  O  O134  1  -0.01490575  0.35428668  0.25700521  1
  O  O135  1  0.09856557  0.33709171  0.78173199  1
  O  O136  1  -0.08650627  0.87054463  0.28436509  1
  O  O137  1  0.03546310  0.91940337  0.72936631  1
  O  O138  1  0.48122656  0.39376459  0.22724836  1
  O  O139  1  0.57192259  0.42893124  0.69976586  1
  O  O140  1  0.56002139  0.82143393  0.23772705  1
  O  O141  1  0.53606008  0.82866156  0.75307426  1
  O  O142  1  0.54774741  0.18005345  0.32496422  1
  O  O143  1  0.48658995  0.07553474  0.82090017  1
  O  O144  1  0.48223055  0.63243235  0.29278559  1
  O  O145  1  0.52030509  0.61979972  0.72191493  1
  O  O146  1  0.97992832  0.14003578  0.25829422  1
  O  O147  1  1.00484746  0.07199016  0.77142342  1
  O  O148  1  1.03784956  0.71351292  0.26549851  1
  O  O149  1  1.16243586  0.53715340  0.70355399  1
  O  O150  1  0.32519835  0.27684212  0.02344938  1
  O  O151  1  0.33488015  0.11781316  0.53792820  1
  O  O152  1  0.33175505  0.79018130  0.02199146  1
  O  O153  1  0.32570996  0.78670439  0.38557513  1
  O  O154  1  0.89029779  0.26345220  0.00823353  1
  O  O155  1  0.91977769  0.23276458  0.55271280  1
  O  O156  1  0.88027601  0.77662381  0.01716460  1
  O  O157  1  0.89155483  0.69938411  0.49720277  1
  O  O158  1  0.07693399  0.30783351  0.50833820  1
  O  O159  1  0.04287235  0.17599972  1.06209967  1
  O  O160  1  0.14275152  0.83023713  0.43397620  1
  O  O161  1  0.11054740  0.65303938  1.11951837  1
  O  O162  1  0.60606513  0.25696726  0.48117891  1
  O  O163  1  0.56522249  0.24121072  1.02558021  1
  O  O164  1  0.61808095  0.82185094  0.48020864  1
  O  O165  1  0.68578952  0.72767925  0.94906964  1
  O  O166  1  0.41598652  0.26597864  0.14500789  1
  O  O167  1  0.43818845  0.21725105  0.63048406  1
  O  O168  1  0.40962104  0.80265721  0.14294122  1
  O  O169  1  0.50769808  0.73940769  0.63346840  1
  O  O170  1  0.93678707  0.24055420  0.16145339  1
  O  O171  1  1.01910282  0.21071848  0.67422558  1
  O  O172  1  1.00684551  0.80672309  0.18046141  1
  O  O173  1  1.14969333  0.68290785  0.64937545  1
  O  O174  1  0.01257973  0.25698912  0.37487825  1
  O  O175  1  0.00220817  0.26211235  0.83589046  1
  O  O176  1  -0.05978568  0.73868319  0.35328418  1
  O  O177  1  -0.04527431  0.79491474  0.83503174  1
  O  O178  1  0.45190375  0.28500068  0.35609569  1
  O  O179  1  0.38811989  0.24335746  0.98783905  1
  O  O180  1  0.47037304  0.82589448  0.44177502  1
  O  O181  1  0.55183080  0.72116107  0.85093023  1
  O  O182  1  0.28931115  0.13278413  0.59023035  1
  O  O183  1  0.19436919  0.09310388  0.99864473  1
  O  O184  1  0.18815829  0.71394440  0.36330352  1
  O  O185  1  0.19614957  0.65538927  0.97176587  1
  O  O186  1  0.73987723  0.24194309  0.56978673  1
  O  O187  1  0.77388462  0.12611236  0.96267938  1
  O  O188  1  0.75025056  0.67840666  0.42997582  1
  O  O189  1  0.82231200  0.66911285  0.94174761  1
  O  O190  1  0.21910071  0.37652005  0.00870679  1
  O  O191  1  0.34116712  0.29818149  0.54184678  1
  O  O192  1  0.17512749  0.81979766  0.00350176  1
  O  O193  1  0.23819260  0.90002639  0.37960928  1
  O  O194  1  0.76403481  0.37971110  -0.03906714  1
  O  O195  1  0.66352275  0.39584979  0.48630447  1
  O  O196  1  0.77646349  0.84442135  -0.03438203  1
  O  O197  1  0.63367445  0.77950692  0.42672191  1
  O  O198  1  0.11405204  0.52447780  0.26085730  1
  O  O199  1  0.15588983  0.38988636  0.75848013  1
  O  O200  1  0.11802971  0.98321151  0.27514868  1
  O  O201  1  0.20412493  0.91868783  0.77672261  1
  O  O202  1  0.62210259  0.57817901  0.17160679  1
  O  O203  1  0.67785714  0.53268554  0.72807118  1
  O  O204  1  0.66406061  1.03925101  0.23593733  1
  O  O205  1  0.61900991  0.97320557  0.79201952  1
  O  O206  1  0.43289900  0.08149769  0.22915026  1
  O  O207  1  0.34858405  0.02019643  0.78202942  1
  O  O208  1  0.40359459  0.53100111  0.18483080  1
  O  O209  1  0.37520229  0.49438291  0.75152477  1
  O  O210  1  0.88383485  0.04161410  0.25605903  1
  O  O211  1  0.86255990  -0.02505709  0.72738926  1
  O  O212  1  0.67696708  0.39256331  0.12681089  1
  O  O213  1  0.88200719  0.49826561  0.72058047  1
  O  O214  1  0.06164198  0.41549753  0.39500150  1
  O  O215  1  0.05011152  0.21377257  1.00271925  1
  O  O216  1  0.00369538  0.80807447  0.54387491  1
  O  O217  1  0.08434459  0.91571977  0.88000536  1
  O  O218  1  0.57155513  0.38402251  0.36041408  1
  O  O219  1  0.63802069  0.44455791  0.85005248  1
  O  O220  1  0.63674471  0.91434750  0.33622399  1
  O  O221  1  0.63941601  0.83365791  0.84968945  1
  O  O222  1  0.31723771  0.15809947  0.11511409  1
  O  O223  1  0.47325008  0.16121666  0.64586481  1
  O  O224  1  0.38941469  0.65274078  0.06373317  1
  O  O225  1  0.32851437  0.47014659  0.70627462  1
  O  O226  1  0.89164783  0.11253315  0.11894160  1
  O  O227  1  0.89635110  0.10929083  0.65460349  1
  O  O228  1  0.91313413  0.61628426  0.09148059  1
  O  O229  1  1.02367001  0.59852744  0.69183570  1
  O  O230  1  0.20382289  0.26103359  0.11419173  1
  O  O231  1  0.30813785  0.09943688  0.66653272  1
  O  O232  1  0.24965624  0.72114984  0.10401402  1
  O  O233  1  0.25045302  0.77492370  0.48565666  1
  O  O234  1  0.78098861  0.25674921  0.12410598  1
  O  O235  1  0.70855379  0.30319454  0.60239175  1
  O  O236  1  0.75639655  0.73087767  0.09153377  1
  O  O237  1  0.76311642  0.73927041  0.58298613  1
  O  O238  1  0.17302089  0.30578612  0.37944450  1
  O  O239  1  0.23725064  0.21182902  0.90177980  1
  O  O240  1  0.22640359  0.80414007  0.28205884  1
  O  O241  1  0.27294330  0.73686151  0.89948001  1
  O  O242  1  0.75040252  0.28151353  0.41516609  1
  O  O243  1  0.77089903  0.24157184  0.84348208  1
  O  O244  1  0.80734658  0.82092975  0.44406691  1
  O  O245  1  0.76387479  0.72981253  0.82154951  1
  O  O246  1  -0.01287299  0.05572490  -0.09544593  1
  O  O247  1  0.05702943  0.14683794  0.51483631  1
  O  O248  1  0.03181300  0.67884579  -0.02237894  1
  O  O249  1  0.10355510  0.68695603  0.50141999  1
  O  O250  1  0.48808543  0.11230444  0.05820432  1
  O  O251  1  0.45924608  0.18968152  0.47851500  1
  O  O252  1  0.52486152  0.59493335  -0.03123671  1
  O  O253  1  0.52420461  0.68014960  0.48171416  1
  O  O254  1  0.47507690  0.41247486  0.51318597  1
  O  O255  1  0.42729947  0.39200957  1.04429079  1
  O  O256  1  0.39987362  0.96834725  0.48113637  1
  O  O257  1  0.57000842  0.82922461  0.98569086  1
  O  O258  1  0.89447267  0.39031317  0.57797909  1
  O  O259  1  0.99751324  0.37163377  0.93525260  1
  O  O260  1  0.96482661  0.86164073  0.52543546  1
  O  O261  1  0.97310930  0.89430426  0.99515841  1
  O  O262  1  0.44617766  0.46666840  0.36774791  1
  O  O263  1  0.51533047  0.52803531  0.98258739  1
  O  O264  1  0.45820980  1.03720807  0.27391556  1
  O  O265  1  0.50445013  0.92116644  0.88108893  1
  O  O266  1  0.92792264  0.49566844  0.28943134  1
  O  O267  1  1.03104884  0.47102950  0.82638949  1
  O  O268  1  1.02034772  1.02799065  0.41567323  1
  O  O269  1  0.97792522  1.02669617  0.84125726  1
  O  O270  1  0.02715759  -0.02522444  0.17942999  1
  O  O271  1  -0.00138616  0.00901552  0.57687336  1
  O  O272  1  -0.07284527  0.54807121  0.06826962  1
  O  O273  1  0.01857177  0.40226946  0.65779479  1
  O  O274  1  0.55168820  -0.00747278  0.13785002  1
  O  O275  1  0.43461102  -0.07101117  0.67806590  1
  O  O276  1  0.57413487  0.56951322  0.12270559  1
  O  O277  1  0.48938992  0.56236779  0.57575994  1
  O  O278  1  0.16992012  0.38060790  0.20980797  1
  O  O279  1  0.27658304  0.29594381  0.75405334  1
  O  O280  1  0.38655471  0.90643822  0.27242966  1
  O  O281  1  0.34264758  0.88855530  0.82914847  1
  O  O282  1  0.66068380  0.42959755  0.18392824  1
  O  O283  1  0.74890638  0.40745880  0.73498980  1
  O  O284  1  0.77949214  0.94211197  0.27686215  1
  O  O285  1  0.72541588  0.88186851  0.73515649  1
  O  O286  1  0.22015802  0.15093989  0.31598968  1
  O  O287  1  0.22456778  0.06123809  0.83466092  1
  O  O288  1  0.25014179  0.55892798  0.18664532  1
  O  O289  1  0.25362644  0.64807441  0.78492692  1
  O  O290  1  0.78632785  0.14053163  0.23350265  1
  O  O291  1  0.76899428  0.08126134  0.79552514  1
  O  O292  1  0.77094170  0.64034800  0.25930308  1
  O  O293  1  0.79098425  0.62281062  0.72618994  1
  O  O294  1  0.36626732  0.15561865  0.36023462  1
  O  O295  1  0.37273906  0.08104127  0.93322018  1
  O  O296  1  0.34226434  0.59078895  0.33067308  1
  O  O297  1  0.35716142  0.61265462  0.90013143  1
  O  O298  1  0.89085883  0.13218855  0.41210660  1
  O  O299  1  0.89269396  0.15413755  0.86859957  1
  O  O300  1  0.84737982  0.58483013  0.37456950  1
  O  O301  1  0.91478776  0.63216996  0.82288134  1
  O  O302  1  0.08023348  0.34444030  0.08266853  1
  O  O303  1  0.17919044  0.28441645  0.63065047  1
  O  O304  1  0.15617477  0.89023232  0.17274052  1
  O  O305  1  0.14715860  0.86734552  0.60221235  1
  O  O306  1  0.71029607  0.34404605  -0.01486820  1
  O  O307  1  0.51841068  0.25880813  0.76205320  1
  O  O308  1  0.66912457  0.90655928  0.16503277  1
  O  O309  1  0.60494378  0.90047323  0.64650183  1
  O  O310  1  0.07722444  0.23945540  0.23152086  1
  O  O311  1  0.15943930  0.19201104  0.74794402  1
  O  O312  1  0.03242141  0.84694380  0.32329325  1
  O  O313  1  0.11100580  0.79190488  0.78299289  1
  O  O314  1  0.59277310  0.13938480  0.36006489  1
  O  O315  1  0.54455146  0.28134195  0.82261209  1
  O  O316  1  0.71608187  0.79427310  0.26288217  1
  O  O317  1  0.64091147  0.71734270  0.73941564  1
  O  O318  1  0.29329949  0.26722581  0.24126757  1
  O  O319  1  0.37931213  0.18800150  0.81723972  1
  O  O320  1  0.35550544  0.68479368  0.21011918  1
  O  O321  1  0.42403100  0.72952981  0.77004720  1
  O  O322  1  0.88419162  0.23516241  0.28825399  1
  O  O323  1  0.86426145  0.26050292  0.69724536  1
  O  O324  1  0.89180507  0.74821667  0.22742109  1
  O  O325  1  0.93725101  0.75646658  0.67429368  1
  O  O326  1  0.36996837  0.52458817  0.47298889  1
  O  O327  1  0.31252494  0.49079910  1.02014112  1
  O  O328  1  0.47860328  1.12623580  0.49325501  1
  O  O329  1  0.33829009  1.00017144  1.07532514  1
  O  O330  1  0.87139699  0.44356830  0.43055010  1
  O  O331  1  0.92523681  0.54203308  0.98696621  1
  O  O332  1  0.77461368  1.09338151  0.51779282  1
  O  O333  1  0.84455684  0.97303633  0.99204693  1
  O  O334  1  0.12089587  -0.03216976  0.07465050  1
  O  O335  1  0.14383297  0.00485161  0.51169411  1
  O  O336  1  0.09520431  0.53492245  -0.02330341  1
  O  O337  1  0.03896488  0.42148284  0.59431371  1
  O  O338  1  0.65742253  -0.02200152  0.02638846  1
  O  O339  1  0.65781207  -0.02528527  0.50688450  1
  O  O340  1  0.69162809  0.53312773  0.01252598  1
  O  O341  1  0.55235402  0.53097110  0.43667810  1
  O  O342  1  0.30840534  0.36789748  0.12639105  1
  O  O343  1  0.34886712  0.33656015  0.60012592  1
  O  O344  1  0.33239695  0.93084640  0.07772848  1
  O  O345  1  0.44867152  0.97787785  0.43231483  1
  O  O346  1  0.87855730  0.38226573  0.11647862  1
  O  O347  1  0.82915059  0.37732717  0.56360301  1
  O  O348  1  0.87944811  0.90092075  0.11967884  1
  O  O349  1  0.89402447  0.80879075  0.66978372  1
  O  O350  1  0.18970316  0.12961459  0.37497063  1
  O  O351  1  0.09780671  0.14411311  0.88606786  1
  O  O352  1  0.02700617  0.58464048  0.40770197  1
  O  O353  1  0.10054735  0.62901295  0.84261680  1
  O  O354  1  0.56556791  0.07152702  0.38268635  1
  O  O355  1  0.59499101  0.10208361  0.94286551  1
  O  O356  1  0.64530877  0.62825653  0.34290888  1
  O  O357  1  0.65672428  0.61604760  0.85665776  1
