# generated using pymatgen
data_V51Zn51O256
_symmetry_space_group_name_H-M   'P 1'
_cell_length_a   18.11309961
_cell_length_b   17.71121895
_cell_length_c   17.61018130
_cell_angle_alpha   90.35406993
_cell_angle_beta   90.14548020
_cell_angle_gamma   91.88941860
_symmetry_Int_Tables_number   1
_chemical_formula_structural   V51Zn51O256
_chemical_formula_sum   'V51 Zn51 O256'
_cell_volume   5646.23495209
_cell_formula_units_Z   1
loop_
 _symmetry_equiv_pos_site_id
 _symmetry_equiv_pos_as_xyz
  1  'x, y, z'
loop_
 _atom_site_type_symbol
 _atom_site_label
 _atom_site_symmetry_multiplicity
 _atom_site_fract_x
 _atom_site_fract_y
 _atom_site_fract_z
 _atom_site_occupancy
  V  V0  1  0.03965873  0.47076976  0.02310372  1
  V  V1  1  0.92665219  0.43772334  0.88656331  1
  V  V2  1  0.21795636  0.83442877  0.16553780  1
  V  V3  1  0.88374402  0.72542211  0.65760544  1
  V  V4  1  0.13958681  0.81349207  0.43844536  1
  V  V5  1  0.91553010  0.59883175  0.80608075  1
  V  V6  1  0.12098573  0.17779332  0.41850678  1
  V  V7  1  0.31389392  0.53130426  0.28278635  1
  V  V8  1  0.03259867  0.72263627  0.79112576  1
  V  V9  1  0.16402454  0.18198567  -0.01632189  1
  V  V10  1  0.04065878  0.24566197  0.73003669  1
  V  V11  1  0.32795128  0.17852592  0.70418382  1
  V  V12  1  0.73909887  0.87054216  0.15070262  1
  V  V13  1  0.88893376  0.89082133  -0.04032026  1
  V  V14  1  0.45412250  0.80910624  0.69926807  1
  V  V15  1  0.43904531  0.51537684  0.84874320  1
  V  V16  1  0.25858101  0.32556461  0.08423537  1
  V  V17  1  -0.05500376  -0.02919252  0.53252211  1
  V  V18  1  -0.03639425  0.84728230  0.37449391  1
  V  V19  1  0.42521971  0.19789178  0.23746829  1
  V  V20  1  0.58297972  0.76742826  0.82961121  1
  V  V21  1  0.35498802  0.29605962  0.57725288  1
  V  V22  1  0.75965469  0.26362248  0.53023640  1
  V  V23  1  0.82592052  0.74716867  0.15734373  1
  V  V24  1  0.49916503  0.27196933  0.68240309  1
  V  V25  1  0.44295730  0.12711782  0.56748591  1
  V  V26  1  0.80299695  0.40111201  0.66663094  1
  V  V27  1  -0.05488312  0.14307963  0.64356591  1
  V  V28  1  0.46479852  0.88000943  0.32229688  1
  V  V29  1  0.68505545  0.30857967  0.25049097  1
  V  V30  1  0.27471193  0.09368622  0.25626158  1
  V  V31  1  0.67719655  0.76977141  0.45302358  1
  V  V32  1  0.13286602  0.51618858  0.60558509  1
  V  V33  1  0.36832786  0.09344534  0.83123870  1
  V  V34  1  0.71779521  0.06810373  0.40242530  1
  V  V35  1  0.79610886  0.73508970  -0.06105886  1
  V  V36  1  0.21946585  0.49995439  0.76995785  1
  V  V37  1  0.01328234  0.62530253  0.62381427  1
  V  V38  1  0.40048326  0.61210322  0.71536893  1
  V  V39  1  0.23034506  0.31110845  0.45987770  1
  V  V40  1  0.22431038  0.84986914  0.69239469  1
  V  V41  1  0.07498586  0.90891712  0.77854662  1
  V  V42  1  0.89336007  0.33766399  0.05166629  1
  V  V43  1  0.76146863  0.61855273  0.45255209  1
  V  V44  1  0.03058035  0.64953806  0.11395369  1
  V  V45  1  0.01022374  -0.00968142  0.01628034  1
  V  V46  1  0.08703436  0.48883227  0.27741272  1
  V  V47  1  0.78626938  -0.00436149  0.24798257  1
  V  V48  1  0.47805819  0.52320568  0.21107573  1
  V  V49  1  0.26214380  0.62073152  0.88803073  1
  V  V50  1  0.01899940  0.21654946  0.29103945  1
  Zn  Zn51  1  0.92905147  0.69339682  0.46902498  1
  Zn  Zn52  1  0.19382540  0.67180145  0.70219028  1
  Zn  Zn53  1  0.36559079  0.97751537  0.67122022  1
  Zn  Zn54  1  0.81084284  0.75775520  0.34212837  1
  Zn  Zn55  1  0.40065618  0.72007692  0.85512930  1
  Zn  Zn56  1  0.89350425  0.30569258  0.76437933  1
  Zn  Zn57  1  0.88761287  0.81564262  0.79898989  1
  Zn  Zn58  1  0.95578513  0.36243054  0.23834792  1
  Zn  Zn59  1  0.02899145  0.67958641  0.30726453  1
  Zn  Zn60  1  0.51455436  0.13860144  0.76641487  1
  Zn  Zn61  1  0.66309623  0.11297702  0.24469666  1
  Zn  Zn62  1  0.79744867  0.91590554  0.44628109  1
  Zn  Zn63  1  0.99914099  0.25349608  0.92479670  1
  Zn  Zn64  1  0.37128246  0.39639027  0.73812513  1
  Zn  Zn65  1  0.22148247  0.18109132  0.58437851  1
  Zn  Zn66  1  0.56552555  0.61023916  0.76892604  1
  Zn  Zn67  1  0.19862592  0.35130433  0.66662756  1
  Zn  Zn68  1  0.98569677  0.44359368  0.70186614  1
  Zn  Zn69  1  0.57586429  0.26502282  0.15789826  1
  Zn  Zn70  1  0.39188108  0.55950172  0.03182778  1
  Zn  Zn71  1  0.47733864  0.43274987  0.60106536  1
  Zn  Zn72  1  0.63163594  0.52211627  0.32760959  1
  Zn  Zn73  1  0.07361740  0.34391292  0.53983707  1
  Zn  Zn74  1  0.20253648  0.78880377  0.86334803  1
  Zn  Zn75  1  0.20165640  0.49515700  0.42649924  1
  Zn  Zn76  1  0.81238613  0.57381517  0.63234769  1
  Zn  Zn77  1  0.27457435  0.91509531  0.34461819  1
  Zn  Zn78  1  0.08263735  0.05414898  0.20269197  1
  Zn  Zn79  1  0.93918143  0.25713173  0.44770827  1
  Zn  Zn80  1  0.22726957  0.49860973  0.98270322  1
  Zn  Zn81  1  0.51487441  0.82837195  0.51861239  1
  Zn  Zn82  1  0.38104420  0.36407931  0.21353596  1
  Zn  Zn83  1  0.87329578  0.60030305  0.01378482  1
  Zn  Zn84  1  0.53159460  0.06242520  0.31081594  1
  Zn  Zn85  1  0.05347695  0.79188480  -0.02189221  1
  Zn  Zn86  1  0.77634995  0.43324037  0.99041521  1
  Zn  Zn87  1  0.23164569  0.04124541  0.09465017  1
  Zn  Zn88  1  0.75124883  0.67772270  0.77479480  1
  Zn  Zn89  1  0.07275763  0.09804983  0.84636286  1
  Zn  Zn90  1  0.04972076  0.82465072  0.61768867  1
  Zn  Zn91  1  0.17605723  0.63432281  0.21585520  1
  Zn  Zn92  1  0.80505107  0.00542702  0.04204820  1
  Zn  Zn93  1  0.36121310  0.96131640  0.18546505  1
  Zn  Zn94  1  0.81862693  0.19540008  0.30153654  1
  Zn  Zn95  1  0.62664453  0.16847228  0.60396423  1
  Zn  Zn96  1  0.06399073  0.98770180  0.38632958  1
  Zn  Zn97  1  0.78735484  0.07358382  0.56872870  1
  Zn  Zn98  1  0.68987330  0.85959351  -0.02508420  1
  Zn  Zn99  1  0.21602775  0.36716232  0.27703291  1
  Zn  Zn100  1  0.31939338  0.16622524  0.43536957  1
  Zn  Zn101  1  0.10008293  0.34987682  0.15028086  1
  O  O102  1  0.16742320  0.10941530  0.04792397  1
  O  O103  1  -0.02169926  0.21208115  0.56860660  1
  O  O104  1  0.12324559  0.63663677  0.12027789  1
  O  O105  1  0.11488903  0.62574093  0.63462885  1
  O  O106  1  0.65834520  0.11840558  0.10203563  1
  O  O107  1  0.53825355  0.12871368  0.55655889  1
  O  O108  1  0.65287490  0.51461948  -0.04664776  1
  O  O109  1  0.64111758  0.41360327  0.79449967  1
  O  O110  1  0.40333401  0.44959444  0.42793439  1
  O  O111  1  0.40530670  0.42377588  0.84115971  1
  O  O112  1  0.36590414  0.86092536  0.33795199  1
  O  O113  1  0.32180707  1.05528779  0.90149556  1
  O  O114  1  0.87793246  0.42104652  0.46243635  1
  O  O115  1  0.93192957  0.34146485  0.86774260  1
  O  O116  1  0.86528609  0.84225667  0.39770601  1
  O  O117  1  0.89471492  0.90432293  0.86543555  1
  O  O118  1  0.31492079  -0.00690481  0.44458148  1
  O  O119  1  0.46713955  0.16999257  1.00153763  1
  O  O120  1  0.27942876  0.54739599  0.37112015  1
  O  O121  1  0.25144217  0.50463975  0.86881467  1
  O  O122  1  0.76370637  -0.01158574  0.36070592  1
  O  O123  1  0.79023913  0.03219724  0.81489340  1
  O  O124  1  0.79708421  0.56306592  0.52111023  1
  O  O125  1  0.83617231  0.45929734  0.90311735  1
  O  O126  1  0.26793631  0.58463997  0.21948777  1
  O  O127  1  0.21362976  0.52533777  0.65737901  1
  O  O128  1  0.21100739  0.92705891  0.12560603  1
  O  O129  1  0.17166577  1.04107908  0.59823592  1
  O  O130  1  0.81881755  0.51122077  0.06622507  1
  O  O131  1  0.76220930  0.48725963  0.67471320  1
  O  O132  1  0.77324666  0.97915320  0.14188899  1
  O  O133  1  0.65459970  0.95380276  0.64234071  1
  O  O134  1  -0.00159794  0.44889927  0.28964307  1
  O  O135  1  0.00104435  0.33670428  0.73506492  1
  O  O136  1  -0.03266348  0.86484406  0.28532525  1
  O  O137  1  0.00384928  0.83555470  0.77512751  1
  O  O138  1  0.39382745  0.27820228  0.27932909  1
  O  O139  1  0.47648994  0.37036452  0.68958160  1
  O  O140  1  0.45109837  0.92198964  0.22777032  1
  O  O141  1  0.42330646  0.89680591  0.71589317  1
  O  O142  1  0.46937104  0.14844620  0.30576041  1
  O  O143  1  0.45011616  0.16918043  0.67802190  1
  O  O144  1  0.56545407  0.54615722  0.24717785  1
  O  O145  1  0.49308812  0.63815981  0.69603232  1
  O  O146  1  1.01786445  0.13670132  0.23897600  1
  O  O147  1  1.02851876  0.13758611  0.69494843  1
  O  O148  1  0.99880666  0.67155453  0.20374201  1
  O  O149  1  1.02013132  0.62314132  0.77484770  1
  O  O150  1  0.34732825  0.32250402  0.11532133  1
  O  O151  1  0.32812275  0.27346238  0.47660168  1
  O  O152  1  0.55951617  0.69895877  0.03085531  1
  O  O153  1  0.32015818  0.75786666  0.51086904  1
  O  O154  1  0.92854334  0.26040299  0.00595603  1
  O  O155  1  0.84820355  0.25296587  0.49561193  1
  O  O156  1  0.87978174  0.78929404  -0.03128566  1
  O  O157  1  0.88898038  0.73582914  0.56161646  1
  O  O158  1  0.13126702  0.28263180  0.47034180  1
  O  O159  1  0.08364834  0.22960155  0.99052603  1
  O  O160  1  0.11564140  0.80954837  0.53172484  1
  O  O161  1  0.15725587  0.78936686  0.96084888  1
  O  O162  1  0.50906884  0.27372165  0.40394313  1
  O  O163  1  0.63016644  0.17385349  1.07185943  1
  O  O164  1  0.58268530  0.76836281  0.46601879  1
  O  O165  1  0.72021825  0.75570494  0.98992919  1
  O  O166  1  0.48281573  0.22246736  0.16122538  1
  O  O167  1  0.44457930  0.26030496  0.57439202  1
  O  O168  1  0.58847146  0.67633594  0.08890347  1
  O  O169  1  0.45780566  0.79247526  0.60319945  1
  O  O170  1  1.04777571  0.29719109  0.23629786  1
  O  O171  1  1.03341468  0.25695272  0.60675562  1
  O  O172  1  1.01851914  0.72794790  0.05954381  1
  O  O173  1  1.00489727  0.72790433  0.66007856  1
  O  O174  1  0.02167302  0.21397209  0.39988181  1
  O  O175  1  0.03094784  0.20829303  0.82663408  1
  O  O176  1  -0.01994276  0.74398493  0.38286653  1
  O  O177  1  0.02335509  0.73502008  0.88540761  1
  O  O178  1  0.41551309  0.39210596  0.39180619  1
  O  O179  1  0.51811552  0.25115175  0.77586167  1
  O  O180  1  0.46860639  0.79289552  0.28099493  1
  O  O181  1  0.50614754  0.73345340  0.87733428  1
  O  O182  1  0.20994393  0.17131507  0.47532768  1
  O  O183  1  0.23729571  0.25094559  1.01872965  1
  O  O184  1  0.33424153  0.71890314  0.45523923  1
  O  O185  1  0.30094040  0.58487476  0.98348055  1
  O  O186  1  0.71121168  0.04601660  0.49697008  1
  O  O187  1  0.74825265  0.08001784  0.98295640  1
  O  O188  1  0.71051933  0.68691682  0.50295133  1
  O  O189  1  0.79838938  0.64019199  0.94465180  1
  O  O190  1  0.24871646  0.40829114  0.03758146  1
  O  O191  1  0.23605351  0.40446950  0.47766496  1
  O  O192  1  0.24461375  0.78888451  0.08278909  1
  O  O193  1  0.17310922  0.99606143  0.54491690  1
  O  O194  1  0.80002108  0.33635457  0.03075657  1
  O  O195  1  0.75817405  0.34259680  0.59525805  1
  O  O196  1  0.79181993  0.91072796  -0.02452527  1
  O  O197  1  0.71520092  0.85402227  0.48418609  1
  O  O198  1  0.09893387  0.59058572  0.28952310  1
  O  O199  1  0.13105259  0.47977324  0.77671590  1
  O  O200  1  0.09943077  0.98992288  0.28620714  1
  O  O201  1  0.05524457  1.00290436  0.79004811  1
  O  O202  1  0.67181510  0.41152990  0.30032301  1
  O  O203  1  0.62655687  0.36002900  0.83605124  1
  O  O204  1  0.58094676  1.04917232  0.21557752  1
  O  O205  1  0.62158763  1.02189878  0.79584774  1
  O  O206  1  0.30317453  0.00065469  0.27732781  1
  O  O207  1  0.34170484  0.06706051  0.73436494  1
  O  O208  1  0.47020418  0.42744965  0.21044688  1
  O  O209  1  0.40049648  0.51211879  0.72200345  1
  O  O210  1  0.87371072  -0.01509894  0.25499049  1
  O  O211  1  0.78455612  -0.01354800  0.75757899  1
  O  O212  1  0.89166928  0.52098512  0.36935789  1
  O  O213  1  0.93855099  0.48930707  0.79550014  1
  O  O214  1  0.15207509  0.44334496  0.33599709  1
  O  O215  1  0.15078770  0.35092238  0.88134348  1
  O  O216  1  0.06956977  0.86957358  0.39703964  1
  O  O217  1  0.13041505  0.88722448  0.84926202  1
  O  O218  1  0.62821551  0.35149738  0.32935036  1
  O  O219  1  0.64951566  0.22704000  0.92091628  1
  O  O220  1  0.56138370  0.88385895  0.32333004  1
  O  O221  1  0.63013024  0.83304703  0.88383254  1
  O  O222  1  0.33135166  0.01402297  0.10233644  1
  O  O223  1  0.33631212  0.16472700  0.59795846  1
  O  O224  1  0.44959748  0.55626269  0.12272128  1
  O  O225  1  0.34599698  0.63290408  0.64472450  1
  O  O226  1  0.86249019  0.13654284  0.10179680  1
  O  O227  1  0.86143190  0.09200069  0.64350025  1
  O  O228  1  0.85185712  0.67704991  0.09610627  1
  O  O229  1  0.91804872  0.60890368  0.66045531  1
  O  O230  1  0.20240219  0.32413892  0.16986021  1
  O  O231  1  0.24314075  0.29351606  0.58364928  1
  O  O232  1  0.21642405  0.74130132  0.20599091  1
  O  O233  1  0.22923224  0.76287081  0.65026452  1
  O  O234  1  0.81459322  0.18418745  0.10351696  1
  O  O235  1  0.72975820  0.17724441  0.57918322  1
  O  O236  1  0.72989459  0.76387094  0.16668293  1
  O  O237  1  0.79231734  0.67970175  0.67094016  1
  O  O238  1  0.23743656  0.30506424  0.36306464  1
  O  O239  1  0.20105277  0.30984205  0.86399209  1
  O  O240  1  0.21720008  0.86930421  0.42466126  1
  O  O241  1  0.29865722  0.71757416  0.88619928  1
  O  O242  1  0.70177458  0.28238191  0.46171545  1
  O  O243  1  0.77006190  0.16057323  0.88642621  1
  O  O244  1  0.70460625  0.75390482  0.36114017  1
  O  O245  1  0.78605939  0.76153136  0.84262943  1
  O  O246  1  0.03141617  0.05352463  -0.05269619  1
  O  O247  1  -0.08746809  0.10489949  0.43168361  1
  O  O248  1  -0.01661630  0.57772139  0.03985817  1
  O  O249  1  0.00057873  0.63444293  0.52930472  1
  O  O250  1  0.56821299  0.05477528  -0.01673979  1
  O  O251  1  0.41059305  0.13107518  0.47392820  1
  O  O252  1  0.60696646  0.55597713  -0.01487254  1
  O  O253  1  0.48544661  0.53708539  0.55434360  1
  O  O254  1  0.55589169  0.39587160  0.51805741  1
  O  O255  1  0.59712279  0.26026659  0.94742535  1
  O  O256  1  0.46688319  0.86349297  0.42163677  1
  O  O257  1  0.45399702  0.87045690  1.02950592  1
  O  O258  1  0.99071701  0.36072828  0.46810401  1
  O  O259  1  1.05305384  0.38100818  1.05959949  1
  O  O260  1  0.97678643  0.89833147  0.58568390  1
  O  O261  1  0.99664006  0.88831710  0.98776437  1
  O  O262  1  0.59905883  0.48467889  0.43725604  1
  O  O263  1  0.53092315  0.52177781  0.81862639  1
  O  O264  1  0.46217082  0.98361325  0.34115553  1
  O  O265  1  0.46372787  1.08426129  0.84413545  1
  O  O266  1  0.94729477  0.55499753  0.39396928  1
  O  O267  1  1.01833245  0.46856386  0.92240534  1
  O  O268  1  0.96902465  0.95078257  0.43370285  1
  O  O269  1  1.19192617  0.98082407  0.97987251  1
  O  O270  1  0.04302178  0.01414340  0.10424549  1
  O  O271  1  -0.02149195  0.05602582  0.56749148  1
  O  O272  1  -0.00126268  0.53035908  0.10690274  1
  O  O273  1  0.03016385  0.51803302  0.63354178  1
  O  O274  1  0.47414628  -0.06712710  0.05493078  1
  O  O275  1  0.42044177  0.03672182  0.59643976  1
  O  O276  1  0.47481538  0.34726307  -0.02379316  1
  O  O277  1  0.58233462  0.52075102  0.62997636  1
  O  O278  1  0.30584197  0.43345184  0.25810603  1
  O  O279  1  0.26101598  0.41159616  0.73794975  1
  O  O280  1  0.21554118  0.86229729  0.26420083  1
  O  O281  1  0.25625406  0.84301064  0.78330151  1
  O  O282  1  0.77586995  0.28837528  0.26332135  1
  O  O283  1  0.80103467  0.35269486  0.75212059  1
  O  O284  1  0.72660738  0.90086872  0.24479844  1
  O  O285  1  0.75156797  0.92180860  0.76657128  1
  O  O286  1  0.19478950  0.08328955  0.19978133  1
  O  O287  1  0.23454497  0.16846467  0.69667136  1
  O  O288  1  0.41141609  0.55579997  0.27931787  1
  O  O289  1  0.24285539  0.60765109  0.77651244  1
  O  O290  1  0.76944717  0.09693957  0.24716908  1
  O  O291  1  0.65466876  0.06242405  0.74804777  1
  O  O292  1  0.76233147  0.54002747  0.12316183  1
  O  O293  1  0.82129442  0.59285177  0.79187994  1
  O  O294  1  0.27117166  0.13679749  0.34114421  1
  O  O295  1  0.34754314  0.19013489  0.80781837  1
  O  O296  1  0.40537351  0.70029303  0.14322950  1
  O  O297  1  0.38973143  0.60678156  0.82859709  1
  O  O298  1  0.77360062  0.14801615  0.39188369  1
  O  O299  1  0.79890332  0.11927430  0.93495074  1
  O  O300  1  0.83724969  0.66856017  0.41052001  1
  O  O301  1  0.92681276  0.60185421  0.90044064  1
  O  O302  1  0.11442256  0.46187467  0.19028759  1
  O  O303  1  0.12273147  0.41132387  0.61102720  1
  O  O304  1  0.12359406  0.83670239  0.15032999  1
  O  O305  1  0.12549384  0.88356808  0.68982141  1
  O  O306  1  0.65775205  0.33421700  0.15859268  1
  O  O307  1  0.56386512  0.24595797  0.43028108  1
  O  O308  1  0.66996242  0.88074619  0.08485699  1
  O  O309  1  0.54748418  0.91827746  0.58675172  1
  O  O310  1  0.13043341  0.19190449  0.32386408  1
  O  O311  1  0.12955955  0.27277703  0.71691617  1
  O  O312  1  0.12792550  0.73795841  0.35488960  1
  O  O313  1  0.12899512  0.73336728  0.77796911  1
  O  O314  1  0.63652815  0.21938847  0.25061974  1
  O  O315  1  0.58162512  0.26609672  0.63875021  1
  O  O316  1  0.71070940  0.57555364  0.09553675  1
  O  O317  1  0.54699025  0.80779972  0.74632708  1
  O  O318  1  0.34707563  0.13978750  0.20377248  1
  O  O319  1  0.34859063  0.28231246  0.68833028  1
  O  O320  1  0.45361384  0.74889312  0.12864993  1
  O  O321  1  0.39623853  0.74212667  0.74468279  1
  O  O322  1  0.92282796  0.23898699  0.30308922  1
  O  O323  1  0.91886104  0.21700917  0.70565494  1
  O  O324  1  0.85698115  0.73363714  0.24778126  1
  O  O325  1  0.91711832  0.70719273  0.77758644  1
  O  O326  1  0.55221352  0.42680957  0.44974590  1
  O  O327  1  0.44685433  0.52792128  0.94558354  1
  O  O328  1  0.33901783  0.95904021  0.50037416  1
  O  O329  1  0.44079436  1.11614656  1.03658627  1
  O  O330  1  0.93907430  0.42338072  0.49446039  1
  O  O331  1  0.92547860  0.42354819  1.00714350  1
  O  O332  1  0.84704364  0.97614235  0.52765025  1
  O  O333  1  0.90876440  0.98732075  1.01327403  1
  O  O334  1  0.13121638  -0.05345442  -0.01639362  1
  O  O335  1  -0.08206300  0.07807097  0.36749630  1
  O  O336  1  0.12566803  0.50855284  0.01597313  1
  O  O337  1  0.14612497  0.53184811  0.51104427  1
  O  O338  1  0.60860215  0.00821127  -0.04498659  1
  O  O339  1  0.61509674  -0.04416905  0.58322705  1
  O  O340  1  0.66764467  0.44750358  -0.00889711  1
  O  O341  1  0.55357930  0.56188637  0.57745332  1
  O  O342  1  0.52667939  0.39239658  -0.01547202  1
  O  O343  1  0.37376708  0.39058127  0.57514034  1
  O  O344  1  0.31927273  0.86000377  0.17586027  1
  O  O345  1  0.27889687  0.91577915  0.64594333  1
  O  O346  1  0.90520430  0.33804867  0.14958456  1
  O  O347  1  0.89393717  0.41511197  0.64307401  1
  O  O348  1  0.83701826  0.84426243  0.12646564  1
  O  O349  1  0.86809819  0.81413799  0.68958996  1
  O  O350  1  0.09197470  0.08578324  0.43082993  1
  O  O351  1  0.16522344  0.14341150  0.89374749  1
  O  O352  1  0.16828557  0.71283469  0.41567748  1
  O  O353  1  0.17799182  0.63569480  0.91324315  1
  O  O354  1  0.63028113  0.07900249  0.36169422  1
  O  O355  1  0.60633959  0.11497977  0.70909043  1
  O  O356  1  0.71022669  0.57098323  0.38316848  1
  O  O357  1  0.63956007  0.68743023  0.79801347  1
