# generated using pymatgen
data_V51Zn51O256
_symmetry_space_group_name_H-M   'P 1'
_cell_length_a   18.07894753
_cell_length_b   17.85231949
_cell_length_c   17.61996481
_cell_angle_alpha   90.63567118
_cell_angle_beta   89.57471049
_cell_angle_gamma   88.78736443
_symmetry_Int_Tables_number   1
_chemical_formula_structural   V51Zn51O256
_chemical_formula_sum   'V51 Zn51 O256'
_cell_volume   5685.07354417
_cell_formula_units_Z   1
loop_
 _symmetry_equiv_pos_site_id
 _symmetry_equiv_pos_as_xyz
  1  'x, y, z'
loop_
 _atom_site_type_symbol
 _atom_site_label
 _atom_site_symmetry_multiplicity
 _atom_site_fract_x
 _atom_site_fract_y
 _atom_site_fract_z
 _atom_site_occupancy
  V  V0  1  -0.02944789  0.88708076  0.88279484  1
  V  V1  1  0.43416532  0.05014419  0.30701235  1
  V  V2  1  0.39147276  0.11320450  0.75479906  1
  V  V3  1  0.43952277  0.38333650  0.49913977  1
  V  V4  1  0.63800223  0.26180545  0.85043112  1
  V  V5  1  0.92496090  0.49364053  0.34299195  1
  V  V6  1  0.20849604  0.62472527  0.90351110  1
  V  V7  1  0.29994941  0.30062650  0.47100283  1
  V  V8  1  0.15270903  0.39916866  0.23482312  1
  V  V9  1  0.53424172  0.51126955  0.53484766  1
  V  V10  1  0.72014083  0.53726046  0.26159390  1
  V  V11  1  0.11667067  0.15951980  0.46265464  1
  V  V12  1  -0.05431690  0.38197146  0.87809225  1
  V  V13  1  0.86884418  0.24118928  0.65743897  1
  V  V14  1  0.16331142  0.30799406  0.37808343  1
  V  V15  1  0.53881239  0.15050301  0.57315669  1
  V  V16  1  0.11047671  0.22743223  0.87362723  1
  V  V17  1  0.84410485  0.08064752  0.73136255  1
  V  V18  1  0.90052946  0.38903795  0.53373728  1
  V  V19  1  0.83249412  0.89678270  0.00798183  1
  V  V20  1  0.68677736  0.60198625  0.46129552  1
  V  V21  1  -0.02633288  0.46700245  0.01630974  1
  V  V22  1  0.00221217  0.67175141  0.77825087  1
  V  V23  1  0.07482888  0.63249126  0.00954814  1
  V  V24  1  0.37824539  0.60955931  0.74872821  1
  V  V25  1  0.74853222  0.37638116  0.64019217  1
  V  V26  1  0.46828351  0.65747060  0.06978196  1
  V  V27  1  0.38955239  0.26888518  0.64389484  1
  V  V28  1  0.67931194  0.15998270  0.44572622  1
  V  V29  1  0.30570923  0.87275471  0.17926935  1
  V  V30  1  0.37706427  0.25280484  0.09486892  1
  V  V31  1  0.11719968  0.88597596  0.76583649  1
  V  V32  1  0.82722742  0.28888494  0.11102577  1
  V  V33  1  0.71839696  0.11296681  0.84727861  1
  V  V34  1  0.49638224  0.65184577  0.64345349  1
  V  V35  1  0.80055606  0.59066063  0.78826542  1
  V  V36  1  0.26207613  0.61937207  0.40949041  1
  V  V37  1  0.39887717  0.50362604  0.87992529  1
  V  V38  1  0.25111101  0.53383988  0.22316121  1
  V  V39  1  0.78322208  0.28552284  0.44903020  1
  V  V40  1  0.39739631  0.52774717  0.31151722  1
  V  V41  1  0.91503020  0.68286232  0.14193927  1
  V  V42  1  0.14621318  0.48479643  0.08313243  1
  V  V43  1  0.24781980  0.76459350  0.03061451  1
  V  V44  1  0.29993786  0.14798855  0.37261508  1
  V  V45  1  0.70927660  0.77540131  0.42319982  1
  V  V46  1  0.48276295  0.01947435  -0.00420194  1
  V  V47  1  0.83779238  0.73010676  0.67704357  1
  V  V48  1  0.13886537  0.43573032  0.68392241  1
  V  V49  1  0.36409914  0.38506207  -0.01858046  1
  V  V50  1  0.48797659  0.73831084  0.29037492  1
  Zn  Zn51  1  0.12139326  0.51768814  0.35847717  1
  Zn  Zn52  1  -0.02187295  0.79801752  0.05498285  1
  Zn  Zn53  1  0.83117174  0.83262901  0.18875937  1
  Zn  Zn54  1  0.05608357  0.52013301  0.84925515  1
  Zn  Zn55  1  0.27455774  0.78233545  0.81127689  1
  Zn  Zn56  1  0.26197276  0.81955373  0.37176403  1
  Zn  Zn57  1  0.85850654  0.75877308  0.85555226  1
  Zn  Zn58  1  0.41807265  1.01313628  0.62165952  1
  Zn  Zn59  1  0.02582052  0.05000011  0.80660260  1
  Zn  Zn60  1  0.85933155  0.90198328  0.71750887  1
  Zn  Zn61  1  0.62122985  0.34492363  0.51626681  1
  Zn  Zn62  1  0.32246303  0.69376099  0.18698706  1
  Zn  Zn63  1  0.24870580  0.23844796  0.21000462  1
  Zn  Zn64  1  0.66203963  0.71117448  0.60456309  1
  Zn  Zn65  1  0.69086387  0.20721065  0.68001495  1
  Zn  Zn66  1  0.56028725  0.07924646  0.83254120  1
  Zn  Zn67  1  0.65717134  0.96234238  1.06767016  1
  Zn  Zn68  1  0.88029484  0.50078446  0.16727097  1
  Zn  Zn69  1  0.33819764  0.03899455  0.12786168  1
  Zn  Zn70  1  0.65837734  0.71079580  0.25657611  1
  Zn  Zn71  1  0.70503609  0.32134495  0.98712227  1
  Zn  Zn72  1  0.70922445  0.15839021  0.04405551  1
  Zn  Zn73  1  0.72846426  0.96956067  0.47199709  1
  Zn  Zn74  1  0.79771895  0.30896254  0.81431572  1
  Zn  Zn75  1  0.50454494  0.86875302  0.17055674  1
  Zn  Zn76  1  0.39925895  0.70860456  0.90676934  1
  Zn  Zn77  1  0.82236298  0.54412398  0.60904705  1
  Zn  Zn78  1  0.35007481  0.54400513  0.56400204  1
  Zn  Zn79  1  -0.00930116  0.27085589  0.03291628  1
  Zn  Zn80  1  -0.02865459  0.25461713  0.41287090  1
  Zn  Zn81  1  0.54486947  0.57287202  0.20747706  1
  Zn  Zn82  1  0.45547225  0.64897485  0.44377070  1
  Zn  Zn83  1  -0.01727677  0.81245140  0.68729824  1
  Zn  Zn84  1  0.78288623  0.46708620  0.44021423  1
  Zn  Zn85  1  0.84411661  0.06612669  0.94237275  1
  Zn  Zn86  1  0.12312427  0.78838472  0.92585875  1
  Zn  Zn87  1  0.27891940  0.43425185  0.38611245  1
  Zn  Zn88  1  0.90624904  0.64156633  0.94836568  1
  Zn  Zn89  1  0.34465398  0.35969340  0.26829834  1
  Zn  Zn90  1  0.65414894  0.54293949  0.68189293  1
  Zn  Zn91  1  0.96496742  0.34110367  0.22004009  1
  Zn  Zn92  1  0.39127446  0.18770736  0.92201050  1
  Zn  Zn93  1  0.32439525  0.42452543  0.71832754  1
  Zn  Zn94  1  0.82699601  0.67267315  0.30595098  1
  Zn  Zn95  1  0.48162572  0.20478112  0.40742607  1
  Zn  Zn96  1  0.21004508  0.98984193  0.44153512  1
  Zn  Zn97  1  0.79502781  0.38835900  0.27717997  1
  Zn  Zn98  1  0.04748593  0.28387405  0.59253797  1
  Zn  Zn99  1  0.54072166  0.26808540  0.02959087  1
  Zn  Zn100  1  0.18792853  0.63267316  0.72803695  1
  Zn  Zn101  1  0.32337372  0.55758492  0.05107466  1
  O  O102  1  0.11384751  0.16515240  0.13047533  1
  O  O103  1  0.11293100  0.20988527  0.54634838  1
  O  O104  1  0.11275966  0.58823425  0.08771105  1
  O  O105  1  0.17130896  0.52958428  0.68273196  1
  O  O106  1  0.68853894  0.06321560  0.10285043  1
  O  O107  1  0.62023239  0.15209888  0.62018887  1
  O  O108  1  0.55081654  0.72471790  0.08527516  1
  O  O109  1  0.60021948  0.64084829  0.65193260  1
  O  O110  1  0.39036084  0.43175197  0.33787720  1
  O  O111  1  0.36266784  0.40367959  0.88036137  1
  O  O112  1  0.41746350  0.94610905  0.33629058  1
  O  O113  1  0.37456991  0.76494031  0.82066299  1
  O  O114  1  0.89315890  0.44012484  0.41883809  1
  O  O115  1  0.85630127  0.35829706  0.89015944  1
  O  O116  1  0.92827158  0.87008144  0.48973629  1
  O  O117  1  0.86217754  0.85229396  0.91719025  1
  O  O118  1  0.28070701  0.05825942  0.39183612  1
  O  O119  1  0.18511087  0.00588146  0.95839118  1
  O  O120  1  0.27441373  0.53552477  0.33872534  1
  O  O121  1  0.27592071  0.58109553  0.95365336  1
  O  O122  1  0.66602468  0.04631838  0.23303713  1
  O  O123  1  0.66196785  0.03774389  0.82989156  1
  O  O124  1  0.74614939  0.46939254  0.33578899  1
  O  O125  1  0.64389555  0.61395031  0.94258760  1
  O  O126  1  0.24208086  0.51887862  0.11800664  1
  O  O127  1  0.30982543  0.46751790  0.62216978  1
  O  O128  1  0.27206754  0.95564300  0.14050004  1
  O  O129  1  0.15407081  1.08568208  0.65499586  1
  O  O130  1  0.77627224  0.49733721  0.19187832  1
  O  O131  1  0.73829229  0.48201475  0.63365450  1
  O  O132  1  0.74384878  0.90263081  0.22079591  1
  O  O133  1  0.62915098  0.95915415  0.67313801  1
  O  O134  1  0.05951839  0.38570029  0.24428577  1
  O  O135  1  -0.03920250  0.38545485  0.78671542  1
  O  O136  1  0.06280730  1.02780597  0.28345378  1
  O  O137  1  -0.06784386  0.86128088  0.78777859  1
  O  O138  1  0.50218061  0.29115456  0.27699538  1
  O  O139  1  0.54955756  0.40703620  0.76216479  1
  O  O140  1  0.51484511  0.82725561  0.26909880  1
  O  O141  1  0.46477056  0.88156142  0.70328276  1
  O  O142  1  0.63262172  0.21158392  0.21308937  1
  O  O143  1  0.48634766  0.10836785  0.76332841  1
  O  O144  1  0.55806041  0.67758796  0.24622385  1
  O  O145  1  0.46992987  0.65434091  0.74406218  1
  O  O146  1  0.95232349  0.13320973  0.26028479  1
  O  O147  1  0.93756279  0.07402581  0.74850112  1
  O  O148  1  1.02088322  0.78482537  0.32992832  1
  O  O149  1  0.99103275  0.57853093  0.78409372  1
  O  O150  1  0.36237359  0.26648260  -0.00904075  1
  O  O151  1  0.43541179  0.29852919  0.44821710  1
  O  O152  1  0.32810952  0.75757689  -0.01903616  1
  O  O153  1  0.38292815  0.82725551  0.49960471  1
  O  O154  1  0.91132648  0.20239931  -0.02135870  1
  O  O155  1  0.88489723  0.29170066  0.46980822  1
  O  O156  1  0.88038093  0.68694051  0.04934092  1
  O  O157  1  0.96483700  0.66908632  0.52609640  1
  O  O158  1  0.20544766  0.31933124  0.47841484  1
  O  O159  1  0.06886519  0.22826193  0.96917244  1
  O  O160  1  0.11720513  0.65605585  0.57125703  1
  O  O161  1  0.05677636  0.72769868  0.99449843  1
  O  O162  1  0.67838961  0.26886918  0.47068410  1
  O  O163  1  0.52688776  0.27237388  0.90274622  1
  O  O164  1  0.67025466  0.70095248  0.49055149  1
  O  O165  1  0.57230594  0.79956592  0.96663072  1
  O  O166  1  0.46681545  0.22266658  0.09957284  1
  O  O167  1  0.47893375  0.22095973  0.60752059  1
  O  O168  1  0.48491733  0.75916217  0.10707158  1
  O  O169  1  0.48028705  0.73780556  0.61807418  1
  O  O170  1  1.05454009  0.20247675  0.13023474  1
  O  O171  1  0.95920808  0.23795663  0.62773243  1
  O  O172  1  0.99595939  0.73391727  0.13963883  1
  O  O173  1  0.95009010  0.70718986  0.69917668  1
  O  O174  1  0.07277723  0.30628993  0.39618735  1
  O  O175  1  0.02018183  0.28226013  0.86758876  1
  O  O176  1  0.05612887  0.78183815  0.47516862  1
  O  O177  1  -0.03668155  0.71210924  0.86452030  1
  O  O178  1  0.54586182  0.25444936  0.32873136  1
  O  O179  1  0.47269778  0.24348544  0.86369586  1
  O  O180  1  0.48991837  0.73009408  0.38855393  1
  O  O181  1  0.52495149  0.80272054  0.91721342  1
  O  O182  1  0.31350515  0.20025894  0.46079833  1
  O  O183  1  0.19954591  0.04388186  1.01530511  1
  O  O184  1  0.29016653  0.60662625  0.50173776  1
  O  O185  1  0.19701632  0.68367318  1.01900295  1
  O  O186  1  0.78110767  0.18489632  0.44956478  1
  O  O187  1  0.74264121  0.10835021  0.94981457  1
  O  O188  1  0.77153018  0.56683552  0.49402833  1
  O  O189  1  0.70873286  0.73886538  1.01676377  1
  O  O190  1  0.28106662  0.38865958  0.01586906  1
  O  O191  1  0.33439280  0.39860661  0.48159735  1
  O  O192  1  0.19307381  0.83621827  -0.00441377  1
  O  O193  1  0.22704078  0.88997237  0.44221714  1
  O  O194  1  0.79281589  0.34268649  0.03783094  1
  O  O195  1  0.77607428  0.37899584  0.50709303  1
  O  O196  1  0.73895855  0.90506978  0.02199027  1
  O  O197  1  0.84014260  0.96266438  0.48255632  1
  O  O198  1  0.15050293  0.50784959  0.24369386  1
  O  O199  1  0.10753039  0.44956562  0.78385567  1
  O  O200  1  -0.00616838  1.06168596  0.13031079  1
  O  O201  1  0.10432358  0.98114848  0.77106243  1
  O  O202  1  0.63516954  0.51805336  0.22935379  1
  O  O203  1  0.60700739  0.44124174  0.77000470  1
  O  O204  1  0.71071898  1.07267758  0.18808830  1
  O  O205  1  0.48351373  0.84343535  0.75770482  1
  O  O206  1  0.38930022  0.04997830  0.22117309  1
  O  O207  1  0.36551650  0.02870776  0.71442418  1
  O  O208  1  0.35704752  0.53430383  0.21986876  1
  O  O209  1  0.36794808  0.50814871  0.77026781  1
  O  O210  1  0.89316756  -0.11042688  0.27085422  1
  O  O211  1  0.81782731  -0.00603870  0.69567470  1
  O  O212  1  0.90494004  0.43390467  0.25743131  1
  O  O213  1  0.83275517  0.50669376  0.80094379  1
  O  O214  1  0.16991302  0.41225250  0.36450248  1
  O  O215  1  0.15909981  0.30847187  0.87490372  1
  O  O216  1  0.09124553  0.83982333  0.47782924  1
  O  O217  1  0.06721043  0.84951218  0.84953984  1
  O  O218  1  0.52990126  0.34843667  0.24593613  1
  O  O219  1  0.64479315  0.34705101  0.90164033  1
  O  O220  1  0.71118609  0.86569747  0.46011778  1
  O  O221  1  0.63946490  0.88183339  0.84378448  1
  O  O222  1  0.33268494  0.15426679  0.10424996  1
  O  O223  1  0.36184924  0.18460204  0.68972188  1
  O  O224  1  0.37209557  0.64460804  0.09749817  1
  O  O225  1  0.40818580  0.59351504  0.64394982  1
  O  O226  1  0.91294350  0.19110051  0.26576854  1
  O  O227  1  0.84819028  0.14108769  0.64922702  1
  O  O228  1  0.93182832  0.59441803  0.17312967  1
  O  O229  1  0.83693549  0.62077808  0.69057975  1
  O  O230  1  0.26868190  0.20291463  0.10063425  1
  O  O231  1  0.31899450  0.28285533  0.57949010  1
  O  O232  1  0.27337191  0.78418249  0.13178942  1
  O  O233  1  0.17409432  0.67392126  0.60589428  1
  O  O234  1  0.79823751  0.19938384  0.09487404  1
  O  O235  1  0.76766959  0.26404765  0.62672875  1
  O  O236  1  0.70665507  0.78801522  0.18851801  1
  O  O237  1  0.76613529  0.72913320  0.61485851  1
  O  O238  1  0.29336899  0.31148049  0.36652691  1
  O  O239  1  0.18786007  0.18464057  0.90916131  1
  O  O240  1  0.26618589  0.71264843  0.38450085  1
  O  O241  1  0.20376378  0.72155020  0.87258881  1
  O  O242  1  0.78065987  0.31223777  0.35869144  1
  O  O243  1  0.73448156  0.23456089  0.86193681  1
  O  O244  1  0.79275826  0.74094507  0.38880281  1
  O  O245  1  0.67632330  0.82699679  0.86342126  1
  O  O246  1  -0.06921593  0.13240431  -0.02594583  1
  O  O247  1  0.02858720  0.16196547  0.42572287  1
  O  O248  1  -0.01076508  0.58657685  0.00075698  1
  O  O249  1  -0.00766523  0.64388214  0.46695066  1
  O  O250  1  0.47372083  0.11779372  -0.03399009  1
  O  O251  1  0.56389160  0.17027320  0.47527056  1
  O  O252  1  0.46886830  0.65784405  -0.02645092  1
  O  O253  1  0.50514787  0.61249523  0.53251189  1
  O  O254  1  0.54227495  0.41045978  0.48791782  1
  O  O255  1  0.47338602  0.36162559  1.02550390  1
  O  O256  1  0.41379763  0.88292622  0.52878562  1
  O  O257  1  0.46762892  0.92500804  1.00558378  1
  O  O258  1  0.99188015  0.36324721  0.53526880  1
  O  O259  1  0.97905084  0.36960178  0.98746547  1
  O  O260  1  1.00695278  0.96199370  0.43876784  1
  O  O261  1  0.99429667  0.86606539  0.97591854  1
  O  O262  1  0.48847459  0.53678169  0.29349064  1
  O  O263  1  0.48711430  0.49269729  0.87093396  1
  O  O264  1  0.52199800  1.05553599  0.28974381  1
  O  O265  1  0.48695391  1.00792141  0.89350090  1
  O  O266  1  1.01581523  0.50969254  0.35395914  1
  O  O267  1  0.97233937  0.47893461  0.90817631  1
  O  O268  1  1.00564619  0.99232312  0.27946215  1
  O  O269  1  0.97581055  0.98099349  0.88026005  1
  O  O270  1  -0.04465843  0.00848212  0.14615054  1
  O  O271  1  -0.03294825  0.01752474  0.43154728  1
  O  O272  1  0.04111644  0.46702992  0.08628064  1
  O  O273  1  0.05488057  0.47556177  0.65508316  1
  O  O274  1  0.50487112  0.04757956  0.08816541  1
  O  O275  1  0.49645627  0.06416440  0.57820808  1
  O  O276  1  0.51352915  0.57959823  0.10407849  1
  O  O277  1  0.55551202  0.50031264  0.62640982  1
  O  O278  1  0.25977673  0.42407999  0.24038791  1
  O  O279  1  0.21932859  0.39890780  0.73438045  1
  O  O280  1  0.28149376  0.86001788  0.27222914  1
  O  O281  1  0.20804304  0.85665576  0.77219344  1
  O  O282  1  0.79048225  0.32091979  0.19499156  1
  O  O283  1  0.75291499  0.37187027  0.73593286  1
  O  O284  1  0.68513272  0.85815518  0.21666620  1
  O  O285  1  0.63525207  0.84240218  0.69311783  1
  O  O286  1  0.27784748  0.16293426  0.28026615  1
  O  O287  1  0.21694489  0.11005610  0.65193229  1
  O  O288  1  0.24382338  0.62980570  0.22562920  1
  O  O289  1  0.21518591  0.57707076  0.82063670  1
  O  O290  1  0.84110913  0.00399330  0.25063520  1
  O  O291  1  0.74248072  0.13575671  0.74763063  1
  O  O292  1  0.73888116  0.63549538  0.24647792  1
  O  O293  1  0.70680330  0.58476956  0.76980680  1
  O  O294  1  0.40587260  0.14034479  0.36021033  1
  O  O295  1  0.35037483  0.12966062  0.84297235  1
  O  O296  1  0.38242584  0.59946962  0.38392286  1
  O  O297  1  0.38348372  0.60777411  0.85596469  1
  O  O298  1  0.86099431  -0.04536545  0.29821962  1
  O  O299  1  0.81848025  0.07094725  0.83584593  1
  O  O300  1  0.87604908  0.57709772  0.33518905  1
  O  O301  1  0.82751582  0.64828306  0.87267286  1
  O  O302  1  0.15949099  0.39393802  0.13447481  1
  O  O303  1  0.09959361  0.34645640  0.66849067  1
  O  O304  1  0.10211481  0.93646154  0.14525270  1
  O  O305  1  0.07683203  0.85212841  0.68305249  1
  O  O306  1  0.64172100  0.24383611  0.03045600  1
  O  O307  1  0.65755288  0.36019736  0.61721391  1
  O  O308  1  0.58247593  0.90666294  0.11530175  1
  O  O309  1  0.61851330  0.95547306  0.60441502  1
  O  O310  1  0.17693599  0.29951278  0.26876136  1
  O  O311  1  0.11783641  0.21931833  0.77496819  1
  O  O312  1  0.05294955  0.84304375  0.31571063  1
  O  O313  1  0.09464098  0.68516350  0.75823615  1
  O  O314  1  0.63170551  0.27538620  0.18844631  1
  O  O315  1  0.62780776  0.26940355  0.75548217  1
  O  O316  1  0.65172587  0.77588277  0.34917938  1
  O  O317  1  0.61890735  0.82232851  0.62648281  1
  O  O318  1  0.34733574  0.28918988  0.18696847  1
  O  O319  1  0.37739032  0.33026754  0.71707266  1
  O  O320  1  0.40289087  0.71682021  0.25385950  1
  O  O321  1  0.29703923  0.65699589  0.72601468  1
  O  O322  1  0.95479240  0.25916935  0.29769548  1
  O  O323  1  0.87085903  0.25057533  0.75302172  1
  O  O324  1  0.85929928  0.73017143  0.21504459  1
  O  O325  1  0.80041067  0.75972240  0.76142715  1
  O  O326  1  0.43699540  0.49223179  0.50966746  1
  O  O327  1  0.38815640  0.49009919  0.98766592  1
  O  O328  1  0.42821108  0.98502372  0.40068073  1
  O  O329  1  0.38582078  1.02956448  1.01862729  1
  O  O330  1  0.89646455  0.48359412  0.55917265  1
  O  O331  1  0.89030450  0.47675050  1.05916254  1
  O  O332  1  0.86550696  0.88929434  0.46388209  1
  O  O333  1  0.86665762  0.98474238  1.00690985  1
  O  O334  1  0.11592768  0.00320389  0.15162820  1
  O  O335  1  0.14452154  0.06719181  0.47578646  1
  O  O336  1  0.15834781  0.46693037  -0.00560009  1
  O  O337  1  0.18318886  0.42573143  0.59728762  1
  O  O338  1  0.58134483  0.00763715  -0.00865117  1
  O  O339  1  0.69056518  0.06698964  0.47816791  1
  O  O340  1  0.70582199  0.67567503  0.04361911  1
  O  O341  1  0.62324030  0.53490896  0.49129316  1
  O  O342  1  0.41544646  0.36136947  0.08203339  1
  O  O343  1  0.44194709  0.35750392  0.58922304  1
  O  O344  1  0.39846314  0.87780254  0.16644767  1
  O  O345  1  0.36557209  0.93032135  0.57373577  1
  O  O346  1  0.92979255  0.29594442  0.12326635  1
  O  O347  1  0.86300249  0.35484536  0.62250699  1
  O  O348  1  0.87334412  0.85081455  0.08717367  1
  O  O349  1  0.88051739  0.81872455  0.64525554  1
  O  O350  1  0.18244935  0.19987146  0.39324698  1
  O  O351  1  0.06993747  0.13444514  0.85591194  1
  O  O352  1  0.16865543  0.59631550  0.41372124  1
  O  O353  1  0.11077627  0.59143638  0.92101876  1
  O  O354  1  0.66721518  0.15514976  0.35513994  1
  O  O355  1  0.61944805  0.16358725  0.87286805  1
  O  O356  1  0.68344067  0.59802326  0.36760872  1
  O  O357  1  0.63471926  0.66800607  0.90150056  1
