# generated using pymatgen
data_V51Zn51O256
_symmetry_space_group_name_H-M   'P 1'
_cell_length_a   17.34343978
_cell_length_b   17.56345751
_cell_length_c   17.35490909
_cell_angle_alpha   89.55552738
_cell_angle_beta   89.17236361
_cell_angle_gamma   90.08074038
_symmetry_Int_Tables_number   1
_chemical_formula_structural   V51Zn51O256
_chemical_formula_sum   'V51 Zn51 O256'
_cell_volume   5285.77548900
_cell_formula_units_Z   1
loop_
 _symmetry_equiv_pos_site_id
 _symmetry_equiv_pos_as_xyz
  1  'x, y, z'
loop_
 _atom_site_type_symbol
 _atom_site_label
 _atom_site_symmetry_multiplicity
 _atom_site_fract_x
 _atom_site_fract_y
 _atom_site_fract_z
 _atom_site_occupancy
  V  V0  1  0.39130544  0.49742461  0.35016279  1
  V  V1  1  0.83754750  0.15172232  0.77949559  1
  V  V2  1  0.54700906  0.71842087  0.24768024  1
  V  V3  1  -0.01114141  0.02060784  0.51646956  1
  V  V4  1  0.10905843  0.88831320  0.74555337  1
  V  V5  1  0.63321211  0.11321591  0.49151657  1
  V  V6  1  0.64362494  0.00377091  0.62233053  1
  V  V7  1  0.83298000  0.25115311  0.59925523  1
  V  V8  1  0.34570777  0.61211223  0.71983476  1
  V  V9  1  0.65306260  0.88467305  0.78055650  1
  V  V10  1  0.47555057  0.51564946  -0.01588580  1
  V  V11  1  0.64373029  0.00416075  0.13676405  1
  V  V12  1  -0.01287052  0.14699649  0.66757521  1
  V  V13  1  -0.08081818  0.64751761  0.54808071  1
  V  V14  1  0.52231807  0.77135427  0.76620809  1
  V  V15  1  0.71120528  0.70191551  0.38434260  1
  V  V16  1  0.80094330  0.26023088  0.06526641  1
  V  V17  1  0.76038072  0.75962392  -0.01698742  1
  V  V18  1  0.15151634  0.25428427  0.86124889  1
  V  V19  1  0.19276732  0.38474129  0.57732467  1
  V  V20  1  0.42092502  0.27365360  0.08635506  1
  V  V21  1  0.57466835  0.83098203  0.39158272  1
  V  V22  1  -0.00621814  0.92448789  0.86224963  1
  V  V23  1  0.26625055  0.02956853  0.24701630  1
  V  V24  1  0.16209749  0.13633762  -0.01425923  1
  V  V25  1  0.36184540  0.47369852  0.83308504  1
  V  V26  1  0.47780011  0.09350208  0.61460696  1
  V  V27  1  0.17640681  0.09013168  0.53459297  1
  V  V28  1  0.88306195  0.89698669  -0.00858249  1
  V  V29  1  0.00181170  0.38697718  0.88858825  1
  V  V30  1  0.56529490  0.63786835  0.62592544  1
  V  V31  1  0.39109684  0.75814664  0.60602746  1
  V  V32  1  0.10968759  0.67652267  0.04983867  1
  V  V33  1  -0.01470173  0.67498908  0.79824030  1
  V  V34  1  0.50039484  0.19821324  0.26017882  1
  V  V35  1  0.27468472  0.13943913  0.38197410  1
  V  V36  1  0.25180770  0.73042789  -0.03706925  1
  V  V37  1  0.52762431  0.51588015  0.47785374  1
  V  V38  1  0.50841615  -0.01313252  0.02629505  1
  V  V39  1  0.75055345  0.00433329  0.28289976  1
  V  V40  1  0.24802856  0.61254909  0.35127029  1
  V  V41  1  0.12246443  0.88057624  0.27009816  1
  V  V42  1  0.29069419  0.85325376  0.08897684  1
  V  V43  1  -0.00592758  0.39361520  0.40725030  1
  V  V44  1  0.88731217  0.76976908  0.12493879  1
  V  V45  1  0.80024915  0.48717536  0.23413213  1
  V  V46  1  0.15024914  -0.00253698  0.12063204  1
  V  V47  1  0.49681258  0.27171406  0.70891720  1
  V  V48  1  0.73987402  0.02361214  0.78796696  1
  V  V49  1  0.82796211  0.77854163  0.62480558  1
  V  V50  1  0.61918536  0.24432202  0.37206365  1
  Zn  Zn51  1  0.39786131  0.30734057  0.88860371  1
  Zn  Zn52  1  -0.01598908  0.84078979  0.60409161  1
  Zn  Zn53  1  0.89952197  0.65750345  0.33783666  1
  Zn  Zn54  1  0.80105980  0.61436402  0.10429426  1
  Zn  Zn55  1  0.63740460  0.81579126  0.57102843  1
  Zn  Zn56  1  0.17379866  0.20095787  0.67450172  1
  Zn  Zn57  1  0.67202027  0.18919567  0.67952716  1
  Zn  Zn58  1  0.90395623  0.96818319  0.69260740  1
  Zn  Zn59  1  0.70661094  0.16933620  0.23213093  1
  Zn  Zn60  1  0.51109572  0.57853655  0.79476288  1
  Zn  Zn61  1  0.28916425  0.56402008  -0.02499602  1
  Zn  Zn62  1  0.14631905  -0.01425710  0.40680017  1
  Zn  Zn63  1  0.33821258  0.01573010  0.51616571  1
  Zn  Zn64  1  0.07572375  0.84502365  0.02852403  1
  Zn  Zn65  1  0.06402895  0.55872260  0.30582245  1
  Zn  Zn66  1  -0.01073440  0.35061243  0.60777319  1
  Zn  Zn67  1  0.03316062  0.71197333  0.20616378  1
  Zn  Zn68  1  0.58397323  0.82889396  0.07002920  1
  Zn  Zn69  1  0.95294962  0.68248696  0.99814115  1
  Zn  Zn70  1  0.42167209  0.68018219  0.90387295  1
  Zn  Zn71  1  0.70891445  0.82833686  0.19489838  1
  Zn  Zn72  1  0.83470432  0.05567248  0.08975972  1
  Zn  Zn73  1  0.83685952  0.31091209  0.86227209  1
  Zn  Zn74  1  0.33055832  0.10066543  0.06938293  1
  Zn  Zn75  1  -0.02486729  0.53477750  0.65964853  1
  Zn  Zn76  1  0.59728482  0.54615914  0.30457250  1
  Zn  Zn77  1  0.60405595  0.19912733  0.09300950  1
  Zn  Zn78  1  0.45359259  0.46702048  0.65971524  1
  Zn  Zn79  1  0.84778786  0.80214632  0.81595767  1
  Zn  Zn80  1  0.70143378  0.69471505  0.73065662  1
  Zn  Zn81  1  0.56222800  0.02276638  0.31883485  1
  Zn  Zn82  1  0.69653177  0.94669891  0.96420746  1
  Zn  Zn83  1  0.74460151  0.60154417  0.55595399  1
  Zn  Zn84  1  0.06635723  0.27121525  0.11030264  1
  Zn  Zn85  1  0.84889092  0.44062582  0.54076229  1
  Zn  Zn86  1  0.99116264  0.39583401  0.20179424  1
  Zn  Zn87  1  0.18482525  0.72082250  0.77095700  1
  Zn  Zn88  1  0.45548502  0.34708508  0.53822489  1
  Zn  Zn89  1  0.08827646  0.06919646  0.79898754  1
  Zn  Zn90  1  0.20791045  0.70727602  0.21427909  1
  Zn  Zn91  1  0.81691026  0.08365776  0.56415183  1
  Zn  Zn92  1  0.54128150  -0.02361002  0.83578871  1
  Zn  Zn93  1  0.47214229  0.68566726  0.44354479  1
  Zn  Zn94  1  0.42623685  0.97514632  0.16487699  1
  Zn  Zn95  1  0.18829829  0.46549144  0.42028785  1
  Zn  Zn96  1  0.38953479  0.47194081  0.14528933  1
  Zn  Zn97  1  0.50341400  0.90166114  0.66170192  1
  Zn  Zn98  1  0.39202199  0.29707390  0.37221710  1
  Zn  Zn99  1  0.97617914  0.92767024  0.16974980  1
  Zn  Zn100  1  0.44682172  0.17093960  0.45568904  1
  Zn  Zn101  1  0.31199940  0.22886516  0.21870292  1
  O  O102  1  0.03821392  0.17893531  0.29544679  1
  O  O103  1  0.08270250  0.14135267  0.70964498  1
  O  O104  1  0.12259963  0.65819530  0.14899912  1
  O  O105  1  0.00712828  0.61715215  0.58586305  1
  O  O106  1  0.64474478  0.11427128  0.14817747  1
  O  O107  1  0.61996300  0.11160984  0.61449273  1
  O  O108  1  0.62505843  0.58400695  0.09902128  1
  O  O109  1  0.66446417  0.62699584  0.63980963  1
  O  O110  1  0.39246786  0.40546637  0.37849761  1
  O  O111  1  0.33380485  0.38047330  0.83607566  1
  O  O112  1  0.24354526  0.81552229  0.47117491  1
  O  O113  1  0.31483720  0.91513084  0.82824377  1
  O  O114  1  0.89397695  0.39852954  0.43551214  1
  O  O115  1  0.90639551  0.37628178  0.93335288  1
  O  O116  1  0.83858582  0.87963736  0.43476039  1
  O  O117  1  0.88865324  0.89169370  0.87957426  1
  O  O118  1  0.22532032  0.03837475  0.34517679  1
  O  O119  1  0.35951251  0.05526663  0.87702514  1
  O  O120  1  0.28100919  0.50930656  0.36133588  1
  O  O121  1  0.28850864  0.53550489  0.86398946  1
  O  O122  1  0.74731959  0.01296549  0.37577142  1
  O  O123  1  0.73494876  0.02201394  0.88414224  1
  O  O124  1  0.83234818  0.51393479  0.32428275  1
  O  O125  1  0.67599105  0.55041227  0.79675697  1
  O  O126  1  0.21692576  0.40699255  0.00283496  1
  O  O127  1  0.15343641  0.47196991  0.53321511  1
  O  O128  1  0.25304427  1.05699673  0.14771620  1
  O  O129  1  0.29776449  1.07526280  0.76739734  1
  O  O130  1  0.77309121  0.50307010  0.13308353  1
  O  O131  1  0.81934357  0.49431549  0.77768280  1
  O  O132  1  0.74278702  1.00104590  0.11945427  1
  O  O133  1  0.74201671  1.01322832  0.63117739  1
  O  O134  1  -0.03897371  0.35469777  0.31963319  1
  O  O135  1  -0.05699871  0.34313463  0.81343491  1
  O  O136  1  0.03194716  0.91808106  0.26504983  1
  O  O137  1  -0.01598921  0.92601992  0.75982528  1
  O  O138  1  0.56725322  0.43795192  0.23282093  1
  O  O139  1  0.47034152  0.35372974  0.65264490  1
  O  O140  1  0.51981891  0.74906720  0.14279924  1
  O  O141  1  0.53193591  0.88383480  0.77371279  1
  O  O142  1  0.49589102  0.10093710  0.26012018  1
  O  O143  1  0.47160599  0.06992755  0.78807056  1
  O  O144  1  0.53878927  0.62302934  0.24125904  1
  O  O145  1  0.54598981  0.67317881  0.73807494  1
  O  O146  1  1.10586368  0.19545547  0.30802266  1
  O  O147  1  0.94567446  0.14804726  0.75937494  1
  O  O148  1  0.99107277  0.63735033  0.28336949  1
  O  O149  1  0.95124504  0.59834612  0.74319349  1
  O  O150  1  0.42890324  0.27674896  -0.01273822  1
  O  O151  1  0.41347365  0.27164858  0.48095839  1
  O  O152  1  0.33863083  0.66753856  -0.02706728  1
  O  O153  1  0.41132610  0.74848618  0.50918804  1
  O  O154  1  0.89677294  0.23940127  0.07887774  1
  O  O155  1  0.84089494  0.22951992  0.50770383  1
  O  O156  1  0.87161650  0.77767259  0.00681274  1
  O  O157  1  0.74812568  0.80145577  0.57300102  1
  O  O158  1  0.22656550  0.13153021  0.60586860  1
  O  O159  1  0.12426069  0.21121779  1.03564175  1
  O  O160  1  0.09869505  0.70441100  0.47994835  1
  O  O161  1  0.15466420  0.76770482  0.99893700  1
  O  O162  1  0.61485778  0.21355808  0.47642860  1
  O  O163  1  0.69265557  0.26291666  1.06535899  1
  O  O164  1  0.56369109  0.83960594  0.48788311  1
  O  O165  1  0.66562715  0.77709011  1.01523369  1
  O  O166  1  0.50400191  0.23123337  0.13111948  1
  O  O167  1  0.46711347  0.18518379  0.66214797  1
  O  O168  1  0.66657960  0.63292530  0.12843920  1
  O  O169  1  0.56029729  0.73394509  0.60353293  1
  O  O170  1  1.01472672  0.15187885  0.12228950  1
  O  O171  1  0.98192744  0.23779698  0.62700552  1
  O  O172  1  1.02777416  0.74886504  0.06848727  1
  O  O173  1  0.92501047  0.75336654  0.57086696  1
  O  O174  1  0.01903941  0.30106525  0.43199032  1
  O  O175  1  0.03617416  0.29682476  0.93157203  1
  O  O176  1  0.08386156  0.72814961  0.41554604  1
  O  O177  1  -0.04670059  0.66136109  0.89245697  1
  O  O178  1  0.50973904  0.20923822  0.36510371  1
  O  O179  1  0.45609799  0.27932495  0.79810031  1
  O  O180  1  0.51888015  0.74645367  0.35491819  1
  O  O181  1  0.48505604  0.75813035  0.85488819  1
  O  O182  1  0.22549376  0.00588113  0.50723057  1
  O  O183  1  0.25916099  0.13530366  0.99170199  1
  O  O184  1  0.24290776  0.65599733  0.43448355  1
  O  O185  1  0.20296701  0.64074714  1.00524820  1
  O  O186  1  0.72988575  0.11243531  0.49740115  1
  O  O187  1  0.80133562  0.15489618  1.05551435  1
  O  O188  1  0.72030820  0.67866285  0.47789031  1
  O  O189  1  0.76866893  0.66383704  1.01268595  1
  O  O190  1  0.20082248  0.36367693  0.05654954  1
  O  O191  1  0.22059160  0.37182407  0.47431344  1
  O  O192  1  0.30627592  0.81306825  -0.00681577  1
  O  O193  1  0.39986481  0.91630549  0.51916305  1
  O  O194  1  0.81682049  0.35529899  0.07612808  1
  O  O195  1  0.67474090  0.42396004  0.64466613  1
  O  O196  1  0.77748109  0.87634432  -0.00571763  1
  O  O197  1  0.79167399  0.91704721  0.47087131  1
  O  O198  1  0.22185087  0.46663535  0.18013467  1
  O  O199  1  0.01069149  0.43483508  0.67285798  1
  O  O200  1  0.10394264  1.05486884  0.18065464  1
  O  O201  1  0.14133033  0.98174036  0.74886343  1
  O  O202  1  0.70503752  0.51267093  0.26032557  1
  O  O203  1  0.62574457  0.38719826  0.87203532  1
  O  O204  1  0.64967012  1.00256768  0.24874486  1
  O  O205  1  0.63674933  0.99566089  0.76010189  1
  O  O206  1  0.35578835  -0.00704898  0.25276484  1
  O  O207  1  0.33119535  -0.07453306  0.76008682  1
  O  O208  1  0.40013702  0.50213261  0.25198798  1
  O  O209  1  0.35321527  0.50805901  0.71822756  1
  O  O210  1  0.83018512  -0.06934904  0.25937841  1
  O  O211  1  0.83913055  0.03179868  0.76043406  1
  O  O212  1  0.89177588  0.44770055  0.20460612  1
  O  O213  1  0.83375105  0.45263811  0.72299536  1
  O  O214  1  0.09491214  0.40490018  0.38105701  1
  O  O215  1  0.09103520  0.36658482  0.84012816  1
  O  O216  1  0.14774116  0.88421272  0.36496438  1
  O  O217  1  0.07544463  0.86515481  0.84791740  1
  O  O218  1  0.61937445  0.33697461  0.37747008  1
  O  O219  1  0.68433394  0.34647463  0.86114667  1
  O  O220  1  0.54869926  0.91380128  0.34694253  1
  O  O221  1  0.63968738  0.89261831  0.87811049  1
  O  O222  1  0.34548517  0.20815589  0.11210183  1
  O  O223  1  0.38532944  0.06457257  0.60461243  1
  O  O224  1  0.29749725  0.51986602  0.08512813  1
  O  O225  1  0.39357380  0.65611752  0.63978683  1
  O  O226  1  0.91841360  0.02881984  0.16403390  1
  O  O227  1  0.85262865  0.15792315  0.64617157  1
  O  O228  1  0.90201622  0.66673346  0.10037452  1
  O  O229  1  0.82601405  0.66633663  0.60067540  1
  O  O230  1  0.17880660  0.32210644  0.21544510  1
  O  O231  1  0.21530372  0.29172163  0.60936844  1
  O  O232  1  0.25274251  0.78057935  0.14311078  1
  O  O233  1  0.30092090  0.77815216  0.61875628  1
  O  O234  1  0.77088590  0.24566225  0.16658694  1
  O  O235  1  0.73617446  0.25921115  0.62058837  1
  O  O236  1  0.79113717  0.76958316  0.14882500  1
  O  O237  1  0.79366335  0.75661756  0.71908487  1
  O  O238  1  0.29361002  0.23357828  0.37814071  1
  O  O239  1  0.22670405  0.27761534  0.91033087  1
  O  O240  1  0.29205232  0.67080337  0.28136620  1
  O  O241  1  0.24491728  0.73374313  0.86733716  1
  O  O242  1  0.70762975  0.21232762  0.33746261  1
  O  O243  1  0.79414112  0.27076881  0.96530985  1
  O  O244  1  0.67173244  0.80269300  0.38072895  1
  O  O245  1  0.76643943  0.75960286  0.88405805  1
  O  O246  1  -0.00167791  0.11445545  0.06500554  1
  O  O247  1  0.06736103  0.11927614  0.55986883  1
  O  O248  1  0.04935610  0.61183982  0.01361661  1
  O  O249  1  -0.08380782  0.64406759  0.45042357  1
  O  O250  1  0.58008234  0.17933698  -0.02669913  1
  O  O251  1  0.50701806  0.10370124  0.51863709  1
  O  O252  1  0.49565283  0.59746325  -0.07059904  1
  O  O253  1  0.53291772  0.61392703  0.51979460  1
  O  O254  1  0.46671840  0.45566655  0.53770871  1
  O  O255  1  0.52653955  0.41550053  0.98644332  1
  O  O256  1  0.36328887  0.87087179  0.37636253  1
  O  O257  1  0.50280919  0.89011927  1.02307717  1
  O  O258  1  0.99794295  0.42236468  0.50812831  1
  O  O259  1  1.02842812  0.43767852  0.96750086  1
  O  O260  1  0.98203710  0.92516943  0.52945214  1
  O  O261  1  0.99253080  0.89187484  0.97073453  1
  O  O262  1  0.51098407  0.51125559  0.37373878  1
  O  O263  1  0.46189479  0.47968173  0.81358361  1
  O  O264  1  0.33461304  0.82170991  0.33625433  1
  O  O265  1  0.51000920  1.01590846  0.93011665  1
  O  O266  1  0.99513753  0.49053648  0.37212717  1
  O  O267  1  0.99512391  0.47130756  0.84008242  1
  O  O268  1  1.04975690  1.02938939  0.43490173  1
  O  O269  1  1.02198048  1.01773918  0.87469597  1
  O  O270  1  0.08042891  -0.07768074  0.11107152  1
  O  O271  1  -0.04201758  0.05095145  0.63035867  1
  O  O272  1  0.05490054  0.47592493  0.23194988  1
  O  O273  1  -0.10546150  0.53628858  0.57744183  1
  O  O274  1  0.53202240  -0.00072675  0.13678194  1
  O  O275  1  0.52131737  0.01170956  0.65474529  1
  O  O276  1  0.45648713  0.53566866  0.07777055  1
  O  O277  1  0.52290592  0.55257881  0.66815676  1
  O  O278  1  0.25169198  0.32572975  0.24066181  1
  O  O279  1  0.17239558  0.43160105  0.65990817  1
  O  O280  1  0.19559947  0.94521524  0.22409321  1
  O  O281  1  0.18855789  0.83038882  0.75038303  1
  O  O282  1  0.77169110  0.39497515  0.25017563  1
  O  O283  1  0.75400278  0.38632090  0.84809511  1
  O  O284  1  0.76423218  0.88882362  0.27754603  1
  O  O285  1  0.74990352  0.90726230  0.76905221  1
  O  O286  1  0.28761903  0.13375576  0.27265530  1
  O  O287  1  0.30686621  0.14456041  0.76531397  1
  O  O288  1  0.22063427  0.51458004  0.12658251  1
  O  O289  1  0.25425193  0.64404656  0.72430171  1
  O  O290  1  0.78469935  0.09052462  0.24497418  1
  O  O291  1  0.72740811  0.12501213  0.76178192  1
  O  O292  1  0.83349651  0.58763545  0.21169358  1
  O  O293  1  0.72071180  0.61289341  0.80831552  1
  O  O294  1  0.35364798  0.10102640  0.43355041  1
  O  O295  1  0.37688181  0.12153132  0.89108021  1
  O  O296  1  0.39159098  0.61022721  0.39116038  1
  O  O297  1  0.39993325  0.63799108  0.79806952  1
  O  O298  1  0.94564789  0.05673088  0.29091228  1
  O  O299  1  0.84468567  0.14106299  0.87271463  1
  O  O300  1  0.80020337  0.69953114  0.33898994  1
  O  O301  1  0.72732589  0.48925658  0.94776587  1
  O  O302  1  0.04351357  0.37981333  0.10349046  1
  O  O303  1  0.09951326  0.33429793  0.57599944  1
  O  O304  1  0.22857335  0.92816021  0.07285712  1
  O  O305  1  0.07558520  0.85922465  0.65599784  1
  O  O306  1  0.58250196  0.42709128  0.16318483  1
  O  O307  1  0.66725733  0.40865527  0.71318748  1
  O  O308  1  0.63924781  0.89368498  0.14165420  1
  O  O309  1  0.62273959  0.89861121  0.64723305  1
  O  O310  1  0.16362799  0.25921863  0.17552475  1
  O  O311  1  0.17973839  0.25618572  0.76778291  1
  O  O312  1  0.11966926  0.78547867  0.24225453  1
  O  O313  1  0.08456866  0.67865967  0.78748770  1
  O  O314  1  0.59482622  0.23333163  0.25257535  1
  O  O315  1  0.59349000  0.26214632  0.71830071  1
  O  O316  1  0.64005892  0.74849328  0.23974572  1
  O  O317  1  0.63403566  0.78280798  0.76057559  1
  O  O318  1  0.41266324  0.25539302  0.26542798  1
  O  O319  1  0.47365705  0.13242625  0.82237389  1
  O  O320  1  0.47148397  0.77957826  0.20187787  1
  O  O321  1  0.45030731  0.79362713  0.69467534  1
  O  O322  1  0.93043849  0.08450899  0.22687752  1
  O  O323  1  0.82140304  0.25036397  0.77232721  1
  O  O324  1  0.93716105  0.77281756  0.20978108  1
  O  O325  1  0.94258422  0.76013064  0.76981496  1
  O  O326  1  0.39437293  0.55494320  0.45103578  1
  O  O327  1  0.38773136  0.47964515  0.94756185  1
  O  O328  1  0.19419885  0.81926938  0.52153159  1
  O  O329  1  0.41664363  1.03217209  1.05675989  1
  O  O330  1  0.76207964  0.49963468  0.52795834  1
  O  O331  1  0.78719850  0.52650385  0.94103045  1
  O  O332  1  0.89839822  1.05220040  0.49239728  1
  O  O333  1  0.87412465  0.99226188  1.00614972  1
  O  O334  1  0.13373083  0.04959990  0.02885568  1
  O  O335  1  0.09144110  0.04067853  0.58075548  1
  O  O336  1  0.18997959  0.48603782  -0.23509238  1
  O  O337  1  0.13810456  0.55775690  0.39407665  1
  O  O338  1  0.62092994  0.00307053  0.02806109  1
  O  O339  1  0.62859177  -0.00300068  0.52731671  1
  O  O340  1  0.57877011  0.47196083  -0.01174832  1
  O  O341  1  0.61508243  0.48476015  0.48551436  1
  O  O342  1  0.39922434  0.36198658  0.12154423  1
  O  O343  1  0.28890810  0.40971043  0.59285740  1
  O  O344  1  0.37227933  0.88533789  0.13145292  1
  O  O345  1  0.41216462  0.88420455  0.58825221  1
  O  O346  1  0.98570049  0.28958274  0.18782548  1
  O  O347  1  0.87585204  0.35172151  0.60146517  1
  O  O348  1  0.90964472  0.87434523  0.09906144  1
  O  O349  1  0.87355702  0.86850106  0.64538301  1
  O  O350  1  0.19079181  0.14624047  0.44790031  1
  O  O351  1  0.13194393  0.15195342  0.88376197  1
  O  O352  1  0.16135713  0.61809864  0.28683930  1
  O  O353  1  0.14486599  0.52697911  0.73150205  1
  O  O354  1  0.60639643  0.08262031  0.40112185  1
  O  O355  1  0.63038087  0.16274197  0.92367574  1
  O  O356  1  0.65217158  0.63110862  0.35172350  1
  O  O357  1  0.61597517  0.54511841  0.84361775  1
