# generated using pymatgen
data_V51Zn51O256
_symmetry_space_group_name_H-M   'P 1'
_cell_length_a   17.24076793
_cell_length_b   17.28858149
_cell_length_c   17.40951644
_cell_angle_alpha   89.92144343
_cell_angle_beta   90.56905377
_cell_angle_gamma   90.37159807
_symmetry_Int_Tables_number   1
_chemical_formula_structural   V51Zn51O256
_chemical_formula_sum   'V51 Zn51 O256'
_cell_volume   5188.85758217
_cell_formula_units_Z   1
loop_
 _symmetry_equiv_pos_site_id
 _symmetry_equiv_pos_as_xyz
  1  'x, y, z'
loop_
 _atom_site_type_symbol
 _atom_site_label
 _atom_site_symmetry_multiplicity
 _atom_site_fract_x
 _atom_site_fract_y
 _atom_site_fract_z
 _atom_site_occupancy
  V  V0  1  0.52299501  0.64218218  0.62907264  1
  V  V1  1  0.63532953  0.03939640  0.06641976  1
  V  V2  1  0.61713588  0.52884580  0.12410770  1
  V  V3  1  0.24258192  0.48292044  0.75334045  1
  V  V4  1  0.49672667  0.87647118  0.37504930  1
  V  V5  1  0.65517723  0.62288624  0.49295149  1
  V  V6  1  0.48783187  0.02197162  -0.03584456  1
  V  V7  1  0.87908681  0.68130329  0.22407680  1
  V  V8  1  -0.00936927  0.56368755  0.63647460  1
  V  V9  1  0.49679849  0.39208155  0.36503935  1
  V  V10  1  0.00969488  0.91180775  0.37869942  1
  V  V11  1  0.64857101  0.88105147  0.76748579  1
  V  V12  1  0.11971729  0.63845194  0.49219634  1
  V  V13  1  0.78356943  0.27035359  -0.04484804  1
  V  V14  1  0.08665418  0.25194832  0.41981374  1
  V  V15  1  -0.04175653  0.50581662  0.00107832  1
  V  V16  1  0.47137560  0.11754877  0.60433424  1
  V  V17  1  0.07372165  0.36626623  0.25046022  1
  V  V18  1  0.33780299  0.63306530  0.23959422  1
  V  V19  1  0.74334001  0.48822782  0.75608317  1
  V  V20  1  0.35474772  0.38724455  0.49297074  1
  V  V21  1  0.12561588  0.85645710  0.73251045  1
  V  V22  1  0.64503199  0.00813165  0.62636214  1
  V  V23  1  0.27720189  0.14039921  0.38638125  1
  V  V24  1  0.73611992  -0.00217081  0.28302276  1
  V  V25  1  0.86884486  0.62497145  0.75325697  1
  V  V26  1  0.59220241  0.25167677  0.39793157  1
  V  V27  1  0.26901934  0.70853711  0.00195654  1
  V  V28  1  0.37151844  0.11547195  0.24461410  1
  V  V29  1  0.80032861  0.63611556  0.39507548  1
  V  V30  1  0.35639798  -0.04713832  0.87375835  1
  V  V31  1  0.06357540  0.50733500  0.15803146  1
  V  V32  1  0.56620306  0.41416133  0.69886142  1
  V  V33  1  0.49054361  -0.02224163  0.51212569  1
  V  V34  1  0.75811131  0.86389842  0.61461398  1
  V  V35  1  0.63894237  0.67440246  0.01973576  1
  V  V36  1  0.28394974  0.45372967  0.25992264  1
  V  V37  1  0.81208732  0.14243881  0.26495556  1
  V  V38  1  0.08777083  0.63222997  0.00010078  1
  V  V39  1  0.36020328  0.12488925  0.74706896  1
  V  V40  1  0.52087320  0.76720531  0.77443131  1
  V  V41  1  0.75694519  0.37457932  0.59705427  1
  V  V42  1  0.73649570  0.46206406  0.20869884  1
  V  V43  1  0.37654651  0.64052834  0.75587414  1
  V  V44  1  0.26596638  -0.03025510  0.70458461  1
  V  V45  1  0.25621761  0.14776710  0.89791651  1
  V  V46  1  0.49026360  0.52696171  0.47822020  1
  V  V47  1  0.52817888  0.32566900  0.86009190  1
  V  V48  1  0.00753616  0.13166734  0.12894639  1
  V  V49  1  -0.00081450  0.85847939  0.85943195  1
  V  V50  1  0.66117588  0.76781651  0.37503045  1
  Zn  Zn51  1  0.22153389  0.57498703  0.12617171  1
  Zn  Zn52  1  0.48052781  0.08997768  0.37993884  1
  Zn  Zn53  1  0.44613497  0.46527412  0.19235335  1
  Zn  Zn54  1  0.14902147  0.56857798  0.30650810  1
  Zn  Zn55  1  0.72657142  0.31043092  0.27749053  1
  Zn  Zn56  1  0.22388967  0.50345251  0.55951262  1
  Zn  Zn57  1  0.78389429  0.57836710  0.59763218  1
  Zn  Zn58  1  0.28952181  0.79183350  0.80771048  1
  Zn  Zn59  1  0.18294512  0.91431165  0.94137185  1
  Zn  Zn60  1  0.93475147  0.10606909  0.43221692  1
  Zn  Zn61  1  0.46277814  0.67514594  0.93036585  1
  Zn  Zn62  1  0.94110484  0.68436048  0.91933038  1
  Zn  Zn63  1  0.99930495  0.68895913  0.35948230  1
  Zn  Zn64  1  0.13526357  0.84515810  0.52622656  1
  Zn  Zn65  1  0.82749433  0.83184729  0.32422056  1
  Zn  Zn66  1  0.80201411  0.59853222  0.06211273  1
  Zn  Zn67  1  0.27899748  0.97688467  0.49790831  1
  Zn  Zn68  1  0.48854414  0.71718493  0.46156488  1
  Zn  Zn69  1  0.60646696  0.13876378  0.24449103  1
  Zn  Zn70  1  0.85630089  0.01058890  0.60736355  1
  Zn  Zn71  1  0.16561699  0.19151414  0.26145588  1
  Zn  Zn72  1  0.62469122  0.87526444  -0.02589157  1
  Zn  Zn73  1  0.06517542  0.39754898  0.55414590  1
  Zn  Zn74  1  0.59579636  0.57281497  0.33366385  1
  Zn  Zn75  1  0.59241075  0.81229030  0.55363583  1
  Zn  Zn76  1  0.04587417  0.33605292  0.06046551  1
  Zn  Zn77  1  0.48906328  -0.01834289  0.74371823  1
  Zn  Zn78  1  0.32994753  0.30643854  0.81586173  1
  Zn  Zn79  1  0.34644844  0.07453490  0.04709741  1
  Zn  Zn80  1  0.95265074  0.21997003  0.95267656  1
  Zn  Zn81  1  0.17044434  0.40973110  0.41427440  1
  Zn  Zn82  1  0.98193218  0.87533458  0.64179792  1
  Zn  Zn83  1  0.76018950  0.27796769  0.74498293  1
  Zn  Zn84  1  0.53618771  0.98606414  0.22147560  1
  Zn  Zn85  1  0.07040273  0.83789501  0.03503379  1
  Zn  Zn86  1  0.40044338  0.83151213  0.25858610  1
  Zn  Zn87  1  0.85633885  0.83671618  0.74979408  1
  Zn  Zn88  1  0.37171747  0.28627575  0.32512911  1
  Zn  Zn89  1  0.68704042  0.69548841  0.69188864  1
  Zn  Zn90  1  0.14869020  0.01337375  0.82340402  1
  Zn  Zn91  1  0.39990133  0.50488930  0.64365808  1
  Zn  Zn92  1  0.68969184  0.94273852  0.45486619  1
  Zn  Zn93  1  0.04305837  0.54935762  0.83152374  1
  Zn  Zn94  1  0.89506985  0.97026839  0.20704298  1
  Zn  Zn95  1  0.50463318  0.31123724  0.55285190  1
  Zn  Zn96  1  0.69417914  0.65367704  0.22605928  1
  Zn  Zn97  1  0.91404787  0.41194444  0.15828632  1
  Zn  Zn98  1  0.69318614  0.43316542  0.41584716  1
  Zn  Zn99  1  0.66963552  0.45412632  0.93928660  1
  Zn  Zn100  1  0.89777131  0.42899312  0.68450296  1
  Zn  Zn101  1  0.63323326  0.21505729  0.60361236  1
  O  O102  1  0.07885451  0.09134314  0.07065061  1
  O  O103  1  0.06722266  0.02604969  0.57985128  1
  O  O104  1  0.12310217  0.58704882  0.18677682  1
  O  O105  1  0.05471476  0.60689073  0.57252833  1
  O  O106  1  0.58551349  0.06655611  0.15515039  1
  O  O107  1  0.64409465  0.10629831  0.63501829  1
  O  O108  1  0.63612085  0.64004215  0.12084803  1
  O  O109  1  0.63376803  0.63828963  0.59681552  1
  O  O110  1  0.38867403  0.39282955  0.38913801  1
  O  O111  1  0.43183967  0.34212557  0.85391758  1
  O  O112  1  0.40052840  0.86234833  0.37805692  1
  O  O113  1  0.36199952  0.85497947  0.87181260  1
  O  O114  1  0.87580222  0.31241541  0.37520741  1
  O  O115  1  1.02576075  0.39193695  0.78587199  1
  O  O116  1  0.90701598  0.88038396  0.39105419  1
  O  O117  1  0.90266880  0.88387096  0.83860225  1
  O  O118  1  0.18477036  -0.00119288  0.23465415  1
  O  O119  1  0.25404256  -0.03042341  0.87454766  1
  O  O120  1  0.22042960  0.47533973  0.33687135  1
  O  O121  1  0.21469089  0.53292412  0.84559668  1
  O  O122  1  0.75084638  -0.00431977  0.38031011  1
  O  O123  1  0.74789880  0.06454654  0.81330920  1
  O  O124  1  0.79956072  0.54031413  0.39713774  1
  O  O125  1  0.72334544  0.49936914  0.85082946  1
  O  O126  1  0.23781620  0.47102607  0.17397199  1
  O  O127  1  0.19297967  0.49235945  0.66813432  1
  O  O128  1  0.31525556  0.91009027  0.14819366  1
  O  O129  1  0.27988716  0.95409636  0.61189650  1
  O  O130  1  0.76648170  0.54342687  0.15761673  1
  O  O131  1  0.74858434  0.47371373  0.62312253  1
  O  O132  1  0.71732176  1.08742694  0.06832282  1
  O  O133  1  0.74509940  0.98947879  0.62935056  1
  O  O134  1  -0.02172916  0.34650897  0.23343362  1
  O  O135  1  -0.02914012  0.35330121  0.75709621  1
  O  O136  1  -0.02703869  0.93988308  0.28327013  1
  O  O137  1  0.01930717  0.88021335  0.74844171  1
  O  O138  1  0.49257806  0.39458007  0.26760213  1
  O  O139  1  0.47344871  0.44591871  0.70416567  1
  O  O140  1  0.49828943  0.89204536  0.26966491  1
  O  O141  1  0.52384565  0.86720272  0.75309645  1
  O  O142  1  0.46660806  0.07121266  0.25738271  1
  O  O143  1  0.45649550  0.09476220  0.72012161  1
  O  O144  1  0.49980399  0.63334726  0.27929687  1
  O  O145  1  0.55373515  0.66347073  0.72174176  1
  O  O146  1  1.07824036  0.13848253  0.20275052  1
  O  O147  1  0.97030001  0.07387760  0.86870109  1
  O  O148  1  0.97018721  0.65408074  0.25722591  1
  O  O149  1  0.98828709  0.58973474  0.73779255  1
  O  O150  1  0.34592972  0.40574335  0.07429813  1
  O  O151  1  0.39156720  0.30919425  0.53977776  1
  O  O152  1  0.35993100  0.68176338  -0.02736658  1
  O  O153  1  0.37647738  0.72724999  0.48169551  1
  O  O154  1  0.88331798  0.31024622  -0.07385735  1
  O  O155  1  0.75779079  0.18623236  0.51869282  1
  O  O156  1  0.85846855  0.76782928  -0.02325579  1
  O  O157  1  0.90853704  0.75338877  0.53886962  1
  O  O158  1  0.09128029  0.29250170  0.51027416  1
  O  O159  1  0.19510713  0.28664033  1.05949646  1
  O  O160  1  0.11655251  0.73536066  0.50276500  1
  O  O161  1  0.07680315  0.72711993  1.02529604  1
  O  O162  1  0.59297686  0.24482147  0.49703351  1
  O  O163  1  0.70690123  0.21027196  0.97082733  1
  O  O164  1  0.63717871  0.73966083  0.47899357  1
  O  O165  1  0.63380232  0.77308881  1.01613605  1
  O  O166  1  0.59723795  0.28477695  0.15000416  1
  O  O167  1  0.51663560  0.20878154  0.61808849  1
  O  O168  1  0.50470925  0.77090023  0.14889314  1
  O  O169  1  0.50817392  0.72890842  0.58027074  1
  O  O170  1  1.02408760  0.23402678  0.11811382  1
  O  O171  1  1.00548013  0.17196869  0.66245690  1
  O  O172  1  0.98861574  0.85270160  0.13243556  1
  O  O173  1  0.96603801  0.76629459  0.58114031  1
  O  O174  1  0.00711500  0.19288818  0.41739310  1
  O  O175  1  0.04152348  0.27830148  0.96921641  1
  O  O176  1  0.01679340  0.80784948  0.36065555  1
  O  O177  1  -0.00149821  0.75925689  0.86304165  1
  O  O178  1  0.48652825  0.28427530  0.37591894  1
  O  O179  1  0.53566374  0.23940962  0.93217762  1
  O  O180  1  0.52752771  0.77686434  0.37664161  1
  O  O181  1  0.51508111  0.76017069  0.87050687  1
  O  O182  1  0.25114151  0.07908363  0.45946747  1
  O  O183  1  0.26385563  0.12536953  0.99325019  1
  O  O184  1  0.21089246  0.60975605  0.51285559  1
  O  O185  1  0.19872156  0.62593755  1.02618790  1
  O  O186  1  0.76927829  0.12742582  0.48121064  1
  O  O187  1  0.84483381  0.18424688  0.93344582  1
  O  O188  1  0.76129277  0.63958043  0.50489717  1
  O  O189  1  0.72929051  0.64661828  0.98877210  1
  O  O190  1  0.32768416  0.36713307  0.01503517  1
  O  O191  1  0.26189932  0.36398863  0.46727050  1
  O  O192  1  0.22245224  0.80027875  -0.04063374  1
  O  O193  1  0.26326263  0.73498408  0.41890087  1
  O  O194  1  0.74337087  0.36320686  -0.03952876  1
  O  O195  1  0.74029629  0.37260578  0.50109949  1
  O  O196  1  0.73957163  0.83309368  0.14919878  1
  O  O197  1  0.76276586  0.87894292  0.51893609  1
  O  O198  1  0.08137252  0.47015703  0.26615344  1
  O  O199  1  0.14908473  0.49143034  0.81861806  1
  O  O200  1  0.15070889  0.95380736  0.19124881  1
  O  O201  1  0.16326666  0.98434434  0.71704485  1
  O  O202  1  0.64567030  0.54876584  0.23805693  1
  O  O203  1  0.63695332  0.48506217  0.72345837  1
  O  O204  1  0.64749037  0.96657334  0.25692117  1
  O  O205  1  0.61637392  0.97791461  0.72821955  1
  O  O206  1  0.31349878  -0.09603466  0.22580547  1
  O  O207  1  0.35986863  -0.03232371  0.76144939  1
  O  O208  1  0.36846117  0.51875439  0.25617175  1
  O  O209  1  0.32968293  0.53913208  0.73761869  1
  O  O210  1  0.81537590  0.04948210  0.21285476  1
  O  O211  1  0.79011410  0.01865454  0.84727803  1
  O  O212  1  0.90761207  0.47011903  0.32177213  1
  O  O213  1  0.85450714  0.50876883  0.74780431  1
  O  O214  1  0.08343629  0.34205344  0.36216676  1
  O  O215  1  0.10707330  0.27944117  0.83641820  1
  O  O216  1  0.09881498  0.92317151  0.33837054  1
  O  O217  1  0.11046135  0.90399051  0.84751651  1
  O  O218  1  0.59654024  0.36652706  0.39342843  1
  O  O219  1  0.57593684  0.39486707  0.91176451  1
  O  O220  1  0.64553216  0.86675937  0.38268835  1
  O  O221  1  0.64610130  0.89269022  0.86447371  1
  O  O222  1  0.34354277  0.07764462  0.15649035  1
  O  O223  1  0.37868846  0.13340175  0.59629443  1
  O  O224  1  0.32679941  0.61426037  0.14393086  1
  O  O225  1  0.41907984  0.62126443  0.65771161  1
  O  O226  1  0.92427618  0.15331850  0.18912645  1
  O  O227  1  0.88374243  0.08585810  0.69877782  1
  O  O228  1  0.86270364  0.66860233  0.12745260  1
  O  O229  1  0.89853860  0.58949954  0.61199831  1
  O  O230  1  0.23777919  0.25531460  0.10699282  1
  O  O231  1  0.18567387  0.29745655  0.65960457  1
  O  O232  1  0.28198471  0.75356725  0.08378712  1
  O  O233  1  0.27132880  0.75410865  0.59721404  1
  O  O234  1  0.80483030  0.27509943  0.05223673  1
  O  O235  1  0.71290899  0.28593570  0.64333821  1
  O  O236  1  0.77679827  0.81145211  0.09438209  1
  O  O237  1  0.75913553  0.76686963  0.63186692  1
  O  O238  1  0.31993257  0.22626554  0.40846390  1
  O  O239  1  0.26306193  0.24588223  0.88486906  1
  O  O240  1  0.33183384  0.71034062  0.41801355  1
  O  O241  1  0.22506194  0.74511537  0.89872167  1
  O  O242  1  0.68660927  0.25443863  0.36818051  1
  O  O243  1  0.74961815  0.27413235  0.85498245  1
  O  O244  1  0.76476459  0.76309338  0.38480465  1
  O  O245  1  0.80744311  0.79807160  0.93613469  1
  O  O246  1  -0.04620449  0.14259113  0.03838797  1
  O  O247  1  0.07245566  0.17088893  0.63907486  1
  O  O248  1  -0.02377222  0.61788847  0.00089096  1
  O  O249  1  -0.03829414  0.40476399  0.47088946  1
  O  O250  1  0.44659208  0.10371295  -0.00046965  1
  O  O251  1  0.49482222  0.09152138  0.50337123  1
  O  O252  1  0.46478839  0.73659149  0.10124842  1
  O  O253  1  0.54600511  0.62097336  0.45543419  1
  O  O254  1  0.47769720  0.42298753  0.49395234  1
  O  O255  1  0.56292747  0.23732749  1.10673890  1
  O  O256  1  0.51562430  0.87586543  0.49776373  1
  O  O257  1  0.50869544  0.91089214  0.99706720  1
  O  O258  1  0.85765697  0.27995455  0.43489349  1
  O  O259  1  0.95915471  0.41095746  1.05271652  1
  O  O260  1  1.03560988  0.89512991  0.47631107  1
  O  O261  1  1.00245458  0.88458772  0.95574395  1
  O  O262  1  0.52387120  0.49799062  0.37742963  1
  O  O263  1  0.44190453  0.49043802  0.96288717  1
  O  O264  1  0.51558304  0.98149715  0.40309427  1
  O  O265  1  0.46592793  0.99613806  0.86404626  1
  O  O266  1  0.96035075  0.50898616  0.34918139  1
  O  O267  1  0.98421570  0.48792147  0.90833047  1
  O  O268  1  0.99344507  1.00773057  0.40899103  1
  O  O269  1  0.87384590  0.96240341  0.98335824  1
  O  O270  1  -0.02774718  0.03599153  0.15094761  1
  O  O271  1  0.00638110  0.00171046  0.60990911  1
  O  O272  1  -0.03342370  0.51766577  0.16810646  1
  O  O273  1  -0.00138909  0.46216099  0.62851625  1
  O  O274  1  0.50306359  -0.03724386  0.05865006  1
  O  O275  1  0.50603214  0.00439724  0.61700613  1
  O  O276  1  0.51950278  0.52057791  0.12957779  1
  O  O277  1  0.51288525  0.54692175  0.58211018  1
  O  O278  1  0.31102724  0.35949707  0.25813805  1
  O  O279  1  0.27255290  0.39059993  0.76830390  1
  O  O280  1  0.19220593  0.79878540  0.26730936  1
  O  O281  1  0.23929227  0.86555125  0.73820841  1
  O  O282  1  0.72585857  0.42092119  0.30731897  1
  O  O283  1  0.76514802  0.39084893  0.74934970  1
  O  O284  1  0.80333195  0.91818892  0.25607555  1
  O  O285  1  0.74722320  0.87904354  0.74481992  1
  O  O286  1  0.25777500  0.13239210  0.27865073  1
  O  O287  1  0.27811788  0.08079999  0.70571382  1
  O  O288  1  0.24983832  0.62437438  0.28157929  1
  O  O289  1  0.29139138  0.68574341  0.77285401  1
  O  O290  1  0.71432376  0.11059449  0.28413771  1
  O  O291  1  0.83414629  0.14419477  0.69299933  1
  O  O292  1  0.79817809  0.64427783  0.28142982  1
  O  O293  1  0.76214831  0.61103838  0.71579030  1
  O  O294  1  0.36591343  0.08924949  0.35571335  1
  O  O295  1  0.34120985  0.10836962  0.84822813  1
  O  O296  1  0.43906484  0.63445072  0.32059421  1
  O  O297  1  0.42639924  0.61786163  0.83610423  1
  O  O298  1  0.86611108  0.13042064  0.34564336  1
  O  O299  1  0.98835664  0.14441953  0.86480949  1
  O  O300  1  0.89598076  0.66445787  0.40507151  1
  O  O301  1  0.86967229  0.62857162  0.84987561  1
  O  O302  1  0.08840658  0.40304973  0.14174474  1
  O  O303  1  0.12705563  0.33670575  0.66825285  1
  O  O304  1  0.16344977  0.81889601  0.14418587  1
  O  O305  1  0.09797684  0.85925924  0.62867280  1
  O  O306  1  0.65626378  0.43029710  0.15404012  1
  O  O307  1  0.58219514  0.37391087  0.61076338  1
  O  O308  1  0.66086282  0.94313026  0.05712834  1
  O  O309  1  0.65002144  0.87390159  0.62767913  1
  O  O310  1  0.13935417  0.29303164  0.23139083  1
  O  O311  1  0.08521536  0.23596041  0.78529528  1
  O  O312  1  0.14835168  0.78430750  0.20857056  1
  O  O313  1  0.12756506  0.76494702  0.75361768  1
  O  O314  1  0.62708983  0.25432663  0.22235441  1
  O  O315  1  0.57321517  0.33514745  0.76675555  1
  O  O316  1  0.64722830  0.74165437  0.27842160  1
  O  O317  1  0.63365216  0.77413599  0.75577622  1
  O  O318  1  0.39338584  0.21081817  0.23984928  1
  O  O319  1  0.35316962  0.22166651  0.74059993  1
  O  O320  1  0.36479889  0.72968485  0.24472411  1
  O  O321  1  0.42714326  0.74185906  0.74168811  1
  O  O322  1  0.80117985  0.23737822  0.23955782  1
  O  O323  1  0.85486114  0.20799954  0.73447284  1
  O  O324  1  0.87650452  0.77837102  0.24032104  1
  O  O325  1  0.87763138  0.72115765  0.72960268  1
  O  O326  1  0.40278448  0.55857591  0.46339446  1
  O  O327  1  0.37685794  0.48883886  0.93445364  1
  O  O328  1  0.39360026  0.97009264  0.50519686  1
  O  O329  1  0.37091915  0.98062039  0.97188987  1
  O  O330  1  0.90522056  0.44781403  0.47979726  1
  O  O331  1  0.86063510  0.52089421  1.00511690  1
  O  O332  1  0.88368040  1.06780489  0.51958224  1
  O  O333  1  0.82076662  0.95164204  1.02867553  1
  O  O334  1  0.14255326  -0.07946471  0.03917944  1
  O  O335  1  0.20806938  -0.10187079  0.46820777  1
  O  O336  1  0.07150872  0.53097216  0.05176294  1
  O  O337  1  0.13249837  0.46684907  0.50177674  1
  O  O338  1  0.58695913  0.05404658  -0.02944847  1
  O  O339  1  0.62218649  -0.00792323  0.52712869  1
  O  O340  1  0.64518250  0.51100506  0.03082067  1
  O  O341  1  0.65551854  0.52327686  0.48043949  1
  O  O342  1  0.41406422  0.38616251  0.11025655  1
  O  O343  1  0.33229342  0.46299399  0.56427390  1
  O  O344  1  0.37701336  0.88368625  0.11772473  1
  O  O345  1  0.33166645  0.78699390  0.61516018  1
  O  O346  1  0.80872549  0.39813510  0.18223909  1
  O  O347  1  0.85479997  0.35706120  0.61095339  1
  O  O348  1  0.92285336  0.88543108  0.12755079  1
  O  O349  1  0.86961619  0.89664056  0.64317452  1
  O  O350  1  0.16324939  0.19537451  0.38095584  1
  O  O351  1  0.16721270  0.11417497  0.86177878  1
  O  O352  1  0.09023571  0.62230368  0.39259221  1
  O  O353  1  0.09291115  0.62447560  0.90306271  1
  O  O354  1  0.56665020  0.15994661  0.35178093  1
  O  O355  1  0.55252728  0.21518058  0.86146274  1
  O  O356  1  0.67775633  0.64040987  0.38426612  1
  O  O357  1  0.55923231  0.63722382  0.97150042  1
