# generated using pymatgen
data_V51Zn51O256
_symmetry_space_group_name_H-M   'P 1'
_cell_length_a   17.63414366
_cell_length_b   17.47656078
_cell_length_c   17.49325101
_cell_angle_alpha   90.01857018
_cell_angle_beta   91.05779066
_cell_angle_gamma   89.42613078
_symmetry_Int_Tables_number   1
_chemical_formula_structural   V51Zn51O256
_chemical_formula_sum   'V51 Zn51 O256'
_cell_volume   5389.95412199
_cell_formula_units_Z   1
loop_
 _symmetry_equiv_pos_site_id
 _symmetry_equiv_pos_as_xyz
  1  'x, y, z'
loop_
 _atom_site_type_symbol
 _atom_site_label
 _atom_site_symmetry_multiplicity
 _atom_site_fract_x
 _atom_site_fract_y
 _atom_site_fract_z
 _atom_site_occupancy
  V  V0  1  0.13591187  0.57423669  -0.00186708  1
  V  V1  1  0.15114954  0.76033644  0.30100429  1
  V  V2  1  0.11092464  0.47209802  0.62532705  1
  V  V3  1  0.24703411  0.51067368  0.72431072  1
  V  V4  1  0.66230846  0.15515875  0.00739445  1
  V  V5  1  0.45720484  0.85714849  0.03132081  1
  V  V6  1  0.50522372  0.88781529  0.83574385  1
  V  V7  1  0.52684234  0.85813106  0.35030744  1
  V  V8  1  0.90999389  0.60535560  0.25956072  1
  V  V9  1  0.09189053  0.89188663  0.71380606  1
  V  V10  1  0.74091349  0.43109922  0.10361648  1
  V  V11  1  0.24896103  0.52386340  0.23537634  1
  V  V12  1  0.88944179  0.50679323  0.85294679  1
  V  V13  1  0.73962705  0.39528894  0.61540830  1
  V  V14  1  0.77097046  0.63330314  0.88550998  1
  V  V15  1  0.35436972  0.35731779  0.45400395  1
  V  V16  1  0.50089873  0.40580720  0.80696914  1
  V  V17  1  0.34893089  0.88700740  0.55760802  1
  V  V18  1  0.39905590  0.60898554  0.19736876  1
  V  V19  1  0.02139097  0.08508238  0.67277733  1
  V  V20  1  0.52323644  0.02565546  -0.01972079  1
  V  V21  1  -0.02518443  -0.03839930  0.46808619  1
  V  V22  1  0.47203292  0.55618857  0.49329668  1
  V  V23  1  0.01240044  0.63995852  0.10920458  1
  V  V24  1  0.67093142  -0.00771849  0.09402199  1
  V  V25  1  0.25065645  0.35120149  0.17024557  1
  V  V26  1  0.07645271  0.33378198  0.24460877  1
  V  V27  1  0.87442243  0.82268023  0.52841684  1
  V  V28  1  0.75891000  0.53879685  0.72367120  1
  V  V29  1  0.88257541  0.37990842  -0.02380224  1
  V  V30  1  0.13483750  0.66461418  0.52148782  1
  V  V31  1  0.28373911  0.13108655  0.89031849  1
  V  V32  1  0.62498408  0.26459165  0.83740936  1
  V  V33  1  -0.02820491  0.87078524  0.30475976  1
  V  V34  1  0.88020783  0.29033566  0.63829849  1
  V  V35  1  0.01780458  0.50063311  0.47711236  1
  V  V36  1  0.74543605  0.10744120  0.86595933  1
  V  V37  1  0.85336121  0.09819190  0.74177196  1
  V  V38  1  0.34124157  0.17651912  0.72632412  1
  V  V39  1  0.35013667  0.56313345  0.37418579  1
  V  V40  1  0.24610761  0.28384388  -0.02325016  1
  V  V41  1  0.11229165  0.47974613  0.13408520  1
  V  V42  1  0.00527323  0.75240873  0.72479010  1
  V  V43  1  0.09916194  0.19811864  0.89558456  1
  V  V44  1  0.76023717  0.82388455  0.09692000  1
  V  V45  1  0.86478225  0.87257474  -0.03944077  1
  V  V46  1  0.70154919  0.00608124  0.28433998  1
  V  V47  1  0.70412324  0.64098792  0.35866766  1
  V  V48  1  0.61053703  0.38243439  0.26076638  1
  V  V49  1  0.52390385  0.11720414  0.13765026  1
  V  V50  1  0.40316820  0.35840807  0.06607864  1
  Zn  Zn51  1  0.93997578  0.64924299  0.46430816  1
  Zn  Zn52  1  0.90477357  0.48533256  0.64444749  1
  Zn  Zn53  1  0.59175976  0.81789938  0.15747373  1
  Zn  Zn54  1  0.34202234  0.75760563  0.29586650  1
  Zn  Zn55  1  0.21033865  0.40715406  0.35970948  1
  Zn  Zn56  1  0.30752055  0.52728088  0.05661569  1
  Zn  Zn57  1  0.97320429  0.66713854  0.91925867  1
  Zn  Zn58  1  0.48233098  0.13118523  0.83279506  1
  Zn  Zn59  1  0.01998984  0.34787108  0.57652319  1
  Zn  Zn60  1  0.35966639  0.96051097  0.94549411  1
  Zn  Zn61  1  0.30041729  0.18293363  0.51783688  1
  Zn  Zn62  1  0.91431117  -0.07498768  0.69029878  1
  Zn  Zn63  1  0.59500591  0.56485513  0.81669154  1
  Zn  Zn64  1  0.66055956  0.48565573  0.46909774  1
  Zn  Zn65  1  0.47231473  0.71856830  0.90084566  1
  Zn  Zn66  1  0.53945567  0.57018221  0.31624911  1
  Zn  Zn67  1  0.41883793  0.45200138  0.64863425  1
  Zn  Zn68  1  0.57792032  0.32601645  0.65910017  1
  Zn  Zn69  1  0.59148226  0.29910354  0.10832729  1
  Zn  Zn70  1  0.80104567  0.34387664  0.79894671  1
  Zn  Zn71  1  0.24017281  0.51005856  0.51076910  1
  Zn  Zn72  1  0.42165421  0.72988376  0.43906527  1
  Zn  Zn73  1  0.81255579  0.52163250  0.50256695  1
  Zn  Zn74  1  0.81506155  0.76283541  0.27529256  1
  Zn  Zn75  1  0.51961610  0.95631374  0.19348600  1
  Zn  Zn76  1  0.08151376  0.58236634  0.30638005  1
  Zn  Zn77  1  0.42187626  1.00260372  0.70832573  1
  Zn  Zn78  1  0.88859757  0.12005531  0.54919838  1
  Zn  Zn79  1  0.73113782  0.21562557  0.69146750  1
  Zn  Zn80  1  -0.03191042  0.83884475  0.10984650  1
  Zn  Zn81  1  0.34981347  0.81716639  0.80971383  1
  Zn  Zn82  1  0.54457105  0.05316385  0.33385259  1
  Zn  Zn83  1  0.82161386  0.04149347  0.02227839  1
  Zn  Zn84  1  0.26542892  0.04014143  0.59176318  1
  Zn  Zn85  1  0.83681272  0.56210055  0.03715395  1
  Zn  Zn86  1  0.06832356  0.81732537  0.55382093  1
  Zn  Zn87  1  0.31428315  0.37382839  0.79899091  1
  Zn  Zn88  1  0.70913038  0.83652251  0.40467890  1
  Zn  Zn89  1  0.16620812  0.06411462  0.78194235  1
  Zn  Zn90  1  0.91894953  0.42568721  0.17784417  1
  Zn  Zn91  1  0.83764554  0.93745547  0.19636093  1
  Zn  Zn92  1  0.64657252  0.18929979  0.25975843  1
  Zn  Zn93  1  0.20592571  0.71130393  0.71029021  1
  Zn  Zn94  1  0.68328555  0.70238615  0.76908380  1
  Zn  Zn95  1  0.07950184  0.54631036  0.80832511  1
  Zn  Zn96  1  0.42992454  0.26800911  0.90764973  1
  Zn  Zn97  1  0.90597841  0.20154069  0.91626304  1
  Zn  Zn98  1  0.68769663  0.91400530  0.91645193  1
  Zn  Zn99  1  0.40370982  0.40845065  0.25941941  1
  Zn  Zn100  1  0.74918058  0.63311405  0.16680129  1
  Zn  Zn101  1  0.84134544  0.79347666  0.79444900  1
  O  O102  1  0.07855491  0.05351700  0.16831099  1
  O  O103  1  0.11458195  0.10500176  0.69256785  1
  O  O104  1  0.10662358  0.58770245  0.11547148  1
  O  O105  1  0.15535741  0.67151682  0.61896943  1
  O  O106  1  0.68067853  0.09640285  0.09677680  1
  O  O107  1  0.71894994  -0.00766800  0.61799614  1
  O  O108  1  0.62810168  0.60076678  0.00867848  1
  O  O109  1  0.60510010  0.65027899  0.62034565  1
  O  O110  1  0.38357996  0.37265798  0.36272342  1
  O  O111  1  0.42092101  0.36978601  0.85231263  1
  O  O112  1  0.25885044  0.93618891  0.53646500  1
  O  O113  1  0.39819626  0.90234987  0.86045733  1
  O  O114  1  0.96049046  0.26186159  0.38699855  1
  O  O115  1  0.87548217  0.39713445  0.86318128  1
  O  O116  1  0.89890659  0.81428355  0.32954017  1
  O  O117  1  0.86087495  0.87653576  0.86300278  1
  O  O118  1  0.20427670  -0.03922479  0.34055399  1
  O  O119  1  0.29321221  0.03689814  0.90627116  1
  O  O120  1  0.25611875  0.52472944  0.34841430  1
  O  O121  1  0.22852216  0.44938665  0.80004627  1
  O  O122  1  0.69654118  -0.06208031  0.35218991  1
  O  O123  1  0.73137578  0.01314275  0.86996402  1
  O  O124  1  0.73409767  0.57742484  0.43436490  1
  O  O125  1  0.77612096  0.53686974  0.83791066  1
  O  O126  1  0.24388761  0.48059022  0.13967139  1
  O  O127  1  0.22219179  0.49187931  0.62147560  1
  O  O128  1  0.24542697  1.02812138  0.16628100  1
  O  O129  1  0.25665574  1.01019773  0.69995789  1
  O  O130  1  0.75542625  0.53127034  0.11516422  1
  O  O131  1  0.79008968  0.51843458  0.62372552  1
  O  O132  1  0.77191290  0.97808219  0.10208271  1
  O  O133  1  0.70290778  0.94238384  0.57153915  1
  O  O134  1  -0.02028698  0.35149472  0.23306436  1
  O  O135  1  0.02268885  0.36467261  0.80087882  1
  O  O136  1  -0.05426055  0.89965476  0.21007601  1
  O  O137  1  -0.00597559  0.85929470  0.74241858  1
  O  O138  1  0.51603503  0.38432195  0.24382438  1
  O  O139  1  0.49602326  0.38653935  0.70742274  1
  O  O140  1  0.56051108  0.85789459  0.25680752  1
  O  O141  1  0.49790782  0.93725587  0.75030129  1
  O  O142  1  0.50549012  0.06494799  0.22767844  1
  O  O143  1  0.42599076  0.11258115  0.73571767  1
  O  O144  1  0.49200593  0.58323105  0.21725629  1
  O  O145  1  0.57025711  0.66354222  0.74439739  1
  O  O146  1  0.96082692  0.11693604  0.27102454  1
  O  O147  1  0.95246882  0.12330335  0.74125535  1
  O  O148  1  1.00417872  0.61526543  0.22302610  1
  O  O149  1  1.04575953  0.65691359  0.76959774  1
  O  O150  1  0.37597868  0.28515127  0.00245881  1
  O  O151  1  0.34283660  0.26007536  0.46238656  1
  O  O152  1  0.46891805  0.76526064  0.00248591  1
  O  O153  1  0.35705573  0.79999319  0.50635512  1
  O  O154  1  0.85343787  0.28428791  -0.03799206  1
  O  O155  1  0.87906861  0.23202643  0.55997960  1
  O  O156  1  0.92053764  0.76853918  -0.04202048  1
  O  O157  1  0.88518725  0.72598688  0.52095788  1
  O  O158  1  0.10645975  0.22446859  0.51067376  1
  O  O159  1  0.14705147  0.26699742  0.96041243  1
  O  O160  1  0.12973904  0.75845105  0.48651340  1
  O  O161  1  0.16660934  0.77740343  1.04148622  1
  O  O162  1  0.63475281  0.20134003  0.58281120  1
  O  O163  1  0.66212767  0.24650937  1.03748336  1
  O  O164  1  0.58484796  0.85656967  0.57017688  1
  O  O165  1  0.58142732  0.65052672  0.98690495  1
  O  O166  1  0.57833270  0.19992709  0.16839120  1
  O  O167  1  0.51622243  0.24246297  0.60888507  1
  O  O168  1  0.57429094  0.70469932  0.13617819  1
  O  O169  1  0.55202725  0.64556042  0.66710938  1
  O  O170  1  0.90289342  0.15556723  0.27494088  1
  O  O171  1  0.97564818  0.29769131  0.66070490  1
  O  O172  1  1.00371842  0.73496141  0.12287259  1
  O  O173  1  1.01607124  0.74829242  0.62881208  1
  O  O174  1  0.00819114  0.21062195  0.39006605  1
  O  O175  1  0.00920323  0.17613933  0.92757425  1
  O  O176  1  0.04521415  0.79598146  0.33903960  1
  O  O177  1  0.03717573  0.70976829  0.83268365  1
  O  O178  1  0.52965366  0.20341777  0.41832918  1
  O  O179  1  0.52688483  0.22900998  0.86530817  1
  O  O180  1  0.44188215  0.80145337  0.35779443  1
  O  O181  1  0.48523777  0.79090807  0.81574784  1
  O  O182  1  0.25021818  0.09206355  0.50201424  1
  O  O183  1  0.26817153  0.18121965  0.97771044  1
  O  O184  1  0.21088574  0.61631448  0.48391716  1
  O  O185  1  0.22838158  0.59645746  1.01754472  1
  O  O186  1  0.68578926  0.09497833  0.47871021  1
  O  O187  1  0.76306830  0.12298782  0.97809784  1
  O  O188  1  0.56804394  0.79214630  0.59223535  1
  O  O189  1  0.77189418  0.63525356  0.98237634  1
  O  O190  1  0.24894212  0.34031470  0.06068292  1
  O  O191  1  0.26327086  0.40558163  0.45945218  1
  O  O192  1  0.36380192  0.88565852  0.02711782  1
  O  O193  1  0.28611185  0.84059055  0.61847646  1
  O  O194  1  0.70593973  0.41987200  0.01845119  1
  O  O195  1  0.74533225  0.43258045  0.51138631  1
  O  O196  1  0.76234223  0.85675871  -0.01976429  1
  O  O197  1  0.79857726  0.85145375  0.47258966  1
  O  O198  1  0.14444922  0.51512324  0.23870749  1
  O  O199  1  0.12730631  0.51457048  0.71847882  1
  O  O200  1  0.21892292  0.96393664  0.15970423  1
  O  O201  1  0.13887227  0.95520882  0.77220649  1
  O  O202  1  0.62595126  0.48755602  0.29324820  1
  O  O203  1  0.66374699  0.52433054  0.73324886  1
  O  O204  1  0.64857440  0.97781704  0.20127089  1
  O  O205  1  0.59621205  1.04030115  0.66401755  1
  O  O206  1  0.36864435  -0.04747499  0.23090247  1
  O  O207  1  0.31279923  -0.02299724  0.74000355  1
  O  O208  1  0.36569348  0.52146616  0.26047851  1
  O  O209  1  0.39760749  0.67232564  0.64815683  1
  O  O210  1  0.79341821  0.01834904  0.25894149  1
  O  O211  1  0.85600097  0.00187407  0.74585691  1
  O  O212  1  0.88303359  0.51297778  0.24030366  1
  O  O213  1  0.87543492  0.51000953  0.74997326  1
  O  O214  1  0.11484649  0.36590536  0.33153949  1
  O  O215  1  0.07253644  0.38414182  0.84569435  1
  O  O216  1  0.08541572  0.86270297  0.30648472  1
  O  O217  1  0.13168618  0.85013059  0.90741144  1
  O  O218  1  0.63247246  0.43107250  0.35529589  1
  O  O219  1  0.58374455  0.36278431  0.84516245  1
  O  O220  1  0.59672655  0.82546466  0.41120386  1
  O  O221  1  0.60155561  0.88586591  0.85695200  1
  O  O222  1  0.44141669  0.14874933  0.11153740  1
  O  O223  1  0.31531907  0.16064236  0.63230157  1
  O  O224  1  0.38632886  0.59259953  0.10238085  1
  O  O225  1  0.33584031  0.66114626  0.61665423  1
  O  O226  1  0.89506850  0.09792615  0.11706255  1
  O  O227  1  0.82739520  0.11486334  0.64744664  1
  O  O228  1  0.92630971  0.60070026  0.08876008  1
  O  O229  1  0.71147985  0.71031828  0.53900373  1
  O  O230  1  0.24418191  0.26400861  0.19895636  1
  O  O231  1  0.16645683  0.24077198  0.47991994  1
  O  O232  1  0.21359624  0.82482105  0.06038832  1
  O  O233  1  0.27685281  0.78876877  0.73881462  1
  O  O234  1  0.76440600  0.19869404  0.20294456  1
  O  O235  1  0.74986837  0.29542311  0.61273453  1
  O  O236  1  0.74089288  0.72987107  0.10188431  1
  O  O237  1  0.72227539  0.75409570  0.59272447  1
  O  O238  1  0.16379209  0.13504452  0.36137674  1
  O  O239  1  0.27169896  0.32140740  0.89293156  1
  O  O240  1  0.24470798  0.79138018  0.32317382  1
  O  O241  1  0.24543602  0.73665051  0.90618429  1
  O  O242  1  0.78627671  0.21549967  0.35520275  1
  O  O243  1  0.71567421  0.29509254  0.85407149  1
  O  O244  1  0.74161620  0.73785108  0.35560870  1
  O  O245  1  0.77348382  0.72716451  0.84666083  1
  O  O246  1  -0.05687321  0.14915157  0.11038543  1
  O  O247  1  -0.00205217  0.12171514  0.58606840  1
  O  O248  1  0.04599610  0.64114935  0.00281793  1
  O  O249  1  0.04387232  0.62092350  0.49766777  1
  O  O250  1  0.56299088  0.12925612  0.01218196  1
  O  O251  1  0.56361464  0.18375786  0.58908303  1
  O  O252  1  0.53139706  0.62653198  -0.07790498  1
  O  O253  1  0.47327663  0.65492318  0.49668072  1
  O  O254  1  0.44493982  0.39072426  0.50024422  1
  O  O255  1  0.50026416  0.34980511  1.07473019  1
  O  O256  1  0.38437741  0.91883369  0.46867243  1
  O  O257  1  0.51142287  0.91572865  0.96680327  1
  O  O258  1  0.99940480  0.40304516  0.48513697  1
  O  O259  1  0.97255215  0.37510611  0.99464441  1
  O  O260  1  0.97026249  0.86153684  0.50316962  1
  O  O261  1  0.96735287  0.83086112  0.97884464  1
  O  O262  1  0.45326353  0.54008050  0.37970230  1
  O  O263  1  0.50779451  0.50197031  0.81972557  1
  O  O264  1  0.51062407  0.95557325  0.36635406  1
  O  O265  1  0.53125937  1.04429401  0.88367146  1
  O  O266  1  1.03590207  0.51465243  0.38311774  1
  O  O267  1  0.98597891  0.51235301  0.85478855  1
  O  O268  1  0.96440692  0.95341105  0.36190670  1
  O  O269  1  1.11210167  0.99313196  1.02319795  1
  O  O270  1  0.10475812  0.06023831  0.23320693  1
  O  O271  1  0.00860950  -0.01444209  0.67363665  1
  O  O272  1  0.01921816  0.46709922  0.13849879  1
  O  O273  1  0.01094398  0.49244392  0.61940119  1
  O  O274  1  0.54996569  0.01666041  0.09572246  1
  O  O275  1  0.54846035  0.03168360  0.61237098  1
  O  O276  1  0.53035069  0.51292675  0.06660804  1
  O  O277  1  0.45599463  0.53060578  0.58642475  1
  O  O278  1  0.26472201  0.40415761  0.25991256  1
  O  O279  1  0.34166891  0.46555919  0.72027364  1
  O  O280  1  0.32784886  0.89592840  0.22311005  1
  O  O281  1  0.18647899  0.89060560  0.92103821  1
  O  O282  1  0.80121998  0.25901262  0.20740642  1
  O  O283  1  0.75762152  0.41007530  0.71670832  1
  O  O284  1  0.77781142  0.84074433  0.20019466  1
  O  O285  1  0.74993246  0.86933114  0.75766814  1
  O  O286  1  0.25677350  0.00615828  0.34051741  1
  O  O287  1  0.26400179  0.13981461  0.78253047  1
  O  O288  1  0.27020196  0.61420062  0.21336018  1
  O  O289  1  0.25086526  0.60593099  0.74692305  1
  O  O290  1  0.65006247  0.09317261  0.31414224  1
  O  O291  1  0.74035803  0.12686115  0.76335079  1
  O  O292  1  0.72765279  0.60271799  0.27328454  1
  O  O293  1  0.76034521  0.63667203  0.71594349  1
  O  O294  1  0.33862230  0.13802893  0.33031526  1
  O  O295  1  0.37650689  0.16834772  0.87502740  1
  O  O296  1  0.34963813  0.66208385  0.37318986  1
  O  O297  1  0.29843758  0.68833409  0.90769711  1
  O  O298  1  0.80535398  0.20039015  0.42425972  1
  O  O299  1  0.84762836  0.12831270  0.85572495  1
  O  O300  1  0.91433910  0.63154753  0.35366180  1
  O  O301  1  0.88287034  0.61441445  0.88227712  1
  O  O302  1  0.13941814  0.37618682  0.16604493  1
  O  O303  1  0.11544211  0.37541439  0.63047245  1
  O  O304  1  0.06277651  0.90249812  0.09798756  1
  O  O305  1  0.11430047  0.89509905  0.61868858  1
  O  O306  1  0.66450285  0.38450746  0.16603859  1
  O  O307  1  0.64113090  0.40037236  0.61232498  1
  O  O308  1  0.66466443  0.87159956  0.09618580  1
  O  O309  1  0.69453886  0.85570078  0.70735942  1
  O  O310  1  0.08700084  0.24054825  0.24109425  1
  O  O311  1  0.09265305  0.23567025  0.81100973  1
  O  O312  1  0.14526798  0.75104330  0.20838986  1
  O  O313  1  0.11932112  0.79578032  0.73818586  1
  O  O314  1  0.63684772  0.29281782  0.29188825  1
  O  O315  1  0.62651734  0.25049013  0.73799767  1
  O  O316  1  0.61564232  0.65080252  0.16318845  1
  O  O317  1  0.64496394  0.80070324  0.72459725  1
  O  O318  1  0.33383198  0.12350414  0.26178735  1
  O  O319  1  0.34710024  0.27171013  0.74306176  1
  O  O320  1  0.39492032  0.70580019  0.21745628  1
  O  O321  1  0.36427866  0.71251041  0.86294821  1
  O  O322  1  0.83338138  0.12928543  0.43704445  1
  O  O323  1  0.83732837  0.25971498  0.72859509  1
  O  O324  1  0.84831079  0.67358624  0.21355688  1
  O  O325  1  0.91045370  0.73524772  0.73699232  1
  O  O326  1  0.35317175  0.53849577  0.47146793  1
  O  O327  1  0.37687132  0.44485590  1.02735790  1
  O  O328  1  0.37635632  0.98255490  0.59974514  1
  O  O329  1  0.43086659  1.04017082  0.99624190  1
  O  O330  1  0.91921468  0.53959918  0.49559376  1
  O  O331  1  0.86374074  0.48627202  0.96406511  1
  O  O332  1  0.90568587  1.01564297  0.50886622  1
  O  O333  1  0.88806573  0.96591005  0.98459700  1
  O  O334  1  0.05708653  -0.05136609  0.03372945  1
  O  O335  1  0.05853865  -0.00553157  0.48761378  1
  O  O336  1  0.12916467  0.47562949  0.03130497  1
  O  O337  1  0.11683393  0.49262719  0.52070572  1
  O  O338  1  0.64593099  -0.01113961  -0.00377522  1
  O  O339  1  0.62602159  0.05996536  0.48362108  1
  O  O340  1  0.52091074  0.49288569  0.00036615  1
  O  O341  1  0.56352906  0.52604218  0.47817318  1
  O  O342  1  0.36368698  0.35803087  0.16168414  1
  O  O343  1  0.39218056  0.37713019  0.56055138  1
  O  O344  1  0.49281772  0.86821012  0.12515312  1
  O  O345  1  0.42710748  0.86710093  0.61629055  1
  O  O346  1  0.83937563  0.39636268  0.09417541  1
  O  O347  1  0.86320678  0.38632354  0.60659653  1
  O  O348  1  0.86026447  0.84109453  0.07872469  1
  O  O349  1  0.86236502  0.85747359  0.61990130  1
  O  O350  1  0.11764608  0.09291521  0.39021347  1
  O  O351  1  0.16562120  0.11747250  0.88320611  1
  O  O352  1  0.13644712  0.66935125  0.33809098  1
  O  O353  1  0.13285711  0.56693192  0.90180276  1
  O  O354  1  0.49717178  0.14022375  0.40892904  1
  O  O355  1  0.65837430  0.16418481  0.89350589  1
  O  O356  1  0.60704255  0.64641871  0.35812558  1
  O  O357  1  0.66897784  0.63243871  0.86111450  1
