# generated using pymatgen
data_V51Zn51O256
_symmetry_space_group_name_H-M   'P 1'
_cell_length_a   17.69562162
_cell_length_b   18.05157639
_cell_length_c   17.61413349
_cell_angle_alpha   90.31905578
_cell_angle_beta   89.77823525
_cell_angle_gamma   90.40787963
_symmetry_Int_Tables_number   1
_chemical_formula_structural   V51Zn51O256
_chemical_formula_sum   'V51 Zn51 O256'
_cell_volume   5626.27965491
_cell_formula_units_Z   1
loop_
 _symmetry_equiv_pos_site_id
 _symmetry_equiv_pos_as_xyz
  1  'x, y, z'
loop_
 _atom_site_type_symbol
 _atom_site_label
 _atom_site_symmetry_multiplicity
 _atom_site_fract_x
 _atom_site_fract_y
 _atom_site_fract_z
 _atom_site_occupancy
  V  V0  1  0.21982756  0.89777337  0.61671188  1
  V  V1  1  0.69131370  0.20725853  -0.00041457  1
  V  V2  1  0.76720474  0.88300623  0.58828424  1
  V  V3  1  0.25301682  0.47941982  0.23737330  1
  V  V4  1  0.81181260  0.75125590  0.02418331  1
  V  V5  1  0.49963403  0.66018824  0.63513057  1
  V  V6  1  0.67631696  0.77653664  0.86572428  1
  V  V7  1  0.39475775  0.39301761  0.49887109  1
  V  V8  1  0.61335860  0.25928668  0.82989615  1
  V  V9  1  0.40063085  0.73969138  0.17781364  1
  V  V10  1  -0.02938674  0.49523383  0.03467891  1
  V  V11  1  0.58042743  0.51212459  0.68871265  1
  V  V12  1  0.49734830  0.61294959  0.27978720  1
  V  V13  1  0.59898236  0.46584839  0.06124586  1
  V  V14  1  0.44633627  0.80952205  0.71010865  1
  V  V15  1  0.26605493  0.60764000  0.90656855  1
  V  V16  1  0.91722761  -0.00094693  0.91661091  1
  V  V17  1  0.71667758  0.09413844  0.47767989  1
  V  V18  1  0.14097829  0.00791882  0.10023433  1
  V  V19  1  0.83540044  0.50645786  0.29639335  1
  V  V20  1  0.46545535  0.53318590  -0.03544329  1
  V  V21  1  0.39360726  0.05323522  0.38883474  1
  V  V22  1  0.31579900  0.72497030  0.59400527  1
  V  V23  1  0.08901944  0.66475336  0.84516332  1
  V  V24  1  0.67754868  0.91066715  0.77338970  1
  V  V25  1  0.78964093  0.86952252  0.14169781  1
  V  V26  1  0.59890956  0.04696269  0.03221763  1
  V  V27  1  0.16831003  0.14293525  0.84196130  1
  V  V28  1  0.08562950  0.90465213  0.71960561  1
  V  V29  1  0.64242581  0.87408457  0.26198805  1
  V  V30  1  0.42982170  0.14511624  0.24041931  1
  V  V31  1  0.01334841  0.71146252  0.27522414  1
  V  V32  1  0.83841182  0.74812010  0.65243456  1
  V  V33  1  0.24729803  0.29708781  0.09041248  1
  V  V34  1  0.36950770  0.28877108  -0.03534791  1
  V  V35  1  0.23888385  0.16211792  0.38057718  1
  V  V36  1  0.04775570  0.02799352  0.61426392  1
  V  V37  1  0.37601354  0.86742169  0.87992870  1
  V  V38  1  0.85609286  0.22665033  0.56867307  1
  V  V39  1  0.78881311  0.50006440  0.86390277  1
  V  V40  1  0.31493762  0.88983019  0.47964202  1
  V  V41  1  0.76752982  0.37880765  0.62575822  1
  V  V42  1  0.14294548  0.61232974  0.05234335  1
  V  V43  1  0.63110656  0.00595479  0.62741769  1
  V  V44  1  0.51529667  0.84949495  0.37370175  1
  V  V45  1  -0.00107713  0.97452745  0.35539574  1
  V  V46  1  0.11644640  0.15967430  0.49553956  1
  V  V47  1  0.41656752  0.00509697  0.02135864  1
  V  V48  1  -0.04308523  0.28370297  0.76896384  1
  V  V49  1  -0.00582766  0.41628002  0.88725046  1
  V  V50  1  0.21312358  0.03661233  0.26708467  1
  Zn  Zn51  1  0.93886232  0.40761670  0.18918791  1
  Zn  Zn52  1  0.89106292  0.44530852  0.72566803  1
  Zn  Zn53  1  0.27054572  0.30244015  0.79932507  1
  Zn  Zn54  1  0.50011318  0.90203365  0.55409932  1
  Zn  Zn55  1  0.42517821  0.22044968  0.39533606  1
  Zn  Zn56  1  0.22613536  0.40821594  0.40040246  1
  Zn  Zn57  1  0.61016161  0.09763383  0.76565306  1
  Zn  Zn58  1  -0.01187485  0.09906023  0.75565015  1
  Zn  Zn59  1  0.84079739  0.83816052  0.82057804  1
  Zn  Zn60  1  0.42645299  0.70347243  0.98521527  1
  Zn  Zn61  1  0.49583460  0.35063716  0.63616685  1
  Zn  Zn62  1  0.16587271  0.99640551  0.44973630  1
  Zn  Zn63  1  0.56640056  0.13144781  0.36419530  1
  Zn  Zn64  1  0.75581334  0.58509475  0.70249986  1
  Zn  Zn65  1  0.06091655  0.12623793  0.31451056  1
  Zn  Zn66  1  0.46246404  0.90816382  0.20100315  1
  Zn  Zn67  1  0.58937640  0.45314359  0.85737566  1
  Zn  Zn68  1  0.63763634  0.15599389  0.18509155  1
  Zn  Zn69  1  0.19172692  0.82373352  0.81480040  1
  Zn  Zn70  1  0.10602386  0.17904531  0.13511065  1
  Zn  Zn71  1  0.99650114  0.88596451  0.17328629  1
  Zn  Zn72  1  0.29453468  0.13349242  0.09838429  1
  Zn  Zn73  1  0.54665297  0.31937252  -0.00300633  1
  Zn  Zn74  1  0.00058449  0.73134804  0.07960004  1
  Zn  Zn75  1  0.28752241  0.47126114  1.03306757  1
  Zn  Zn76  1  0.13380804  0.25621493  0.67661601  1
  Zn  Zn77  1  0.50952667  0.15659501  0.92661851  1
  Zn  Zn78  1  0.01797204  0.27348136  0.52721158  1
  Zn  Zn79  1  0.86946705  0.04176612  0.55943248  1
  Zn  Zn80  1  0.72663519  0.92233021  0.97090578  1
  Zn  Zn81  1  0.68553432  0.20524908  0.63886828  1
  Zn  Zn82  1  0.78139345  0.34369009  0.80274504  1
  Zn  Zn83  1  0.90944283  0.13762576  0.42217915  1
  Zn  Zn84  1  0.67324690  0.57477122  0.19175161  1
  Zn  Zn85  1  0.92128689  0.60884230  0.91138422  1
  Zn  Zn86  1  0.65697232  0.74538430  0.68798922  1
  Zn  Zn87  1  1.02965103  0.84981649  0.42924300  1
  Zn  Zn88  1  0.72855808  0.43699821  0.44880751  1
  Zn  Zn89  1  0.34382705  0.55784415  0.60374291  1
  Zn  Zn90  1  0.22449017  0.66090562  0.23507568  1
  Zn  Zn91  1  0.12309366  0.96275830  0.90988727  1
  Zn  Zn92  1  0.30812889  0.30127119  0.27671797  1
  Zn  Zn93  1  0.28626133  0.84792445  0.28311611  1
  Zn  Zn94  1  0.78134624  0.57655631  0.04853737  1
  Zn  Zn95  1  0.65899684  0.93217769  0.44023018  1
  Zn  Zn96  1  -0.03423617  0.86993008  0.58911102  1
  Zn  Zn97  1  0.41824590  0.50977955  0.14382112  1
  Zn  Zn98  1  0.15435949  0.48894112  0.92922655  1
  Zn  Zn99  1  0.20614701  0.65973880  0.72465589  1
  Zn  Zn100  1  0.12060600  0.43620760  0.11247269  1
  Zn  Zn101  1  0.43457024  0.68891756  0.44825480  1
  O  O102  1  0.07976741  0.08204579  0.09521978  1
  O  O103  1  0.02401908  0.11327579  0.64620108  1
  O  O104  1  0.17300374  0.62187036  0.14245004  1
  O  O105  1  0.07693040  0.59986620  0.58632077  1
  O  O106  1  0.60590174  0.07179616  0.12478247  1
  O  O107  1  0.64774712  0.10059500  0.65836282  1
  O  O108  1  0.68148527  0.51588668  0.08563321  1
  O  O109  1  0.59525216  0.67442730  0.64485575  1
  O  O110  1  0.42630144  0.42758833  0.41427305  1
  O  O111  1  0.32975140  0.32142890  0.87939405  1
  O  O112  1  0.29987882  0.84347451  0.39872486  1
  O  O113  1  0.28318092  0.86718649  0.85446730  1
  O  O114  1  0.81780392  0.28502637  0.23691374  1
  O  O115  1  0.82810700  0.41407802  0.87653744  1
  O  O116  1  0.93998461  0.92142724  0.40933217  1
  O  O117  1  0.90845548  0.90888888  0.86968209  1
  O  O118  1  0.22637399  0.05120592  0.37746226  1
  O  O119  1  0.17007618  0.04504482  0.83993064  1
  O  O120  1  0.28194282  0.40842917  0.30749700  1
  O  O121  1  0.26675971  0.51062113  0.91753307  1
  O  O122  1  0.80678401  -0.01171145  0.26762070  1
  O  O123  1  0.81700934  -0.01702704  0.92546823  1
  O  O124  1  0.79529397  0.44005867  0.36379821  1
  O  O125  1  0.69455645  0.48587659  0.87084226  1
  O  O126  1  0.30933695  0.48046699  0.15452407  1
  O  O127  1  0.32733139  0.48582536  0.69914017  1
  O  O128  1  0.22116272  1.04326448  0.15616117  1
  O  O129  1  0.28330850  0.94600488  0.66086576  1
  O  O130  1  0.85164887  0.58447334  0.24363069  1
  O  O131  1  0.67065314  0.53518738  0.65896371  1
  O  O132  1  0.75821159  0.95486612  0.13265605  1
  O  O133  1  0.80683135  0.96747734  0.60479368  1
  O  O134  1  0.03216309  0.30674840  0.30397786  1
  O  O135  1  -0.02851772  0.44980791  0.79614153  1
  O  O136  1  0.04580412  0.78809637  0.20894008  1
  O  O137  1  0.01019700  0.85288234  0.69624789  1
  O  O138  1  0.57465658  0.35432945  0.24781632  1
  O  O139  1  0.45508331  0.29446483  0.73654496  1
  O  O140  1  0.47247344  0.91279791  0.31679001  1
  O  O141  1  0.43252847  0.86634463  0.79441216  1
  O  O142  1  0.52847704  0.13767792  0.25146008  1
  O  O143  1  0.51839396  0.20640454  0.56980074  1
  O  O144  1  0.59017894  0.59187087  0.25546295  1
  O  O145  1  0.47836971  0.71961222  0.72349774  1
  O  O146  1  0.89123808  0.06990471  0.16893384  1
  O  O147  1  0.93497307  0.19123879  0.76949037  1
  O  O148  1  0.99798640  0.62773824  0.31931698  1
  O  O149  1  1.02718775  0.57871516  0.62938342  1
  O  O150  1  0.41907461  0.21196085  -0.06936509  1
  O  O151  1  0.39895465  0.30150494  0.46097739  1
  O  O152  1  0.43190926  0.74545181  0.08598210  1
  O  O153  1  0.33498236  0.69995293  0.50230591  1
  O  O154  1  0.77831894  0.18062535  -0.01224202  1
  O  O155  1  0.85804636  0.22121018  0.47077368  1
  O  O156  1  0.89962490  0.75865920  -0.03701433  1
  O  O157  1  0.93837595  0.66886135  0.52927952  1
  O  O158  1  0.11444386  0.22781528  0.57011186  1
  O  O159  1  0.02454959  0.24536435  1.07064087  1
  O  O160  1  0.15537943  0.65436212  0.45883710  1
  O  O161  1  0.09025699  0.69447116  1.03803237  1
  O  O162  1  0.70468383  0.17003467  0.53230887  1
  O  O163  1  0.59120254  0.23685166  0.94322268  1
  O  O164  1  0.73308912  0.71147053  0.37040783  1
  O  O165  1  0.61820718  0.76904395  0.93637858  1
  O  O166  1  0.57723797  0.28610425  0.23342474  1
  O  O167  1  0.55623760  0.25410581  0.60781109  1
  O  O168  1  0.61154426  0.76450792  0.09027930  1
  O  O169  1  0.51003289  0.84728974  0.64931917  1
  O  O170  1  1.07924869  0.27840919  0.26084872  1
  O  O171  1  0.93276067  0.28041066  0.59346957  1
  O  O172  1  0.98147540  0.68159703  0.18348366  1
  O  O173  1  0.94652963  0.71053236  0.58510412  1
  O  O174  1  -0.12879627  0.28308683  0.28171500  1
  O  O175  1  -0.02627097  0.31641361  0.86269734  1
  O  O176  1  0.03933019  0.77324145  0.35173818  1
  O  O177  1  -0.00785580  0.66993245  0.86271508  1
  O  O178  1  0.52948037  0.22182044  0.40608761  1
  O  O179  1  0.55974894  0.16788042  0.82452593  1
  O  O180  1  0.45361421  0.78231997  0.39577806  1
  O  O181  1  0.39719075  0.79020035  0.92636335  1
  O  O182  1  0.21823894  0.15897984  0.48688700  1
  O  O183  1  0.15793252  0.14736275  0.93975876  1
  O  O184  1  0.23538799  0.55914292  0.56182334  1
  O  O185  1  0.22206744  0.64237946  0.99492586  1
  O  O186  1  0.81481563  0.07126462  0.46343724  1
  O  O187  1  0.65013628  0.10852604  0.97661511  1
  O  O188  1  0.73698729  0.59091059  0.50036837  1
  O  O189  1  0.75161967  0.67916440  1.00968323  1
  O  O190  1  0.29100747  0.36029964  0.02149504  1
  O  O191  1  0.29678638  0.38709133  0.48686160  1
  O  O192  1  0.17325077  0.81960126  0.02471471  1
  O  O193  1  0.22975822  0.94164139  0.51675848  1
  O  O194  1  0.71413699  0.30343472  -0.05090503  1
  O  O195  1  0.71487846  0.40297468  0.54685650  1
  O  O196  1  0.77180494  0.84757115  0.03547400  1
  O  O197  1  0.73661415  0.87826012  0.49762961  1
  O  O198  1  0.16279773  0.45705968  0.21344117  1
  O  O199  1  0.15900798  0.50241844  0.70057936  1
  O  O200  1  0.11635016  1.03999447  0.27126367  1
  O  O201  1  0.03986228  0.99804543  0.71818530  1
  O  O202  1  0.73893751  0.52374568  0.27740082  1
  O  O203  1  0.57102241  0.52900614  0.78308328  1
  O  O204  1  0.66453581  0.94038180  0.33040175  1
  O  O205  1  0.62449523  0.99226968  0.74689004  1
  O  O206  1  0.39056349  0.06151212  0.28558891  1
  O  O207  1  0.42373344  0.09651483  0.74725690  1
  O  O208  1  0.43638353  0.54746904  0.24437791  1
  O  O209  1  0.38598806  0.45504949  0.72329536  1
  O  O210  1  0.98857634  -0.05766247  0.26587485  1
  O  O211  1  0.92136778  0.03806671  0.82128227  1
  O  O212  1  0.93000851  0.46644018  0.29134150  1
  O  O213  1  0.81902966  0.52602733  0.76964826  1
  O  O214  1  0.13448570  0.35184644  0.42977967  1
  O  O215  1  0.09116152  0.41387917  0.88892714  1
  O  O216  1  0.08644046  0.94177277  0.39562829  1
  O  O217  1  0.10976763  0.90336259  0.81940920  1
  O  O218  1  0.62620301  0.40840016  0.39002564  1
  O  O219  1  0.57329540  0.34497484  0.83477918  1
  O  O220  1  0.55701692  0.89038533  0.45868068  1
  O  O221  1  0.67424821  0.90447203  0.87167717  1
  O  O222  1  0.39813862  0.14586583  0.15066965  1
  O  O223  1  0.33269612  0.15822718  0.62797762  1
  O  O224  1  0.61481246  0.71840166  0.14060823  1
  O  O225  1  0.37546430  0.65169695  0.63844427  1
  O  O226  1  0.85640556  0.18011891  0.12579086  1
  O  O227  1  0.86491454  0.13950599  0.60584112  1
  O  O228  1  0.91336584  0.69537798  0.00928651  1
  O  O229  1  0.81786216  0.65559314  0.64498179  1
  O  O230  1  0.20766749  0.19954349  0.10820031  1
  O  O231  1  0.22497284  0.30226642  0.70842272  1
  O  O232  1  0.32581751  0.68243612  0.18130407  1
  O  O233  1  0.23080702  0.68967068  0.62506130  1
  O  O234  1  0.67156011  0.21624766  0.09379679  1
  O  O235  1  0.77438203  0.27507187  0.61371476  1
  O  O236  1  0.82795158  0.75602357  0.11887378  1
  O  O237  1  0.74449750  0.78767604  0.63854390  1
  O  O238  1  0.26234039  0.25461620  0.36573890  1
  O  O239  1  0.17329847  0.24144224  0.84727258  1
  O  O240  1  0.22731417  0.76058748  0.27027293  1
  O  O241  1  0.13934778  0.74629218  0.86308357  1
  O  O242  1  0.76923401  0.15730462  0.29213774  1
  O  O243  1  0.71292868  0.28066249  0.87140665  1
  O  O244  1  0.76660301  0.72825668  0.42952466  1
  O  O245  1  0.77126640  0.79075036  0.89419705  1
  O  O246  1  -0.02991743  0.28905235  0.08914506  1
  O  O247  1  0.01723686  0.17846342  0.46926480  1
  O  O248  1  0.04396660  0.56544459  0.04805071  1
  O  O249  1  0.16048507  0.72046503  0.47476578  1
  O  O250  1  0.49951947  0.06326223  -0.00737984  1
  O  O251  1  0.35438359  0.10378095  0.59235234  1
  O  O252  1  0.49759835  0.62302708  -0.02515616  1
  O  O253  1  0.48854342  0.69130734  0.54544039  1
  O  O254  1  0.49622821  0.39214446  0.52729866  1
  O  O255  1  0.44413528  0.34397970  0.99948090  1
  O  O256  1  0.40067223  0.87425601  0.52150936  1
  O  O257  1  0.39774250  0.94503664  0.94177855  1
  O  O258  1  1.00989883  0.36386510  0.45936564  1
  O  O259  1  0.96382689  0.40333788  0.98810507  1
  O  O260  1  1.03563259  0.81988950  0.52727835  1
  O  O261  1  0.98731517  0.83365631  1.07953553  1
  O  O262  1  0.58575632  0.46039096  0.36589177  1
  O  O263  1  0.43585434  0.51369330  0.87919159  1
  O  O264  1  0.48567166  1.06279820  0.41114075  1
  O  O265  1  0.38933710  1.03686866  0.74780027  1
  O  O266  1  1.06971017  0.39418273  0.42619639  1
  O  O267  1  0.97895938  0.51732746  0.92806724  1
  O  O268  1  0.97506648  1.07326326  0.36144808  1
  O  O269  1  1.01784256  0.99601467  0.91192918  1
  O  O270  1  0.09306010  -0.06286730  0.14151953  1
  O  O271  1  -0.03337238  -0.01390378  0.57475148  1
  O  O272  1  0.01053755  0.45080524  0.12291129  1
  O  O273  1  0.08255556  0.44327724  0.60461186  1
  O  O274  1  0.43846956  -0.03822998  0.10397332  1
  O  O275  1  0.53988837  -0.00623494  0.60671533  1
  O  O276  1  0.52799894  0.48900174  0.12162199  1
  O  O277  1  0.50157201  0.56095658  0.63930650  1
  O  O278  1  0.29627069  0.31371699  0.17231016  1
  O  O279  1  0.17590145  0.45194858  0.74356915  1
  O  O280  1  0.24937719  0.94844232  0.27143709  1
  O  O281  1  0.17370320  0.84498019  0.69789961  1
  O  O282  1  0.83570405  0.43893734  0.21645850  1
  O  O283  1  0.72473493  0.38607076  0.71286600  1
  O  O284  1  0.72326020  0.83581121  0.21779020  1
  O  O285  1  0.77237169  0.90812490  0.75932150  1
  O  O286  1  0.24682392  0.13639421  0.27842259  1
  O  O287  1  0.16637239  0.15544471  0.73960550  1
  O  O288  1  0.24849409  0.56459169  0.28183270  1
  O  O289  1  0.26257883  0.63442900  0.81062871  1
  O  O290  1  0.73847020  0.11851277  0.23468912  1
  O  O291  1  0.78346937  0.15014919  0.81590137  1
  O  O292  1  0.85726092  0.55486885  0.37734782  1
  O  O293  1  0.71699768  0.67956470  0.76371246  1
  O  O294  1  0.35028026  0.13985934  0.41510429  1
  O  O295  1  0.26723892  0.13621537  0.83908370  1
  O  O296  1  0.48089794  0.62244616  0.37623355  1
  O  O297  1  0.35230376  0.63881272  0.93304679  1
  O  O298  1  0.84010846  0.14371153  0.30488315  1
  O  O299  1  0.90393573  0.09025726  0.94443622  1
  O  O300  1  1.04454425  0.53096692  0.47420383  1
  O  O301  1  0.81952624  0.56820135  0.93090168  1
  O  O302  1  0.15860511  0.33633517  0.09338740  1
  O  O303  1  0.11360231  0.38276009  0.59639208  1
  O  O304  1  0.23166024  0.82094998  0.06145769  1
  O  O305  1  0.12515315  0.95059166  0.62647082  1
  O  O306  1  0.61544567  0.37247847  0.06404354  1
  O  O307  1  0.56433505  0.41871219  0.67561277  1
  O  O308  1  0.57609207  0.90040055  0.19805477  1
  O  O309  1  0.67344964  0.91491861  0.63926558  1
  O  O310  1  0.05395490  0.19851434  0.23189201  1
  O  O311  1  0.03925250  0.29366936  0.71684899  1
  O  O312  1  0.10863780  0.68048494  0.27500140  1
  O  O313  1  0.10138743  0.64978427  0.74851608  1
  O  O314  1  0.64208478  0.24905187  0.25485985  1
  O  O315  1  0.65575212  0.24428559  0.74263378  1
  O  O316  1  0.59240557  0.80728420  0.32056870  1
  O  O317  1  0.63807629  0.81524142  0.77001235  1
  O  O318  1  0.40071557  0.22938498  0.28539611  1
  O  O319  1  0.39415631  0.25860472  0.73113047  1
  O  O320  1  0.47527619  0.69988674  0.23361724  1
  O  O321  1  0.36255924  0.79415388  0.66247066  1
  O  O322  1  0.90847960  0.13625108  0.14817263  1
  O  O323  1  0.87321025  0.33057396  0.74084714  1
  O  O324  1  0.92401187  0.74493169  0.30276406  1
  O  O325  1  0.86812126  0.76986902  0.74071434  1
  O  O326  1  0.37972025  0.47985673  0.54108890  1
  O  O327  1  0.39382514  0.51341079  1.03444243  1
  O  O328  1  0.35267711  0.97900853  0.43539904  1
  O  O329  1  0.33943175  1.05732944  1.03149081  1
  O  O330  1  0.98267347  0.51011926  0.49802655  1
  O  O331  1  0.88441612  0.52681056  1.06373491  1
  O  O332  1  0.82412465  0.98432634  0.33400659  1
  O  O333  1  0.93160291  0.96799264  1.00876740  1
  O  O334  1  0.16219286  -0.02102879  0.00677364  1
  O  O335  1  0.10638257  0.06361086  0.52749799  1
  O  O336  1  0.17438645  0.50292369  0.03981508  1
  O  O337  1  0.20045361  0.50484099  0.52246101  1
  O  O338  1  0.63666891  -0.03756207  0.01696874  1
  O  O339  1  0.66825479  0.01700357  0.52544200  1
  O  O340  1  0.55821530  0.47851339  -0.03431884  1
  O  O341  1  0.69038438  0.55241454  0.46346008  1
  O  O342  1  0.31203724  0.22992791  0.02759299  1
  O  O343  1  0.39314709  0.34702629  0.59618652  1
  O  O344  1  0.37930901  0.83129694  0.21382595  1
  O  O345  1  0.26666729  0.82199502  0.56108956  1
  O  O346  1  0.95909818  0.30228015  0.16515015  1
  O  O347  1  0.84742459  0.43389729  0.62533472  1
  O  O348  1  0.87941814  0.88329786  0.17409555  1
  O  O349  1  0.86249678  0.83105202  0.58802300  1
  O  O350  1  0.13208846  0.17147425  0.38682299  1
  O  O351  1  0.06772049  0.13448583  0.82926386  1
  O  O352  1  0.20385822  0.51110174  0.44622480  1
  O  O353  1  0.13455697  0.59138917  0.89237071  1
  O  O354  1  0.66772097  0.10282615  0.39507231  1
  O  O355  1  0.73915036  0.09634312  0.81003756  1
  O  O356  1  0.75688717  0.62445519  0.14864984  1
  O  O357  1  0.67647537  0.67760761  0.83287004  1
