# generated using pymatgen
data_V51Zn51O256
_symmetry_space_group_name_H-M   'P 1'
_cell_length_a   17.53612696
_cell_length_b   17.78547997
_cell_length_c   17.71830790
_cell_angle_alpha   90.35144694
_cell_angle_beta   91.02987229
_cell_angle_gamma   90.35059968
_symmetry_Int_Tables_number   1
_chemical_formula_structural   V51Zn51O256
_chemical_formula_sum   'V51 Zn51 O256'
_cell_volume   5525.03144835
_cell_formula_units_Z   1
loop_
 _symmetry_equiv_pos_site_id
 _symmetry_equiv_pos_as_xyz
  1  'x, y, z'
loop_
 _atom_site_type_symbol
 _atom_site_label
 _atom_site_symmetry_multiplicity
 _atom_site_fract_x
 _atom_site_fract_y
 _atom_site_fract_z
 _atom_site_occupancy
  V  V0  1  0.88125816  0.87611808  -0.00316218  1
  V  V1  1  0.39523091  0.80529573  0.50227159  1
  V  V2  1  0.46801405  0.16218207  0.12726019  1
  V  V3  1  0.03167545  0.91999054  0.36189189  1
  V  V4  1  0.84782226  0.62764244  0.22672677  1
  V  V5  1  0.88841882  0.34410534  0.53330040  1
  V  V6  1  0.24030556  0.72506617  0.50683376  1
  V  V7  1  0.59952930  0.48736864  0.14131130  1
  V  V8  1  0.36126129  0.60198914  0.70887282  1
  V  V9  1  -0.00731523  0.62440125  0.64613959  1
  V  V10  1  0.33735262  0.38937709  0.00411622  1
  V  V11  1  0.62990529  0.58046092  0.51472656  1
  V  V12  1  0.11480672  0.48691727  0.63639956  1
  V  V13  1  0.37290082  0.00780892  0.33173304  1
  V  V14  1  0.48597301  0.50132220  -0.00442100  1
  V  V15  1  0.52333676  -0.04550717  0.51603928  1
  V  V16  1  0.09841972  0.72356219  0.38290423  1
  V  V17  1  0.49931405  0.62799694  0.11692065  1
  V  V18  1  0.18068295  0.13057813  -0.02644055  1
  V  V19  1  0.88371669  0.18948064  0.62296808  1
  V  V20  1  0.35535998  0.53936863  0.88123326  1
  V  V21  1  0.80502969  -0.03961177  0.75905772  1
  V  V22  1  0.22970075  0.72553781  0.04389757  1
  V  V23  1  0.71387164  0.10814333  0.31887547  1
  V  V24  1  0.31962365  -0.04416399  0.73274824  1
  V  V25  1  0.50343047  0.33874210  0.40651898  1
  V  V26  1  0.76880466  0.42798792  0.12698575  1
  V  V27  1  0.33455547  0.27890575  0.13690635  1
  V  V28  1  0.91485479  0.12382314  0.79336267  1
  V  V29  1  0.09845392  0.35563774  0.18958659  1
  V  V30  1  0.49796107  0.71490784  0.74321095  1
  V  V31  1  0.70124651  0.14163381  0.56574292  1
  V  V32  1  0.11542850  0.89172543  0.73268115  1
  V  V33  1  0.89887392  0.88422498  0.47657695  1
  V  V34  1  0.33214139  0.17928814  0.27414774  1
  V  V35  1  0.78055367  0.26219003  0.02712432  1
  V  V36  1  -0.02722541  0.11003679  0.10455569  1
  V  V37  1  0.63389232  0.24637710  0.40607048  1
  V  V38  1  0.05123239  -0.01107375  -0.04925592  1
  V  V39  1  -0.03069597  0.25940613  0.22215637  1
  V  V40  1  0.16459757  0.01273593  0.13268130  1
  V  V41  1  0.75541779  0.61612042  0.88441864  1
  V  V42  1  0.50417046  0.55894157  0.61982458  1
  V  V43  1  0.76760290  0.39478880  0.64620005  1
  V  V44  1  0.13306399  0.76814598  0.86139394  1
  V  V45  1  0.66210091  0.35842489  0.77157613  1
  V  V46  1  0.37914640  0.62324602  0.25051045  1
  V  V47  1  0.31649739  0.51788256  0.36701718  1
  V  V48  1  0.71205769  0.13986740  0.90437452  1
  V  V49  1  0.84333941  0.44872333  0.40403926  1
  V  V50  1  0.12287358  0.24625564  0.84322561  1
  Zn  Zn51  1  0.83406032  0.00337377  0.57477715  1
  Zn  Zn52  1  0.26754499  0.36213684  0.28635555  1
  Zn  Zn53  1  0.94422978  0.86804145  0.66830829  1
  Zn  Zn54  1  0.10603092  0.83906552  0.03852195  1
  Zn  Zn55  1  0.76790663  0.96147818  0.93805638  1
  Zn  Zn56  1  0.18850308  0.59050534  0.78951359  1
  Zn  Zn57  1  0.97624866  0.51422923  0.52505967  1
  Zn  Zn58  1  0.93267486  0.69483594  0.48519619  1
  Zn  Zn59  1  1.00251553  0.91315941  0.15995658  1
  Zn  Zn60  1  0.44974029  0.43475906  0.73481347  1
  Zn  Zn61  1  0.95471291  0.68737971  0.89908411  1
  Zn  Zn62  1  0.55215376  0.57669786  0.85478466  1
  Zn  Zn63  1  0.09165337  0.06703987  0.79661199  1
  Zn  Zn64  1  0.68184373  0.52966846  0.70229151  1
  Zn  Zn65  1  0.36962707  0.18643952  0.97482566  1
  Zn  Zn66  1  0.63447976  0.01113374  0.83247816  1
  Zn  Zn67  1  0.80980827  0.79004066  0.81005222  1
  Zn  Zn68  1  0.22066548  0.43127492  0.89269285  1
  Zn  Zn69  1  0.71527411  0.61644246  0.08856109  1
  Zn  Zn70  1  0.20746812  0.96510687  0.86638104  1
  Zn  Zn71  1  0.92681267  0.45573026  0.22023415  1
  Zn  Zn72  1  0.41751618  0.63429135  0.46026431  1
  Zn  Zn73  1  0.03642483  0.06630927  0.25462694  1
  Zn  Zn74  1  0.50582874  0.34843257  0.09039963  1
  Zn  Zn75  1  -0.01149327  0.60146296  0.32399168  1
  Zn  Zn76  1  0.82099557  0.54992190  0.56145913  1
  Zn  Zn77  1  0.23831373  0.88808822  0.40065737  1
  Zn  Zn78  1  0.52309013  0.74994946  0.22655825  1
  Zn  Zn79  1  0.17363211  0.32340008  0.03814990  1
  Zn  Zn80  1  0.13249872  0.73674395  0.65728850  1
  Zn  Zn81  1  0.71280003  0.49028154  0.28499277  1
  Zn  Zn82  1  0.33131828  0.61312139  0.04153216  1
  Zn  Zn83  1  0.97120379  0.22678783  0.96070322  1
  Zn  Zn84  1  0.71262822  0.98737396  0.44739600  1
  Zn  Zn85  1  0.91848044  0.80708952  0.29804909  1
  Zn  Zn86  1  0.38509933  0.48338713  0.16032919  1
  Zn  Zn87  1  0.28402591  0.54384193  0.55058348  1
  Zn  Zn88  1  0.82481119  0.25806985  0.36561632  1
  Zn  Zn89  1  0.34981536  1.03547008  0.16143778  1
  Zn  Zn90  1  0.50919858  0.14464203  0.32106732  1
  Zn  Zn91  1  0.31937682  0.77853980  0.66779177  1
  Zn  Zn92  1  0.47374082  0.88365259  0.66219042  1
  Zn  Zn93  1  0.35239463  0.31275625  0.83145952  1
  Zn  Zn94  1  0.21590921  0.75047758  0.23629449  1
  Zn  Zn95  1  0.36412499  -0.00582997  0.50524898  1
  Zn  Zn96  1  0.88641495  0.07192198  -0.03227332  1
  Zn  Zn97  1  0.14342159  0.55562422  0.44892461  1
  Zn  Zn98  1  0.17444855  0.19030379  0.16263752  1
  Zn  Zn99  1  0.05975792  0.29171999  0.65100140  1
  Zn  Zn100  1  0.73640669  0.22014513  0.73568511  1
  Zn  Zn101  1  0.08061530  0.84864249  0.53722237  1
  O  O102  1  0.15897006  0.10538139  0.07982484  1
  O  O103  1  0.17515866  0.18673916  0.62148381  1
  O  O104  1  0.06047829  0.70545956  0.11348983  1
  O  O105  1  0.09044156  0.64208909  0.63379986  1
  O  O106  1  0.55878790  0.17053073  0.14775730  1
  O  O107  1  0.52313669  0.07408895  0.73598596  1
  O  O108  1  0.60039941  0.60220355  0.11907406  1
  O  O109  1  0.60882957  0.56764863  0.62256785  1
  O  O110  1  0.31795713  0.42081070  0.36180424  1
  O  O111  1  0.34244715  0.39767991  0.89962952  1
  O  O112  1  0.39168342  0.93404846  0.27877676  1
  O  O113  1  0.44962389  0.80401163  0.80401682  1
  O  O114  1  0.84658484  0.34504613  0.43188098  1
  O  O115  1  0.93260487  0.41941695  0.94279173  1
  O  O116  1  0.92067569  0.89045742  0.37424406  1
  O  O117  1  0.88538055  0.81752408  0.89733222  1
  O  O118  1  0.31001263  -0.02236400  0.40938484  1
  O  O119  1  0.30307193  -0.00824058  0.82214775  1
  O  O120  1  0.22286424  0.53918636  0.37049487  1
  O  O121  1  0.25313907  0.52694746  0.85994888  1
  O  O122  1  0.71647881  0.01352173  0.34377977  1
  O  O123  1  0.72956463  -0.04488522  0.82931139  1
  O  O124  1  0.75003236  0.46013560  0.38222557  1
  O  O125  1  0.79004500  0.52819172  0.90619447  1
  O  O126  1  0.02330358  0.66622342  0.15937625  1
  O  O127  1  0.20805390  0.49001380  0.60014309  1
  O  O128  1  0.25863338  0.98962267  0.12738787  1
  O  O129  1  0.28559786  0.97880760  0.58415298  1
  O  O130  1  0.70440225  0.50442905  0.10497661  1
  O  O131  1  0.78168846  0.49746931  0.64920562  1
  O  O132  1  0.69374279  0.89445864  0.14690345  1
  O  O133  1  0.77240641  0.98248950  0.67360389  1
  O  O134  1  0.00638994  0.37645926  0.22497363  1
  O  O135  1  -0.12103593  0.43410877  0.79498866  1
  O  O136  1  0.00818564  0.87777310  0.26670635  1
  O  O137  1  0.01993992  0.90010105  0.74210830  1
  O  O138  1  0.48147223  0.39035011  0.30993878  1
  O  O139  1  0.56077869  0.42829557  0.78429227  1
  O  O140  1  0.54857629  0.90545832  0.25619294  1
  O  O141  1  0.50917784  0.82616773  0.76053075  1
  O  O142  1  0.43359127  0.17149759  0.24107373  1
  O  O143  1  0.45229644  0.17976152  0.82860583  1
  O  O144  1  0.47872398  0.64926117  0.23406639  1
  O  O145  1  0.48254846  0.60708418  0.70476106  1
  O  O146  1  0.98063468  0.15430983  0.20567924  1
  O  O147  1  1.00208191  0.11722394  0.75615390  1
  O  O148  1  0.93526953  0.56747212  0.23504246  1
  O  O149  1  0.96742237  0.64598081  0.73283662  1
  O  O150  1  0.33728979  0.29129519  0.01326243  1
  O  O151  1  0.26955640  0.35076027  0.51579850  1
  O  O152  1  0.32535900  0.72873159  0.02717427  1
  O  O153  1  0.33808291  0.70183994  0.51780571  1
  O  O154  1  0.86871624  0.26004224  -0.00852835  1
  O  O155  1  0.85950592  0.24369767  0.54003852  1
  O  O156  1  0.89705548  0.77256177  -0.03607572  1
  O  O157  1  0.87687516  0.79162086  0.48311469  1
  O  O158  1  0.13933822  0.24205261  0.58099782  1
  O  O159  1  0.16314500  0.22459689  0.98681337  1
  O  O160  1  0.13518259  0.76856045  0.47698443  1
  O  O161  1  0.16740408  0.77384945  0.97234838  1
  O  O162  1  0.62515762  0.11594111  0.60946821  1
  O  O163  1  0.74064224  0.17925849  1.08269890  1
  O  O164  1  0.61595180  0.69626942  0.47529358  1
  O  O165  1  0.64026252  0.77639536  1.02302247  1
  O  O166  1  0.44134802  0.27788973  0.13266384  1
  O  O167  1  0.40637400  0.21586469  0.59771139  1
  O  O168  1  0.50502642  0.72204907  0.11190955  1
  O  O169  1  0.56305203  0.72607197  0.67798740  1
  O  O170  1  1.01065545  0.18674919  0.05675206  1
  O  O171  1  0.97268918  0.22613061  0.63810717  1
  O  O172  1  1.02730298  0.77445292  0.09283543  1
  O  O173  1  1.01848388  0.78747262  0.61859093  1
  O  O174  1  -0.08085728  0.26204179  0.30330519  1
  O  O175  1  0.04397000  0.27186623  0.89405100  1
  O  O176  1  0.00161648  0.74143070  0.39627114  1
  O  O177  1  0.03852606  0.74955672  0.87225532  1
  O  O178  1  0.52826580  0.24810740  0.36487267  1
  O  O179  1  0.48486215  0.22516684  0.78749848  1
  O  O180  1  0.64633315  0.76684171  0.30735249  1
  O  O181  1  0.53698792  0.67842342  0.82457974  1
  O  O182  1  0.23538248  0.16062762  0.59331920  1
  O  O183  1  0.27534345  0.12444853  0.96847081  1
  O  O184  1  0.21078402  0.63200867  0.50390017  1
  O  O185  1  0.21683356  0.63060591  1.04927311  1
  O  O186  1  0.74504803  0.06059564  0.52888728  1
  O  O187  1  0.76891820  0.07154519  0.95147076  1
  O  O188  1  0.72657870  0.59323876  0.52535556  1
  O  O189  1  0.75209043  0.64055666  0.98215710  1
  O  O190  1  0.23477327  0.40552145  -0.00082069  1
  O  O191  1  0.14745908  0.29697343  0.42663721  1
  O  O192  1  0.34241931  0.87146027  -0.06441155  1
  O  O193  1  0.29580764  0.82904804  0.47961303  1
  O  O194  1  0.75828688  0.35496482  0.05430286  1
  O  O195  1  0.73936007  0.36400590  0.56297444  1
  O  O196  1  0.78243801  0.87734169  0.00675997  1
  O  O197  1  0.81454476  0.93905476  0.47279201  1
  O  O198  1  0.08257586  0.44280904  0.36602315  1
  O  O199  1  0.13186880  0.52037711  0.72836923  1
  O  O200  1  0.14589350  1.04237389  0.22138079  1
  O  O201  1  0.15294389  0.98537722  0.75975111  1
  O  O202  1  0.61314876  0.49448896  0.23569891  1
  O  O203  1  0.59256733  0.50091179  0.78380363  1
  O  O204  1  0.56020010  0.97173788  0.23551968  1
  O  O205  1  0.57365793  1.02423358  0.73306703  1
  O  O206  1  0.32391458  0.06886965  0.26598382  1
  O  O207  1  0.41579600  -0.04658556  0.72029458  1
  O  O208  1  0.34500892  0.52394314  0.25611131  1
  O  O209  1  0.38104678  0.52250376  0.77412908  1
  O  O210  1  0.70226936  -0.04165520  0.17122888  1
  O  O211  1  0.87073087  0.03129617  0.78611065  1
  O  O212  1  0.89805603  0.44191412  0.32660735  1
  O  O213  1  0.91671477  0.48828417  0.77500196  1
  O  O214  1  0.04798145  0.38960340  0.39376303  1
  O  O215  1  0.17883463  0.34217371  0.83772972  1
  O  O216  1  0.12856963  0.89932689  0.37446377  1
  O  O217  1  0.15529703  0.86959934  0.85421177  1
  O  O218  1  0.59517362  0.33243239  0.45238345  1
  O  O219  1  0.69208320  0.38654173  0.85512925  1
  O  O220  1  0.77120213  0.87517573  0.28980492  1
  O  O221  1  0.57291657  0.87569935  0.92013757  1
  O  O222  1  0.33508416  0.18142596  0.13082961  1
  O  O223  1  0.39051495  0.17293590  0.64875984  1
  O  O224  1  0.38916355  0.59676920  0.13813670  1
  O  O225  1  0.37290629  0.57077313  0.61700298  1
  O  O226  1  0.88058546  0.10256414  0.07737036  1
  O  O227  1  0.89469546  0.09809302  0.59979497  1
  O  O228  1  0.81241475  0.64312786  0.13703271  1
  O  O229  1  0.91487906  0.61165785  0.56380439  1
  O  O230  1  0.22978067  0.28249745  0.12492219  1
  O  O231  1  0.28755130  0.28484962  0.51979487  1
  O  O232  1  0.20456240  0.76914858  0.12983227  1
  O  O233  1  0.22819829  0.75302498  0.60359440  1
  O  O234  1  0.78517176  0.22444419  0.12760604  1
  O  O235  1  0.76434459  0.18386252  0.63557679  1
  O  O236  1  0.67732374  0.75177648  0.07762179  1
  O  O237  1  0.78191760  0.68834819  0.66776350  1
  O  O238  1  0.19507218  0.27810555  0.38002847  1
  O  O239  1  0.23082413  0.27831365  0.84320374  1
  O  O240  1  0.22762839  0.72349965  0.38625246  1
  O  O241  1  0.40791197  0.89158028  0.92360969  1
  O  O242  1  0.67247922  0.20437368  0.48929383  1
  O  O243  1  0.71698614  0.23063977  0.95001299  1
  O  O244  1  0.77257932  0.83195485  0.34720524  1
  O  O245  1  0.74587916  0.71716321  0.85606985  1
  O  O246  1  0.00370510  0.05097324  0.01045656  1
  O  O247  1  0.03438704  0.14782857  0.49530901  1
  O  O248  1  0.00799643  0.61210880  -0.03866340  1
  O  O249  1  -0.02867038  0.72542033  0.59478693  1
  O  O250  1  0.46213327  0.17322580  0.02690476  1
  O  O251  1  0.46424540  0.03053097  0.53498263  1
  O  O252  1  0.47612052  0.60506346  0.02094218  1
  O  O253  1  0.50214114  0.59622034  0.52700156  1
  O  O254  1  0.43297534  0.33120453  0.46421415  1
  O  O255  1  0.45163816  0.40360789  1.00871114  1
  O  O256  1  0.44960940  0.74574589  0.45123189  1
  O  O257  1  0.56495540  0.95407690  1.07355495  1
  O  O258  1  0.98151030  0.33996243  0.52779470  1
  O  O259  1  0.96751651  0.41581647  1.00309713  1
  O  O260  1  1.01265707  0.90385871  0.47046845  1
  O  O261  1  1.03637646  0.89566815  0.97072199  1
  O  O262  1  0.49927562  0.44019046  0.36577675  1
  O  O263  1  0.46893944  0.51653897  0.89514770  1
  O  O264  1  0.45459617  1.05496423  0.36036130  1
  O  O265  1  0.55414761  0.93676154  0.89007912  1
  O  O266  1  0.93450481  0.58370537  0.42048200  1
  O  O267  1  1.04071479  0.46101253  0.86360941  1
  O  O268  1  1.02697895  1.01498508  0.34775879  1
  O  O269  1  1.02217225  1.00675320  0.86211091  1
  O  O270  1  0.00250299  0.02451034  0.15532613  1
  O  O271  1  0.14321699  0.04678389  0.51399746  1
  O  O272  1  -0.00462026  0.54199223  0.06562156  1
  O  O273  1  0.00561140  0.52220013  0.64146448  1
  O  O274  1  0.44515343  0.06294525  0.13119042  1
  O  O275  1  0.55381390  -0.08516817  0.59942596  1
  O  O276  1  0.49576325  0.49986812  0.12440871  1
  O  O277  1  0.48556084  0.46689480  0.63464538  1
  O  O278  1  0.17237968  0.39204176  0.24392471  1
  O  O279  1  0.26688417  0.29950116  0.66866638  1
  O  O280  1  0.25371534  0.78515539  0.34299463  1
  O  O281  1  0.28323547  0.86659833  0.72240744  1
  O  O282  1  0.74972900  0.40347862  0.21597068  1
  O  O283  1  0.76206720  0.32971334  0.72894162  1
  O  O284  1  0.82647758  0.86714968  0.24015866  1
  O  O285  1  0.85225721  0.87244375  0.75112490  1
  O  O286  1  0.23291615  0.18217640  0.25458019  1
  O  O287  1  0.28555735  0.01834476  0.65039396  1
  O  O288  1  0.31082069  0.68794946  0.23570808  1
  O  O289  1  0.26674582  0.61651218  0.71409301  1
  O  O290  1  0.71442491  0.10940412  0.22637383  1
  O  O291  1  0.74575676  0.14512784  0.81530658  1
  O  O292  1  0.77509812  0.58188564  0.27004165  1
  O  O293  1  0.73515793  0.58727253  0.78871611  1
  O  O294  1  0.34149537  0.19058188  0.36514578  1
  O  O295  1  0.37708258  0.21125024  0.86577813  1
  O  O296  1  0.38273398  0.61497868  0.35222702  1
  O  O297  1  0.36180937  0.63024972  0.88269729  1
  O  O298  1  0.79164806  0.15686636  0.35955365  1
  O  O299  1  0.92023387  0.14706742  0.89080694  1
  O  O300  1  0.85679674  0.56036471  0.41113668  1
  O  O301  1  0.85505133  0.64276047  0.87108883  1
  O  O302  1  0.09848481  0.37778817  0.09625192  1
  O  O303  1  0.09551248  0.39293042  0.64704469  1
  O  O304  1  0.11335319  0.92813487  0.11010069  1
  O  O305  1  0.12639323  0.88735702  0.63540712  1
  O  O306  1  0.60022270  0.39196079  0.11947465  1
  O  O307  1  0.66789828  0.42040865  0.68735374  1
  O  O308  1  0.52072647  0.85726256  0.19866141  1
  O  O309  1  0.69248922  0.82261956  0.66969950  1
  O  O310  1  0.08584325  0.25674574  0.20183988  1
  O  O311  1  0.09752767  0.24390968  0.75195338  1
  O  O312  1  0.11588426  0.74659305  0.29138042  1
  O  O313  1  0.13057474  0.78872650  0.75105026  1
  O  O314  1  0.70407376  0.28509071  0.35702538  1
  O  O315  1  0.63405115  0.26497143  0.76764433  1
  O  O316  1  0.64751912  0.74093551  0.23659628  1
  O  O317  1  0.69089421  0.81814151  0.73949669  1
  O  O318  1  0.33455385  0.29090548  0.23909588  1
  O  O319  1  0.39347255  0.34279839  0.73797405  1
  O  O320  1  0.57576022  0.77687093  0.33245983  1
  O  O321  1  0.38688004  0.70343392  0.71786390  1
  O  O322  1  0.91235226  0.28147876  0.15278292  1
  O  O323  1  0.86915291  0.18898494  0.73529282  1
  O  O324  1  0.88249306  0.70807816  0.27398623  1
  O  O325  1  0.83238495  0.72480741  0.70314283  1
  O  O326  1  0.34798435  0.53502933  0.46259579  1
  O  O327  1  0.35483800  0.51591660  0.98670808  1
  O  O328  1  0.44557693  0.89222415  0.47723206  1
  O  O329  1  0.46661680  0.85384850  1.04031971  1
  O  O330  1  0.88010507  0.45786639  0.50766540  1
  O  O331  1  0.96267787  0.58660122  1.02057529  1
  O  O332  1  1.08237505  1.05404306  0.54543227  1
  O  O333  1  0.88661800  0.96304102  0.94686936  1
  O  O334  1  0.15344161  0.02057008  -0.04816677  1
  O  O335  1  0.14634832  0.13617981  0.43808692  1
  O  O336  1  0.08809956  0.46881233  -0.08437086  1
  O  O337  1  0.08397073  0.50826294  0.52324441  1
  O  O338  1  0.60306868  -0.00057872  0.03855926  1
  O  O339  1  0.60309963  -0.02926680  0.46494415  1
  O  O340  1  0.57924388  0.49318760  -0.00144557  1
  O  O341  1  0.61575262  0.50099580  0.47143772  1
  O  O342  1  0.34290316  0.39666746  0.11138105  1
  O  O343  1  0.30276473  0.35818270  0.67686830  1
  O  O344  1  0.41218565  0.86511099  0.08065935  1
  O  O345  1  0.40779209  0.81276310  0.60303281  1
  O  O346  1  0.86024576  0.45977708  0.12945067  1
  O  O347  1  0.87177384  0.36920961  0.63031590  1
  O  O348  1  0.92386329  0.88361735  0.08435657  1
  O  O349  1  0.90993672  0.91731989  0.57939171  1
  O  O350  1  0.07260296  0.14643751  0.43310915  1
  O  O351  1  0.14118807  0.14422170  0.86823720  1
  O  O352  1  0.08537688  0.62264353  0.37743078  1
  O  O353  1  0.17788248  0.68422646  0.84534248  1
  O  O354  1  0.62207059  0.15033059  0.35308170  1
  O  O355  1  0.62304146  0.09851789  0.89470868  1
  O  O356  1  0.61508978  0.64676077  0.42111052  1
  O  O357  1  0.65605307  0.60199014  0.89520565  1
