# generated using pymatgen
data_V51Zn51O256
_symmetry_space_group_name_H-M   'P 1'
_cell_length_a   17.31202545
_cell_length_b   17.27413067
_cell_length_c   17.37971030
_cell_angle_alpha   90.54352568
_cell_angle_beta   90.82916046
_cell_angle_gamma   89.33458857
_symmetry_Int_Tables_number   1
_chemical_formula_structural   V51Zn51O256
_chemical_formula_sum   'V51 Zn51 O256'
_cell_volume   5196.28529200
_cell_formula_units_Z   1
loop_
 _symmetry_equiv_pos_site_id
 _symmetry_equiv_pos_as_xyz
  1  'x, y, z'
loop_
 _atom_site_type_symbol
 _atom_site_label
 _atom_site_symmetry_multiplicity
 _atom_site_fract_x
 _atom_site_fract_y
 _atom_site_fract_z
 _atom_site_occupancy
  V  V0  1  0.37368571  0.61796710  0.25343144  1
  V  V1  1  0.73498197  0.38032104  0.14450046  1
  V  V2  1  0.23938991  0.24325229  -0.00181517  1
  V  V3  1  0.29266641  0.85222464  0.13614541  1
  V  V4  1  0.45269677  0.28757152  0.21572658  1
  V  V5  1  0.25006638  0.80318991  0.62502242  1
  V  V6  1  0.50996972  0.62658425  0.61517594  1
  V  V7  1  0.38480773  0.87393433  -0.01005204  1
  V  V8  1  0.92232588  0.59992753  0.71975777  1
  V  V9  1  0.09996918  0.34506843  0.75798235  1
  V  V10  1  0.65703504  0.35541815  0.76871064  1
  V  V11  1  0.38931137  0.62722704  0.75783455  1
  V  V12  1  0.89812171  0.12146741  0.69064386  1
  V  V13  1  0.61400190  0.03603900  0.63275896  1
  V  V14  1  0.71316163  0.27854336  0.00037027  1
  V  V15  1  0.86745504  0.46878608  0.37448232  1
  V  V16  1  0.93988277  0.37845853  -0.00552376  1
  V  V17  1  0.00603450  0.23844312  0.25527886  1
  V  V18  1  0.14697567  0.88023974  0.73694527  1
  V  V19  1  0.62888294  0.24809343  0.42263412  1
  V  V20  1  0.65029077  0.09705419  0.01164588  1
  V  V21  1  0.06917585  0.04539243  -0.05215130  1
  V  V22  1  0.26057121  0.57875702  0.89083239  1
  V  V23  1  0.46248258  0.27309403  0.76630638  1
  V  V24  1  0.48949819  0.83768294  0.37082286  1
  V  V25  1  0.21167794  0.24627771  0.47960082  1
  V  V26  1  0.45733431  0.38263605  0.89566289  1
  V  V27  1  0.33889658  0.50335315  0.42094407  1
  V  V28  1  0.74247113  0.56251973  0.78111434  1
  V  V29  1  0.11362262  0.38608367  0.21479706  1
  V  V30  1  0.16080107  0.73687712  0.85806704  1
  V  V31  1  0.73326370  0.88130604  0.20728573  1
  V  V32  1  0.04165344  0.86485355  0.89756437  1
  V  V33  1  0.38405174  0.82713461  0.52225384  1
  V  V34  1  0.01971613  0.37107468  0.37603600  1
  V  V35  1  0.21556170  0.62981766  0.37409903  1
  V  V36  1  0.13856551  0.64660807  0.02286005  1
  V  V37  1  0.47505948  0.02957496  -0.01278492  1
  V  V38  1  0.63737272  0.50096301  0.63118292  1
  V  V39  1  0.88017202  0.54284133  0.89893312  1
  V  V40  1  0.27596529  0.13382418  0.35315717  1
  V  V41  1  0.01207126  0.49627962  0.50198635  1
  V  V42  1  -0.00109772  0.10028698  0.12632990  1
  V  V43  1  0.13331662  0.08159257  0.47560878  1
  V  V44  1  0.24466891  0.49176869  0.22447300  1
  V  V45  1  0.72445741  0.75586506  0.06556308  1
  V  V46  1  0.01053576  0.53955037  0.03198486  1
  V  V47  1  0.73175076  0.61764228  0.38577717  1
  V  V48  1  0.61125281  0.01395143  0.18030251  1
  V  V49  1  0.86997825  0.61904538  0.26977002  1
  V  V50  1  0.17311502  0.87865590  0.25388800  1
  Zn  Zn51  1  0.55176537  0.82049824  0.62703043  1
  Zn  Zn52  1  0.36108794  0.70711102  0.92117486  1
  Zn  Zn53  1  0.50681388  0.13706954  0.14213010  1
  Zn  Zn54  1  0.31436783  0.80372445  0.33077317  1
  Zn  Zn55  1  0.58443576  0.30964483  0.61938099  1
  Zn  Zn56  1  0.20188268  0.70214275  0.21214120  1
  Zn  Zn57  1  0.30705909  0.58154379  0.07856920  1
  Zn  Zn58  1  0.77838136  0.78471358  0.34802748  1
  Zn  Zn59  1  0.55651974  0.35294015  0.07944068  1
  Zn  Zn60  1  0.78230330  0.05055371  0.52989386  1
  Zn  Zn61  1  1.02011918  0.76002212  0.75504347  1
  Zn  Zn62  1  0.45658900  0.23807719  0.99626850  1
  Zn  Zn63  1  0.64131585  0.67188364  0.71754530  1
  Zn  Zn64  1  0.49244220  0.46365994  0.72214036  1
  Zn  Zn65  1  0.74155633  0.19522944  0.65172612  1
  Zn  Zn66  1  0.18562237  0.43259716  0.44146527  1
  Zn  Zn67  1  0.45516346  0.46397816  0.29120889  1
  Zn  Zn68  1  0.43357626  0.67082305  0.42035511  1
  Zn  Zn69  1  1.02150185  0.65467810  0.40244272  1
  Zn  Zn70  1  0.06579766  0.29186073  0.55083765  1
  Zn  Zn71  1  0.87201237  0.59693232  0.52077868  1
  Zn  Zn72  1  0.98818334  0.21900623  0.86504843  1
  Zn  Zn73  1  0.80077863  0.32122924  0.33760054  1
  Zn  Zn74  1  0.59068922  0.89289222  1.04207121  1
  Zn  Zn75  1  0.80576933  0.03833337  0.12106328  1
  Zn  Zn76  1  0.83276039  0.32867247  0.86441087  1
  Zn  Zn77  1  0.32083330  0.02954843  0.48403095  1
  Zn  Zn78  1  0.29989905  0.31774187  0.82390822  1
  Zn  Zn79  1  0.04738692  0.53915821  0.29009915  1
  Zn  Zn80  1  0.56215516  0.53626169  0.85808735  1
  Zn  Zn81  1  0.11068314  0.06629739  0.26991663  1
  Zn  Zn82  1  0.28810455  0.33429171  0.32164785  1
  Zn  Zn83  1  0.30218701  0.64510432  0.54557615  1
  Zn  Zn84  1  0.42971357  0.95646885  0.62716766  1
  Zn  Zn85  1  0.26329341  0.01474047  0.01571697  1
  Zn  Zn86  1  0.69157390  0.45689311  0.92605153  1
  Zn  Zn87  1  0.16097372  0.84584707  0.03528676  1
  Zn  Zn88  1  0.91014492  0.39786955  0.20165615  1
  Zn  Zn89  1  0.16810111  0.18672650  0.17991592  1
  Zn  Zn90  1  0.96939009  0.94768868  0.78408264  1
  Zn  Zn91  1  0.81580342  0.56259087  0.08277864  1
  Zn  Zn92  1  0.57271965  0.08172608  0.83377384  1
  Zn  Zn93  1  0.97221910  0.67302365  0.89998415  1
  Zn  Zn94  1  0.67294111  0.45326175  0.43371084  1
  Zn  Zn95  1  0.33047607  0.82132870  0.80656247  1
  Zn  Zn96  1  0.66566024  0.93505302  0.39642984  1
  Zn  Zn97  1  0.48113257  0.90829590  0.17949685  1
  Zn  Zn98  1  0.44033536  0.15634740  0.42454905  1
  Zn  Zn99  1  0.14150118  0.43695818  0.95293714  1
  Zn  Zn100  1  0.20495797  0.90232046  0.45639370  1
  Zn  Zn101  1  0.72497674  0.66629372  0.19609687  1
  O  O102  1  0.10456658  0.09537238  0.15672326  1
  O  O103  1  0.21685515  0.10765437  0.63697838  1
  O  O104  1  0.14472178  0.65886139  0.11808621  1
  O  O105  1  0.02421867  0.75407441  0.54290545  1
  O  O106  1  0.62408556  0.10501230  0.13036708  1
  O  O107  1  0.64032538  0.13733083  0.65479023  1
  O  O108  1  0.58566229  0.55002010  0.09677361  1
  O  O109  1  0.62835734  0.60404335  0.61915429  1
  O  O110  1  0.29708283  0.40392665  0.41726986  1
  O  O111  1  0.35792095  0.38408165  0.89108343  1
  O  O112  1  0.38854186  0.84800555  0.40696638  1
  O  O113  1  0.37279118  0.87945331  0.89256574  1
  O  O114  1  0.90269942  0.36822736  0.36242790  1
  O  O115  1  0.87209556  0.41800723  0.92312914  1
  O  O116  1  0.86690582  0.86683239  0.37819760  1
  O  O117  1  0.94573187  0.87040894  0.86592303  1
  O  O118  1  0.30383586  0.03944089  0.36248074  1
  O  O119  1  0.34792276  -0.01880906  0.79295026  1
  O  O120  1  0.23380279  0.52191457  0.37485218  1
  O  O121  1  0.23420629  0.48643744  0.89998926  1
  O  O122  1  0.73588148  0.00742086  0.44304808  1
  O  O123  1  0.78357576  -0.06164456  0.81864644  1
  O  O124  1  0.77182922  0.43263618  0.38358354  1
  O  O125  1  0.76211395  0.52830791  0.88114807  1
  O  O126  1  0.25488561  0.49318875  0.12795855  1
  O  O127  1  0.31400040  0.39274620  0.62276205  1
  O  O128  1  0.26396479  1.04435534  0.13168298  1
  O  O129  1  0.23608308  1.14810219  0.69205049  1
  O  O130  1  0.76035079  0.46725872  0.10440475  1
  O  O131  1  0.72112152  0.50221094  0.69734329  1
  O  O132  1  0.72320512  0.97792497  0.16284509  1
  O  O133  1  0.71857258  1.01533335  0.61792577  1
  O  O134  1  0.01686429  0.39615291  0.25364704  1
  O  O135  1  0.01204878  0.39049070  0.76363518  1
  O  O136  1  0.12986041  0.79253569  0.23425332  1
  O  O137  1  0.03753670  0.86907051  0.73599637  1
  O  O138  1  0.49737372  0.36848613  0.25650824  1
  O  O139  1  0.47234719  0.37906721  0.78618651  1
  O  O140  1  0.47580459  0.85601473  0.27520191  1
  O  O141  1  0.49620067  0.89383423  0.68912339  1
  O  O142  1  0.49023950  0.19575477  0.23664830  1
  O  O143  1  0.48447340  0.15368705  0.78032882  1
  O  O144  1  0.46337313  0.57495602  0.27500246  1
  O  O145  1  0.46652609  0.56574183  0.78306970  1
  O  O146  1  1.00027685  0.13808062  0.24391310  1
  O  O147  1  0.97911500  0.14588530  0.64643550  1
  O  O148  1  0.97093617  0.62381449  0.30016906  1
  O  O149  1  1.00727546  0.56065305  0.71007702  1
  O  O150  1  0.33990283  0.26511871  0.01087187  1
  O  O151  1  0.31614047  0.27409437  0.51870061  1
  O  O152  1  0.39795094  0.77568226  -0.00087453  1
  O  O153  1  0.36545918  0.72568520  0.49629763  1
  O  O154  1  0.96519505  0.28814781  -0.04090072  1
  O  O155  1  0.84440309  0.21003330  0.33161388  1
  O  O156  1  0.79354174  0.78674959  -0.14657304  1
  O  O157  1  0.87109587  0.75953238  0.44726803  1
  O  O158  1  0.12653088  0.18983495  0.51017059  1
  O  O159  1  0.14515072  0.21488494  0.97576063  1
  O  O160  1  0.04854006  0.79831227  0.49114187  1
  O  O161  1  0.15398532  0.74246304  0.98524265  1
  O  O162  1  0.61421032  0.25857333  0.52622040  1
  O  O163  1  0.64279191  0.20748691  1.01986102  1
  O  O164  1  0.63946921  0.78608740  0.55184260  1
  O  O165  1  0.64471091  0.79833380  1.01834964  1
  O  O166  1  0.47113847  0.28487142  0.11497318  1
  O  O167  1  0.50153178  0.26555904  0.67480625  1
  O  O168  1  0.54188496  0.70838676  0.22171651  1
  O  O169  1  0.54408147  0.71248117  0.66747153  1
  O  O170  1  0.98561396  0.18515463  0.08987212  1
  O  O171  1  0.96992192  0.24641552  0.54500389  1
  O  O172  1  0.94160511  0.75938250  0.11535236  1
  O  O173  1  0.91211276  0.79856129  0.63403071  1
  O  O174  1  0.01039285  0.26465603  0.35405634  1
  O  O175  1  -0.08347302  0.28326478  0.81302458  1
  O  O176  1  0.05449356  0.76739138  0.41743777  1
  O  O177  1  0.04546721  0.75428421  0.87905911  1
  O  O178  1  0.52803796  0.22264744  0.42399390  1
  O  O179  1  0.46745371  0.26466052  0.87363508  1
  O  O180  1  0.51097019  0.74074552  0.38144524  1
  O  O181  1  0.56285389  0.80796518  0.85989272  1
  O  O182  1  0.24355140  0.13716886  0.45544248  1
  O  O183  1  0.26458866  0.14368454  1.00729268  1
  O  O184  1  0.21445824  0.65170988  0.46822560  1
  O  O185  1  0.23987373  0.61441147  0.99891232  1
  O  O186  1  0.76692865  0.16022107  0.54747541  1
  O  O187  1  0.74380541  0.07143686  1.03134405  1
  O  O188  1  0.77216655  0.62887550  0.48020599  1
  O  O189  1  0.73579765  0.65242141  1.08045902  1
  O  O190  1  0.20822210  0.34144858  -0.01008874  1
  O  O191  1  0.16748751  0.33180341  0.51564803  1
  O  O192  1  0.28027673  0.89047513  0.02257865  1
  O  O193  1  0.25232971  0.83091833  0.52547691  1
  O  O194  1  0.66762300  0.36724861  -0.01603549  1
  O  O195  1  0.84204012  0.37363455  0.56646709  1
  O  O196  1  0.80249854  0.79668873  0.03582294  1
  O  O197  1  0.72258956  0.84644383  0.47348949  1
  O  O198  1  0.13393494  0.49498428  0.23619942  1
  O  O199  1  0.14258886  0.41788946  0.70626228  1
  O  O200  1  0.10837319  0.95302276  0.25583981  1
  O  O201  1  0.15635110  0.97340415  0.73778598  1
  O  O202  1  0.57735611  0.51586211  0.03296557  1
  O  O203  1  0.63899374  0.58963181  0.80063958  1
  O  O204  1  0.62056554  1.02488101  0.27422506  1
  O  O205  1  0.60790468  1.04072371  0.73693417  1
  O  O206  1  0.33695657  0.05895651  0.15599007  1
  O  O207  1  0.33611506  0.01055181  0.66732844  1
  O  O208  1  0.34027858  0.48094329  0.26147398  1
  O  O209  1  0.34352920  0.43114847  0.67564716  1
  O  O210  1  0.80929455  0.09212569  0.29099913  1
  O  O211  1  0.91596694  0.02433221  0.72700579  1
  O  O212  1  0.88274907  0.49115229  0.27087591  1
  O  O213  1  0.85723531  0.54002091  0.78235549  1
  O  O214  1  0.11740420  0.37918963  0.36273823  1
  O  O215  1  0.10865786  0.38319290  0.85630862  1
  O  O216  1  0.20477680  0.87122829  0.35302020  1
  O  O217  1  0.14188198  0.85591117  0.85167710  1
  O  O218  1  0.61727468  0.35543988  0.42408244  1
  O  O219  1  0.62671815  0.43394248  0.83141415  1
  O  O220  1  0.56232460  0.89873190  0.40478969  1
  O  O221  1  0.74715554  0.96426939  0.87430478  1
  O  O222  1  0.35563077  0.12929294  0.17151726  1
  O  O223  1  0.40505225  0.10089345  0.50612821  1
  O  O224  1  0.37730548  0.61615018  0.15250080  1
  O  O225  1  0.40630024  0.63222895  0.65559370  1
  O  O226  1  0.90808205  0.05663936  0.14194109  1
  O  O227  1  0.86899080  0.06466800  0.60640395  1
  O  O228  1  0.86792230  0.60983664  0.17106596  1
  O  O229  1  0.87963085  0.61412477  0.63095876  1
  O  O230  1  0.22553863  0.24649300  0.09804224  1
  O  O231  1  0.28491934  0.23116803  0.57174119  1
  O  O232  1  0.27974950  0.75580703  0.13325097  1
  O  O233  1  0.24663131  0.70508585  0.62619232  1
  O  O234  1  0.76551535  0.29627249  0.08745442  1
  O  O235  1  0.68756833  0.28876819  0.66428235  1
  O  O236  1  0.70837583  0.78113420  0.16885788  1
  O  O237  1  0.70583402  0.82252726  0.54312446  1
  O  O238  1  0.22527514  0.25925822  0.38157146  1
  O  O239  1  0.26309535  0.23843825  0.89690992  1
  O  O240  1  0.23805536  0.71940388  0.32847217  1
  O  O241  1  0.26096445  0.75210756  0.87186189  1
  O  O242  1  0.72864206  0.27864976  0.41994057  1
  O  O243  1  0.77774580  0.25649348  0.93148661  1
  O  O244  1  0.69787122  0.71059760  0.36804938  1
  O  O245  1  0.72784801  0.78717654  0.87806550  1
  O  O246  1  -0.11900955  0.13163288  -0.05178374  1
  O  O247  1  0.06175358  0.04571237  0.52381059  1
  O  O248  1  0.02631007  0.64457704  0.00504157  1
  O  O249  1  -0.01498296  0.60083591  0.49038585  1
  O  O250  1  0.48323217  0.13025001  0.02725424  1
  O  O251  1  0.47183611  0.04583184  0.34837551  1
  O  O252  1  0.52499641  0.67103810  -0.00154325  1
  O  O253  1  0.49613265  0.63770234  0.52184145  1
  O  O254  1  0.43927251  0.35627817  0.50931074  1
  O  O255  1  0.49696761  0.34627162  0.98623067  1
  O  O256  1  0.48195444  0.82251284  0.53474361  1
  O  O257  1  0.48326356  0.91619742  1.00399652  1
  O  O258  1  1.01565525  0.37258303  0.47783826  1
  O  O259  1  1.02544824  0.43478289  0.98827079  1
  O  O260  1  0.90758988  0.82230914  0.42505596  1
  O  O261  1  1.05660410  0.87223123  0.99385552  1
  O  O262  1  0.43302158  0.47668132  0.40241841  1
  O  O263  1  0.48453158  0.47685852  0.90803969  1
  O  O264  1  0.43457466  1.03487146  0.28862829  1
  O  O265  1  0.48899903  1.03817208  0.89190587  1
  O  O266  1  0.99703922  0.47960637  0.37908885  1
  O  O267  1  0.97556186  0.54486994  0.87849894  1
  O  O268  1  0.89206540  1.04542483  0.44678097  1
  O  O269  1  1.04187113  0.97722946  0.87408737  1
  O  O270  1  0.02083264  0.04107394  0.03441544  1
  O  O271  1  -0.08198213  -0.09311849  0.55283058  1
  O  O272  1  0.01136942  0.53614371  0.12517703  1
  O  O273  1  -0.01092973  0.47403318  0.59029330  1
  O  O274  1  0.50485668  0.02026214  0.16290835  1
  O  O275  1  0.51210835  0.04344685  0.62744794  1
  O  O276  1  0.43585422  0.45413497  0.10401242  1
  O  O277  1  0.52073686  0.52043692  0.63255691  1
  O  O278  1  0.22106608  0.38369460  0.24060949  1
  O  O279  1  0.20404017  0.31819950  0.77341484  1
  O  O280  1  0.28849616  0.87374262  0.23786805  1
  O  O281  1  0.25493891  0.84417944  0.73029647  1
  O  O282  1  0.77971423  0.36178572  0.23198500  1
  O  O283  1  0.75325321  0.35186967  0.79276043  1
  O  O284  1  0.71578996  0.87830187  0.30745191  1
  O  O285  1  0.73042039  0.83446906  0.70974663  1
  O  O286  1  0.21511388  0.13699640  0.26961615  1
  O  O287  1  0.31566649  0.02201347  0.74144566  1
  O  O288  1  0.25492368  0.60113634  0.24447339  1
  O  O289  1  0.30012490  0.58937976  0.78503757  1
  O  O290  1  0.80358069  0.16509104  0.28195247  1
  O  O291  1  0.79164055  0.12530645  0.72901279  1
  O  O292  1  0.75195784  0.59706587  0.27416291  1
  O  O293  1  0.75506580  0.65437772  0.74831494  1
  O  O294  1  0.36232597  0.18382218  0.35172651  1
  O  O295  1  0.42984847  0.11283242  0.75068027  1
  O  O296  1  0.34706336  0.60519420  0.37474065  1
  O  O297  1  0.35656476  0.59645810  0.92406535  1
  O  O298  1  0.92227796  0.10482812  0.42371225  1
  O  O299  1  0.93532405  0.14252169  0.78527490  1
  O  O300  1  0.84256992  0.57999692  0.37336369  1
  O  O301  1  0.86341741  0.64074734  0.91177063  1
  O  O302  1  0.10697498  0.39207895  0.12204249  1
  O  O303  1  0.08003985  0.29675780  0.66800208  1
  O  O304  1  0.19221548  0.89134575  0.13489349  1
  O  O305  1  0.15263643  0.84637061  0.63651629  1
  O  O306  1  0.63543133  0.37564814  0.15062864  1
  O  O307  1  0.59958741  0.40892441  0.68117248  1
  O  O308  1  0.60005002  0.90543946  0.15669154  1
  O  O309  1  0.61955766  0.93459879  0.63689208  1
  O  O310  1  0.09964637  0.27048390  0.21874838  1
  O  O311  1  0.07763545  0.24767662  0.79655806  1
  O  O312  1  -0.01844617  0.74820467  0.17242039  1
  O  O313  1  0.13758158  0.73461172  0.76184438  1
  O  O314  1  0.61460762  0.24617327  0.32417724  1
  O  O315  1  0.60912225  0.27913658  0.80029532  1
  O  O316  1  0.58482726  0.65159396  0.22019678  1
  O  O317  1  0.66533179  0.80749284  0.72182252  1
  O  O318  1  0.35869888  0.29512310  0.24265344  1
  O  O319  1  0.36468663  0.26773959  0.75077216  1
  O  O320  1  0.38091173  0.71366674  0.27540113  1
  O  O321  1  0.39731575  0.71785592  0.80365354  1
  O  O322  1  0.92726154  0.27827642  0.21409146  1
  O  O323  1  0.85870174  0.21653303  0.66662285  1
  O  O324  1  0.84662540  0.71634423  0.28550622  1
  O  O325  1  0.94115441  0.68908431  0.77215632  1
  O  O326  1  0.33258784  0.53732596  0.51422827  1
  O  O327  1  0.52450555  0.66840143  1.06886265  1
  O  O328  1  0.37551618  0.93787409  0.53049879  1
  O  O329  1  0.37532053  1.01673406  0.99557682  1
  O  O330  1  0.89063773  0.48565323  0.47578612  1
  O  O331  1  0.90146548  0.53573247  1.01038401  1
  O  O332  1  0.84710699  0.91374065  0.54609409  1
  O  O333  1  0.88814540  1.06149783  0.93758840  1
  O  O334  1  0.16628329  0.02798696  -0.03578194  1
  O  O335  1  0.20815151  0.00439158  0.49565463  1
  O  O336  1  0.11717617  0.53657658  0.00673064  1
  O  O337  1  0.11212531  0.49585464  0.49763271  1
  O  O338  1  0.58930536  0.00997508  0.01732685  1
  O  O339  1  0.60258446  0.05275766  0.53442669  1
  O  O340  1  0.62412937  0.54662161  -0.02977080  1
  O  O341  1  0.66550965  0.46374391  0.54685415  1
  O  O342  1  0.40690512  0.48982039  0.04898585  1
  O  O343  1  0.48773019  0.38517392  0.55422957  1
  O  O344  1  0.39046878  0.88104219  0.11787651  1
  O  O345  1  0.35703851  0.81884421  0.62482873  1
  O  O346  1  0.91261613  0.38200511  0.08861264  1
  O  O347  1  0.82054724  0.37864123  0.63307852  1
  O  O348  1  0.82637727  0.87297101  0.20153463  1
  O  O349  1  0.84343298  0.78696741  0.62244351  1
  O  O350  1  0.10527457  0.07632361  0.38080559  1
  O  O351  1  0.04435579  0.13267918  0.90642212  1
  O  O352  1  0.11656900  0.62101862  0.34829061  1
  O  O353  1  0.16639568  0.63227217  0.87393294  1
  O  O354  1  0.66750703  0.15683704  0.42914378  1
  O  O355  1  0.64550761  0.10268083  0.91190226  1
  O  O356  1  0.65508011  0.55580357  0.39676044  1
  O  O357  1  0.57343449  0.73857793  0.84722788  1
