# generated using pymatgen
data_V51Zn51O256
_symmetry_space_group_name_H-M   'P 1'
_cell_length_a   17.93625350
_cell_length_b   17.73573606
_cell_length_c   17.94445499
_cell_angle_alpha   87.87154229
_cell_angle_beta   92.31513373
_cell_angle_gamma   92.48641584
_symmetry_Int_Tables_number   1
_chemical_formula_structural   V51Zn51O256
_chemical_formula_sum   'V51 Zn51 O256'
_cell_volume   5694.74739943
_cell_formula_units_Z   1
loop_
 _symmetry_equiv_pos_site_id
 _symmetry_equiv_pos_as_xyz
  1  'x, y, z'
loop_
 _atom_site_type_symbol
 _atom_site_label
 _atom_site_symmetry_multiplicity
 _atom_site_fract_x
 _atom_site_fract_y
 _atom_site_fract_z
 _atom_site_occupancy
  V  V0  1  0.15824107  0.49349701  0.11969699  1
  V  V1  1  0.56902292  0.08631163  0.03751144  1
  V  V2  1  -0.00846009  0.22261082  0.25727499  1
  V  V3  1  0.14644220  0.35269128  0.23515179  1
  V  V4  1  0.01166704  0.01120127  0.50538718  1
  V  V5  1  0.02807712  0.61279351  0.09954944  1
  V  V6  1  0.04577526  0.43012448  0.37370096  1
  V  V7  1  0.84695873  0.92551030  0.56655867  1
  V  V8  1  0.90938586  0.48635880  0.90928819  1
  V  V9  1  0.15327474  0.94680879  0.70921992  1
  V  V10  1  0.51122423  0.02884496  0.51569146  1
  V  V11  1  0.40733004  0.69411858  0.08473983  1
  V  V12  1  0.69081622  0.85323924  0.14928959  1
  V  V13  1  0.13119766  0.20889940  0.35795571  1
  V  V14  1  0.77384783  0.20153514  0.42899747  1
  V  V15  1  0.64226834  0.15205629  0.52409051  1
  V  V16  1  0.85351831  0.16458755  0.93893152  1
  V  V17  1  0.24511273  0.23500277  0.48252221  1
  V  V18  1  0.08738212  0.78753119  0.87671351  1
  V  V19  1  0.83469336  0.04262441  0.79567831  1
  V  V20  1  0.55419727  0.36329905  0.73882372  1
  V  V21  1  0.13395513  -0.04080948  0.12164860  1
  V  V22  1  0.04024371  0.64577545  0.66404805  1
  V  V23  1  0.38765177  0.12415806  0.23029754  1
  V  V24  1  0.44326373  0.23767852  0.71461150  1
  V  V25  1  0.40902634  0.38001925  0.04317483  1
  V  V26  1  0.94586761  0.39499853  0.50449511  1
  V  V27  1  -0.03185583  -0.01061016  0.16307381  1
  V  V28  1  0.14947627  0.62336526  -0.05667487  1
  V  V29  1  0.67312856  0.89471951  0.76083892  1
  V  V30  1  -0.07647081  0.88577986  0.41330439  1
  V  V31  1  0.26069558  0.12052724  0.88691554  1
  V  V32  1  0.61324878  0.28816133  0.90764520  1
  V  V33  1  0.85078952  0.72057009  0.65425328  1
  V  V34  1  0.62648526  0.51711082  0.12016371  1
  V  V35  1  0.01294155  0.13206195  0.64867996  1
  V  V36  1  0.28994193  0.81183046  -0.00219101  1
  V  V37  1  0.02896778  0.56377015  0.50027022  1
  V  V38  1  0.85997180  0.55913779  0.41841405  1
  V  V39  1  0.84606411  0.08163508  0.24963358  1
  V  V40  1  0.36113556  0.35486154  0.47676086  1
  V  V41  1  0.61687114  0.06438369  0.68360245  1
  V  V42  1  0.03265795  0.08569858  0.00891559  1
  V  V43  1  0.52257076  0.91554321  0.84378513  1
  V  V44  1  0.26313366  0.67121859  0.34016050  1
  V  V45  1  0.40560140  0.44348753  0.33839183  1
  V  V46  1  0.77557847  0.47092802  0.20567855  1
  V  V47  1  0.34067734  0.44367825  0.84199240  1
  V  V48  1  0.69549248  0.07487043  0.34832494  1
  V  V49  1  0.03589458  0.43919212  0.00887793  1
  V  V50  1  0.35098556  0.08193193  0.72193879  1
  Zn  Zn51  1  0.72806465  0.42645333  1.01048065  1
  Zn  Zn52  1  0.24376561  0.83199692  0.82701513  1
  Zn  Zn53  1  0.36632322  0.80770559  0.23252703  1
  Zn  Zn54  1  0.86226579  0.85765612  0.75975316  1
  Zn  Zn55  1  0.63584867  0.15846927  0.18243676  1
  Zn  Zn56  1  0.47973531  0.53500880  0.75901429  1
  Zn  Zn57  1  0.46404759  0.95815787  0.66949121  1
  Zn  Zn58  1  0.78296954  0.38861478  0.39359872  1
  Zn  Zn59  1  0.81588176  0.81430979  0.26614517  1
  Zn  Zn60  1  -0.01345108  0.81861442  0.56589269  1
  Zn  Zn61  1  0.54392183  0.52796023  0.24923726  1
  Zn  Zn62  1  0.90419797  0.71266166  0.48328204  1
  Zn  Zn63  1  0.12993061  0.77144433  0.05302165  1
  Zn  Zn64  1  0.35067802  0.37124997  0.67598504  1
  Zn  Zn65  1  0.90734231  0.15712414  1.10555788  1
  Zn  Zn66  1  0.69171828  0.98111538  0.92063152  1
  Zn  Zn67  1  0.43281655  0.20947936  0.95941956  1
  Zn  Zn68  1  0.07810500  0.06237187  0.82307879  1
  Zn  Zn69  1  0.34637719  0.56267329  0.45831534  1
  Zn  Zn70  1  0.41666814  0.75976928  0.91681557  1
  Zn  Zn71  1  -0.06042624  0.67072687  0.81696275  1
  Zn  Zn72  1  0.89240357  0.49899737  0.09887516  1
  Zn  Zn73  1  0.05821812  0.25679170  0.08456496  1
  Zn  Zn74  1  0.21660889  0.11403786  0.60351441  1
  Zn  Zn75  1  0.35147482  0.49173659  0.15463472  1
  Zn  Zn76  1  0.97159942  0.20883479  0.45384695  1
  Zn  Zn77  1  0.17627898  1.06096064  0.44103917  1
  Zn  Zn78  1  0.16224650  0.96264735  0.94523637  1
  Zn  Zn79  1  0.69126049  0.79824287  0.61459837  1
  Zn  Zn80  1  0.39629600  0.16288953  0.55270470  1
  Zn  Zn81  1  0.30718734  0.28745550  0.31009485  1
  Zn  Zn82  1  0.55190698  0.28886823  0.58110107  1
  Zn  Zn83  1  0.23753814  0.46379135  0.97322045  1
  Zn  Zn84  1  0.26186968  0.65589880  0.12942601  1
  Zn  Zn85  1  0.35295334  0.57060131  -0.01598674  1
  Zn  Zn86  1  0.57061471  0.10206847  0.87271384  1
  Zn  Zn87  1  0.82638109  0.12208099  0.60441905  1
  Zn  Zn88  1  0.53793241  0.85400126  0.54734992  1
  Zn  Zn89  1  0.56770575  0.29653367  0.05147938  1
  Zn  Zn90  1  0.96133925  0.55584667  0.26113085  1
  Zn  Zn91  1  0.44898409  0.95715505  0.14143149  1
  Zn  Zn92  1  0.68392796  0.95759894  0.50354965  1
  Zn  Zn93  1  0.89984057  0.38706190  0.26873925  1
  Zn  Zn94  1  0.31546024  0.26088204  0.83642974  1
  Zn  Zn95  1  0.71078362  0.65149574  0.21935906  1
  Zn  Zn96  1  0.30332210  0.04235599  0.06868808  1
  Zn  Zn97  1  0.75031487  0.04628553  0.07224103  1
  Zn  Zn98  1  0.12389176  0.77183186  0.68875366  1
  Zn  Zn99  1  0.82724256  0.35429301  0.89222995  1
  Zn  Zn100  1  0.97046496  0.97222563  0.70322557  1
  Zn  Zn101  1  0.09651522  0.29797368  0.54108991  1
  O  O102  1  0.06547662  -0.00460699  0.18322241  1
  O  O103  1  0.10751529  0.14835985  0.60081904  1
  O  O104  1  0.16822691  0.59128088  0.12472116  1
  O  O105  1  0.13445754  0.66336984  0.68056068  1
  O  O106  1  0.66025780  0.09117678  0.10129849  1
  O  O107  1  0.66046277  0.13812348  0.63027321  1
  O  O108  1  0.66854649  0.60520232  0.12948952  1
  O  O109  1  0.58385823  0.60787816  0.56755780  1
  O  O110  1  0.39063295  0.34497466  0.35735821  1
  O  O111  1  0.36864780  0.35351348  0.86586390  1
  O  O112  1  0.23827886  0.95099313  0.34659075  1
  O  O113  1  0.31842574  0.79931168  0.71169037  1
  O  O114  1  0.95567099  0.39140810  0.36502869  1
  O  O115  1  0.80548082  0.44660205  0.93712326  1
  O  O116  1  0.84339762  0.90010998  0.46305079  1
  O  O117  1  0.79728803  0.70770651  0.95819532  1
  O  O118  1  0.25649451  -0.01357378  0.40439423  1
  O  O119  1  0.17380547  0.04965502  0.87643595  1
  O  O120  1  0.19989688  0.59528549  0.32915516  1
  O  O121  1  0.24917773  0.44617280  0.86738857  1
  O  O122  1  0.68352602  -0.00975055  0.39903653  1
  O  O123  1  0.75372911  0.01268203  0.83531261  1
  O  O124  1  0.78453119  0.49726862  0.40458966  1
  O  O125  1  0.58359111  0.67451549  0.96069732  1
  O  O126  1  0.24962377  0.47100937  0.11149643  1
  O  O127  1  0.25409296  0.50853349  0.51994345  1
  O  O128  1  0.21861807  1.00298965  0.12426398  1
  O  O129  1  0.38261219  0.91921214  0.41564404  1
  O  O130  1  0.78892034  0.45181061  0.10829010  1
  O  O131  1  0.67974466  0.57393075  0.70329693  1
  O  O132  1  0.71795237  0.95023675  0.13409427  1
  O  O133  1  0.81847601  1.08298335  0.70900649  1
  O  O134  1  -0.03834978  0.30917388  0.23893279  1
  O  O135  1  0.05944439  0.26708296  0.78906801  1
  O  O136  1  -0.10842256  0.86180686  0.32532703  1
  O  O137  1  0.07015423  0.96803520  0.75662463  1
  O  O138  1  0.56318847  0.29874767  0.22730151  1
  O  O139  1  0.46143535  0.35065563  0.69408493  1
  O  O140  1  0.44564660  0.87496599  0.20804993  1
  O  O141  1  0.50302683  0.89653734  0.75185787  1
  O  O142  1  0.45993823  0.16903691  0.18053369  1
  O  O143  1  0.43218080  0.13692598  0.74705135  1
  O  O144  1  0.61390305  0.61319703  0.27694601  1
  O  O145  1  0.44562327  0.59689878  0.66414824  1
  O  O146  1  0.91740882  0.01561706  0.24373614  1
  O  O147  1  1.01950616  0.11628490  0.74336502  1
  O  O148  1  1.02913118  0.60835107  0.19553030  1
  O  O149  1  1.00252825  0.62458086  0.74747481  1
  O  O150  1  0.38866472  0.28630591  0.02115515  1
  O  O151  1  0.35323365  0.24483477  0.48526723  1
  O  O152  1  0.40098498  0.67208604  -0.01690007  1
  O  O153  1  0.38984498  0.77394797  0.51190872  1
  O  O154  1  0.83593271  0.25558612  0.12153945  1
  O  O155  1  0.99586059  0.30447635  0.50134462  1
  O  O156  1  0.81878672  0.69898290  0.02379651  1
  O  O157  1  0.87764132  0.77507207  0.57178778  1
  O  O158  1  0.13686931  0.24291061  0.45653191  1
  O  O159  1  0.08209960  0.16539263  1.03321321  1
  O  O160  1  0.23688163  0.84442872  0.48549819  1
  O  O161  1  0.13650313  0.73027383  0.94591566  1
  O  O162  1  0.63440339  0.24770265  0.53031399  1
  O  O163  1  0.66526862  0.32819463  0.98608358  1
  O  O164  1  0.62231619  0.80617616  0.53361664  1
  O  O165  1  0.50682160  0.69696652  0.79491396  1
  O  O166  1  0.57637390  0.18714745  0.08786438  1
  O  O167  1  0.46716736  0.22402873  0.61953548  1
  O  O168  1  0.49481578  0.69819506  0.10992383  1
  O  O169  1  0.46149896  0.77416901  0.49393101  1
  O  O170  1  0.99965608  0.19335982  0.16183137  1
  O  O171  1  1.08152581  0.21779132  0.62989708  1
  O  O172  1  1.05027968  0.70729509  0.08227672  1
  O  O173  1  1.02036576  0.74211755  0.63502527  1
  O  O174  1  0.02228197  0.21336945  0.35838577  1
  O  O175  1  -0.00925345  0.27001138  0.80575688  1
  O  O176  1  -0.03308528  0.80406057  0.45246013  1
  O  O177  1  -0.00302369  0.75599978  0.86279839  1
  O  O178  1  0.53974984  0.35484637  0.43246703  1
  O  O179  1  0.52441395  0.27786874  0.94134791  1
  O  O180  1  0.56578126  0.76421422  0.33098101  1
  O  O181  1  0.38044761  0.77289860  0.72567257  1
  O  O182  1  0.24112351  0.13139704  0.49524509  1
  O  O183  1  0.26877091  0.09193094  0.98032274  1
  O  O184  1  0.28119952  0.65317283  0.44064699  1
  O  O185  1  0.23687286  0.58241078  0.97072845  1
  O  O186  1  0.75866470  0.15829654  0.52557412  1
  O  O187  1  0.78671179  0.12209354  0.99140868  1
  O  O188  1  0.67177857  0.63556342  0.39284757  1
  O  O189  1  0.64973104  0.66687526  0.97879771  1
  O  O190  1  0.22787233  0.23005934  0.05895070  1
  O  O191  1  0.26849508  0.34894980  0.45263140  1
  O  O192  1  0.24680979  0.89672159  -0.01666660  1
  O  O193  1  0.38110231  0.90279518  0.34979738  1
  O  O194  1  0.76261671  0.24158883  0.12387174  1
  O  O195  1  0.85490785  0.37268385  0.48079262  1
  O  O196  1  0.68323597  0.84893564  0.05367956  1
  O  O197  1  0.75015398  0.89848650  0.57267599  1
  O  O198  1  0.14420393  0.45496465  0.21140881  1
  O  O199  1  0.07878672  0.46922667  0.74484056  1
  O  O200  1  0.15800084  0.90480359  0.22648294  1
  O  O201  1  0.18614761  1.02317736  0.65792377  1
  O  O202  1  0.67270288  0.46087603  0.19506023  1
  O  O203  1  0.55012204  0.46062095  0.74358998  1
  O  O204  1  0.63542930  1.09108274  0.27391642  1
  O  O205  1  0.61008057  1.09493042  0.77095155  1
  O  O206  1  0.40009630  0.02503190  0.21941511  1
  O  O207  1  0.37257853  -0.00829298  0.70663859  1
  O  O208  1  0.35237509  0.47905233  0.26626820  1
  O  O209  1  0.34506005  0.45278634  0.74495105  1
  O  O210  1  0.77348721  0.02919587  0.28630359  1
  O  O211  1  0.89769403  -0.03329057  0.78805862  1
  O  O212  1  0.89795856  0.58985644  0.33599353  1
  O  O213  1  0.89957032  0.42337751  0.83861541  1
  O  O214  1  0.10977247  0.37107922  0.33093958  1
  O  O215  1  0.04231698  0.41101055  0.75773810  1
  O  O216  1  0.16958697  0.83878147  0.46963234  1
  O  O217  1  0.09554508  0.87631101  0.91013052  1
  O  O218  1  0.59698560  0.39485331  0.44730550  1
  O  O219  1  0.61579111  0.34925756  0.82560394  1
  O  O220  1  0.54497566  0.82838695  0.34027062  1
  O  O221  1  0.62786492  0.90817218  0.85204357  1
  O  O222  1  0.34505263  0.12199742  0.13404516  1
  O  O223  1  0.32167282  0.12898668  0.63747015  1
  O  O224  1  0.35560442  0.59649899  0.10400449  1
  O  O225  1  0.40153450  0.60927750  0.54534114  1
  O  O226  1  0.82341057  0.09338638  0.15335792  1
  O  O227  1  0.92910361  0.16726374  0.62019809  1
  O  O228  1  0.93505531  0.60138810  0.07469859  1
  O  O229  1  0.87864785  0.63447310  0.64443751  1
  O  O230  1  0.25322159  0.28819217  0.08711187  1
  O  O231  1  0.22909000  0.25670539  0.57009657  1
  O  O232  1  0.23814501  0.74739791  0.05763874  1
  O  O233  1  0.28628576  0.64949456  0.66364920  1
  O  O234  1  0.73577693  0.22902625  0.19128777  1
  O  O235  1  0.83135103  0.32300913  0.65638395  1
  O  O236  1  0.67872715  0.75186304  0.16062435  1
  O  O237  1  0.75391197  0.72083621  0.65158418  1
  O  O238  1  0.23282947  0.23001686  0.36667861  1
  O  O239  1  0.21965770  0.20481807  0.86575304  1
  O  O240  1  0.33064275  0.75084792  0.32269151  1
  O  O241  1  0.30163231  0.78232441  0.90222887  1
  O  O242  1  0.73776974  0.28783314  0.40624415  1
  O  O243  1  0.82519850  0.25228666  0.90744174  1
  O  O244  1  0.73209985  0.76623634  0.41571551  1
  O  O245  1  0.70051380  0.68441856  0.82153424  1
  O  O246  1  -0.04034848  0.04894056  0.07898918  1
  O  O247  1  -0.01027709  0.10195801  0.48368537  1
  O  O248  1  0.07565583  0.59212907  -0.00427744  1
  O  O249  1  -0.01071903  0.64683232  0.47330944  1
  O  O250  1  0.49971582  0.12409599  -0.02308547  1
  O  O251  1  0.54710214  0.13541811  0.50474475  1
  O  O252  1  0.44409369  0.68236733  -0.16981938  1
  O  O253  1  0.54704123  0.62531781  0.51096871  1
  O  O254  1  0.48892037  0.34147534  0.49710408  1
  O  O255  1  0.50443871  0.38743860  1.04032752  1
  O  O256  1  0.48228252  0.93411774  0.56799097  1
  O  O257  1  0.47701496  0.84893232  0.89976565  1
  O  O258  1  1.05058265  0.44738866  0.47234470  1
  O  O259  1  1.02422948  0.34379710  1.02080276  1
  O  O260  1  0.96276970  0.92237322  0.54400563  1
  O  O261  1  0.90932604  0.83355753  0.99376185  1
  O  O262  1  0.49704879  0.47352917  0.32678601  1
  O  O263  1  0.43645299  0.50873700  0.85881281  1
  O  O264  1  0.51730946  0.99484322  0.43286881  1
  O  O265  1  0.50330079  1.00574536  0.85975045  1
  O  O266  1  1.04385806  0.51428877  0.32860890  1
  O  O267  1  1.01708269  0.46664104  0.91422157  1
  O  O268  1  0.98060980  0.97046246  0.41148723  1
  O  O269  1  0.86020942  0.84834572  0.94676450  1
  O  O270  1  -0.05720229  -0.09620306  0.14272163  1
  O  O271  1  0.00607702  0.03562392  0.61666560  1
  O  O272  1  0.04540020  0.49446695  0.09774739  1
  O  O273  1  0.02952561  0.56935885  0.60158859  1
  O  O274  1  0.52581778  0.01702497  0.09217831  1
  O  O275  1  0.52630396  0.05333164  0.65045496  1
  O  O276  1  0.53301791  0.52071710  0.14489883  1
  O  O277  1  0.41672252  0.56064351  0.60454457  1
  O  O278  1  0.23896338  0.33831974  0.24205138  1
  O  O279  1  0.22164756  0.38370211  0.69801911  1
  O  O280  1  0.27773016  0.87654218  0.20657079  1
  O  O281  1  0.22374797  0.92117687  0.77294622  1
  O  O282  1  0.79237140  0.40013318  0.28009770  1
  O  O283  1  0.80205156  0.36509432  0.69781937  1
  O  O284  1  0.72129299  0.87014124  0.25003185  1
  O  O285  1  0.76041902  0.86711694  0.78385765  1
  O  O286  1  0.29202622  0.11402998  0.25604025  1
  O  O287  1  0.28831344  0.08290215  0.79276132  1
  O  O288  1  0.25650795  0.66981624  0.24125676  1
  O  O289  1  0.22678193  0.54811032  0.56679353  1
  O  O290  1  0.77793174  0.14580227  0.34515254  1
  O  O291  1  0.87414911  0.11128128  0.85894847  1
  O  O292  1  0.78147332  0.56236515  0.22589501  1
  O  O293  1  0.71175241  0.62032357  0.84649403  1
  O  O294  1  0.43737336  0.10244169  0.31225770  1
  O  O295  1  0.35714643  0.16999586  0.89005657  1
  O  O296  1  0.34846713  0.61115093  0.35314800  1
  O  O297  1  0.36928145  0.54911287  0.86696822  1
  O  O298  1  0.86644307  0.21791378  0.44036174  1
  O  O299  1  0.93357380  0.17014303  0.99905784  1
  O  O300  1  0.82858405  0.63741853  0.46138407  1
  O  O301  1  0.90529858  0.57891615  0.87834508  1
  O  O302  1  0.11566852  0.32681928  0.14748533  1
  O  O303  1  0.13810601  0.38268026  0.60142518  1
  O  O304  1  0.12800758  0.87164391  0.08585266  1
  O  O305  1  0.13061213  0.87240685  0.64975831  1
  O  O306  1  0.58661385  0.33059098  0.16476623  1
  O  O307  1  0.60467637  0.34323200  0.66414899  1
  O  O308  1  0.60159603  0.86036927  0.17337517  1
  O  O309  1  0.66738603  0.97549227  0.69956965  1
  O  O310  1  0.10891484  0.24226352  0.26259924  1
  O  O311  1  0.16405427  0.34978824  0.66777126  1
  O  O312  1  0.21035980  0.85340439  0.22939905  1
  O  O313  1  0.14295211  0.78197504  0.79798667  1
  O  O314  1  0.59451475  0.23651585  0.25430459  1
  O  O315  1  0.51678508  0.25648805  0.77610222  1
  O  O316  1  0.68544291  0.81394537  0.41950951  1
  O  O317  1  0.63618535  0.82381762  0.70935834  1
  O  O318  1  0.37072794  0.21799146  0.26051526  1
  O  O319  1  0.34963443  0.26535723  0.73054785  1
  O  O320  1  0.35644737  0.73090800  0.15931222  1
  O  O321  1  0.31406679  0.62769082  0.72335820  1
  O  O322  1  0.90882076  0.16287389  0.27312711  1
  O  O323  1  0.94058570  0.27882266  0.75345798  1
  O  O324  1  0.77536163  0.71494028  0.27907429  1
  O  O325  1  0.88475866  0.75075495  0.74745089  1
  O  O326  1  0.38008712  0.46413019  0.43298598  1
  O  O327  1  0.35427034  0.45557231  0.99194279  1
  O  O328  1  0.42242847  1.06712358  0.52037549  1
  O  O329  1  0.37176020  0.96648891  1.07006092  1
  O  O330  1  0.93063806  0.50776566  0.47341938  1
  O  O331  1  0.93072274  0.46009232  1.01051360  1
  O  O332  1  0.84517951  1.01966829  0.56072106  1
  O  O333  1  0.76432826  0.97063490  1.00022325  1
  O  O334  1  0.09715799  0.00873500  0.02992446  1
  O  O335  1  0.10564957  0.00274829  0.49992024  1
  O  O336  1  0.14148058  0.44762913  0.02107286  1
  O  O337  1  0.11525893  0.58112563  0.47656999  1
  O  O338  1  0.61864792  0.04478753  -0.03501784  1
  O  O339  1  0.62149147  0.02900289  0.54506713  1
  O  O340  1  0.64412934  0.48699195  0.03337221  1
  O  O341  1  0.68913757  0.52954020  0.65410176  1
  O  O342  1  0.38970465  0.39325339  0.13523758  1
  O  O343  1  0.36174382  0.37977415  0.56728459  1
  O  O344  1  0.38042121  0.80523456  0.03409641  1
  O  O345  1  0.37435126  0.78139640  0.58016656  1
  O  O346  1  0.90016853  0.47889727  0.20619468  1
  O  O347  1  0.95077530  0.41105871  0.59389814  1
  O  O348  1  0.79356226  0.82276510  0.15569404  1
  O  O349  1  0.88638488  0.90319351  0.65846735  1
  O  O350  1  0.13141562  0.11322065  0.35651170  1
  O  O351  1  0.02230655  0.07859323  0.91559656  1
  O  O352  1  0.20258298  0.73574056  0.36311134  1
  O  O353  1  0.12781694  0.60465956  0.85700761  1
  O  O354  1  0.66816673  0.14019056  0.42163739  1
  O  O355  1  0.63528017  0.19828225  0.89174154  1
  O  O356  1  0.61004403  0.62210119  0.36126850  1
  O  O357  1  0.54314419  0.63559026  0.77820794  1
