# generated using pymatgen
data_V51Zn51O256
_symmetry_space_group_name_H-M   'P 1'
_cell_length_a   17.36429647
_cell_length_b   17.35330178
_cell_length_c   17.34369214
_cell_angle_alpha   89.85789685
_cell_angle_beta   89.37487988
_cell_angle_gamma   89.74156698
_symmetry_Int_Tables_number   1
_chemical_formula_structural   V51Zn51O256
_chemical_formula_sum   'V51 Zn51 O256'
_cell_volume   5225.75827925
_cell_formula_units_Z   1
loop_
 _symmetry_equiv_pos_site_id
 _symmetry_equiv_pos_as_xyz
  1  'x, y, z'
loop_
 _atom_site_type_symbol
 _atom_site_label
 _atom_site_symmetry_multiplicity
 _atom_site_fract_x
 _atom_site_fract_y
 _atom_site_fract_z
 _atom_site_occupancy
  V  V0  1  0.25138282  0.78835155  -0.01395141  1
  V  V1  1  0.36655527  0.37474352  0.49229614  1
  V  V2  1  0.67746760  0.16474295  -0.00402204  1
  V  V3  1  0.02414351  0.53772262  0.01978436  1
  V  V4  1  0.50848080  0.23802446  0.75818066  1
  V  V5  1  0.74330769  0.50931249  0.23387040  1
  V  V6  1  0.49873147  0.75976002  0.74511510  1
  V  V7  1  0.27894305  0.52226399  0.75179076  1
  V  V8  1  0.81304803  0.26707026  0.46423085  1
  V  V9  1  0.89258739  0.37602179  -0.01442869  1
  V  V10  1  0.61052087  0.49830451  0.11240564  1
  V  V11  1  0.01060049  0.11074907  0.10038324  1
  V  V12  1  0.38513518  0.50998234  0.37096449  1
  V  V13  1  0.24328630  0.47691697  0.25909723  1
  V  V14  1  0.77926898  0.40473853  0.64222834  1
  V  V15  1  0.88002940  0.21859536  0.63360939  1
  V  V16  1  0.36310601  0.64081937  0.23291950  1
  V  V17  1  0.74890565  0.76502624  0.49256728  1
  V  V18  1  0.60466847  0.74488144  0.39114741  1
  V  V19  1  0.87241556  0.51810076  0.82956936  1
  V  V20  1  0.25097080  0.24922112  0.56124239  1
  V  V21  1  0.53227820  0.12866774  0.63381685  1
  V  V22  1  0.36961212  -0.01538580  0.36806803  1
  V  V23  1  0.88359457  0.88157717  0.49181276  1
  V  V24  1  0.63471244  -0.03309909  0.58861985  1
  V  V25  1  0.64417223  0.84413186  0.22843634  1
  V  V26  1  0.13766182  0.45981578  0.13006011  1
  V  V27  1  0.21175513  0.63817247  0.87959636  1
  V  V28  1  0.85863326  0.00097382  0.37755813  1
  V  V29  1  0.49713993  0.75162096  0.21248500  1
  V  V30  1  0.72746851  0.01958816  0.24428046  1
  V  V31  1  0.65460276  0.59464815  -0.02280203  1
  V  V32  1  0.88451828  0.74041988  0.59602707  1
  V  V33  1  -0.01340839  -0.02447821  -0.02184647  1
  V  V34  1  0.30965791  0.21887078  0.06079219  1
  V  V35  1  0.35604896  0.14829132  0.29042311  1
  V  V36  1  0.10490819  -0.03559641  0.16719834  1
  V  V37  1  0.87731161  0.82977582  -0.00029111  1
  V  V38  1  0.50978602  -0.04290183  -0.03648287  1
  V  V39  1  0.72942238  0.61079683  0.40072945  1
  V  V40  1  0.12282521  0.26900989  0.85875049  1
  V  V41  1  0.45207014  0.33741505  0.88454333  1
  V  V42  1  0.25926852  0.87803983  0.16019194  1
  V  V43  1  0.75360022  0.37530496  0.08879419  1
  V  V44  1  0.11286276  0.23704552  0.37116616  1
  V  V45  1  0.01129819  0.78740261  0.67566255  1
  V  V46  1  0.26995054  0.74056297  0.52619920  1
  V  V47  1  0.50414914  0.27349331  0.22054767  1
  V  V48  1  0.12497033  0.47339593  0.60943171  1
  V  V49  1  -0.00988661  0.20270275  0.76281087  1
  V  V50  1  0.87992953  0.61834029  0.28792933  1
  Zn  Zn51  1  0.19094195  0.73557984  0.20232506  1
  Zn  Zn52  1  0.69964820  0.61766756  0.79017551  1
  Zn  Zn53  1  0.68822086  0.19650354  0.16515252  1
  Zn  Zn54  1  0.67047011  0.92636907  0.41211283  1
  Zn  Zn55  1  0.78814181  0.08901014  0.52397781  1
  Zn  Zn56  1  0.29961188  0.77972771  0.78449759  1
  Zn  Zn57  1  0.71649374  0.44229743  0.50649582  1
  Zn  Zn58  1  0.92060515  0.99685845  0.20470865  1
  Zn  Zn59  1  0.23610815  0.91212599  0.44706857  1
  Zn  Zn60  1  0.85937607  0.62432532  0.98422928  1
  Zn  Zn61  1  0.37004334  0.34211302  0.28260077  1
  Zn  Zn62  1  0.43825284  0.67654407  0.45122317  1
  Zn  Zn63  1  0.34841359  0.07628700  0.59412215  1
  Zn  Zn64  1  0.71268537  0.89956889  0.92728039  1
  Zn  Zn65  1  0.01658777  0.62489007  0.88407900  1
  Zn  Zn66  1  0.88897337  0.34635120  0.78407439  1
  Zn  Zn67  1  0.46330279  0.16733520  0.95234966  1
  Zn  Zn68  1  0.81338693  0.79959247  0.32518679  1
  Zn  Zn69  1  0.91177249  0.48583462  0.13756595  1
  Zn  Zn70  1  0.38284269  0.88114741  0.63856502  1
  Zn  Zn71  1  0.22941103  0.60320965  0.09051741  1
  Zn  Zn72  1  0.55181417  0.57190234  0.29561658  1
  Zn  Zn73  1  0.19627386  0.97087902  1.01252901  1
  Zn  Zn74  1  0.68513231  0.77746883  0.68016808  1
  Zn  Zn75  1  0.28299957  0.53100439  0.54444475  1
  Zn  Zn76  1  0.55639891  0.83359476  0.55300944  1
  Zn  Zn77  1  0.06418526  0.81032202  0.49239074  1
  Zn  Zn78  1  0.75102972  0.61222257  0.61050623  1
  Zn  Zn79  1  0.07883657  0.83824765  0.03667314  1
  Zn  Zn80  1  0.06991414  0.58847002  0.21636753  1
  Zn  Zn81  1  0.17312157  0.16239653  0.19901828  1
  Zn  Zn82  1  0.18707505  0.41206850  0.43422325  1
  Zn  Zn83  1  0.31347432  0.79171443  0.31321686  1
  Zn  Zn84  1  0.35690662  0.35431267  0.69386018  1
  Zn  Zn85  1  0.14278532  0.47190833  0.91220469  1
  Zn  Zn86  1  0.42541109  0.71301027  0.93559582  1
  Zn  Zn87  1  0.82479487  0.05687020  0.06781318  1
  Zn  Zn88  1  0.06021524  0.30896804  0.66569878  1
  Zn  Zn89  1  0.26446867  0.34768518  0.84559197  1
  Zn  Zn90  1  0.68935436  0.25465593  0.58713513  1
  Zn  Zn91  1  0.94118487  0.15797965  0.44753691  1
  Zn  Zn92  1  0.59269549  0.79234879  0.04346681  1
  Zn  Zn93  1  0.59355224  0.07094361  0.82795824  1
  Zn  Zn94  1  0.41617387  0.18529591  0.48596052  1
  Zn  Zn95  1  0.57966319  0.32010643  0.03794335  1
  Zn  Zn96  1  0.66436109  0.65163312  0.19739513  1
  Zn  Zn97  1  0.21019430  0.20652760  0.71992354  1
  Zn  Zn98  1  0.95233130  0.45248405  0.65812204  1
  Zn  Zn99  1  1.00228128  0.22330983  0.97269808  1
  Zn  Zn100  1  0.17190402  0.66814693  0.70044283  1
  Zn  Zn101  1  0.52688279  -0.04356591  0.27140135  1
  O  O102  1  0.10260765  0.08729076  0.14832499  1
  O  O103  1  0.06277612  0.05552717  0.62428116  1
  O  O104  1  0.14782849  0.64720466  0.16187474  1
  O  O105  1  0.10906541  0.57770215  0.66286237  1
  O  O106  1  0.63174970  0.14449189  0.08327784  1
  O  O107  1  0.60895674  0.17729596  0.59899457  1
  O  O108  1  0.63865456  0.60384401  0.09857196  1
  O  O109  1  0.68796625  0.66208348  0.69198460  1
  O  O110  1  0.37012858  0.39771210  0.37903784  1
  O  O111  1  0.35592435  0.33814023  0.90659223  1
  O  O112  1  0.32727382  0.89326202  0.36534645  1
  O  O113  1  0.31232826  0.90055636  0.83466135  1
  O  O114  1  0.91826828  0.44436387  0.40020186  1
  O  O115  1  0.88161765  0.42197326  0.88016355  1
  O  O116  1  0.84917702  0.88833037  0.38314378  1
  O  O117  1  0.81921574  0.86054436  0.92661366  1
  O  O118  1  0.28090120  0.01805529  0.44060874  1
  O  O119  1  0.22310836  0.05650441  0.94207490  1
  O  O120  1  0.23382099  0.48538886  0.35874972  1
  O  O121  1  0.22407138  0.52953370  0.85751635  1
  O  O122  1  0.73091709  -0.00403736  0.35376232  1
  O  O123  1  0.75768511  0.00882880  0.92550590  1
  O  O124  1  0.71005124  0.51804055  0.42290241  1
  O  O125  1  0.78025353  0.54394926  0.81277685  1
  O  O126  1  0.23700023  0.49719717  0.13950725  1
  O  O127  1  0.25738778  0.52754883  0.65196895  1
  O  O128  1  0.21188289  0.96957768  0.12645107  1
  O  O129  1  0.21649477  1.04543673  0.72712701  1
  O  O130  1  0.74602501  0.47589465  0.13533305  1
  O  O131  1  0.74437450  0.49945989  0.60997780  1
  O  O132  1  0.75966646  1.00323473  0.15051285  1
  O  O133  1  0.71489305  1.01985322  0.57338746  1
  O  O134  1  -0.05534610  0.40137037  0.25529387  1
  O  O135  1  -0.01734575  0.36726051  0.72410676  1
  O  O136  1  -0.05937193  0.87467344  0.25917065  1
  O  O137  1  0.02923471  0.87879278  0.66401415  1
  O  O138  1  0.48213328  0.36417191  0.24531216  1
  O  O139  1  0.43455012  0.31692515  0.76793271  1
  O  O140  1  0.51919981  0.84965555  0.23594980  1
  O  O141  1  0.46191668  0.85650371  0.71945883  1
  O  O142  1  0.50432214  0.06385188  0.20033483  1
  O  O143  1  0.54351182  0.12947116  0.74885078  1
  O  O144  1  0.47768543  0.64052462  0.24088570  1
  O  O145  1  0.51846207  0.66231142  0.73991554  1
  O  O146  1  0.94379565  0.23343297  0.24224092  1
  O  O147  1  0.99012393  0.11134752  0.78040436  1
  O  O148  1  0.97862961  0.60556630  0.28067016  1
  O  O149  1  0.96098361  0.75698695  0.84865897  1
  O  O150  1  0.40205625  0.18951184  0.03996193  1
  O  O151  1  0.42592208  0.29678177  0.47947143  1
  O  O152  1  0.34838848  0.75272598  -0.00583607  1
  O  O153  1  0.36995161  0.71685169  0.53589616  1
  O  O154  1  0.90305465  0.27989807  -0.02713015  1
  O  O155  1  0.89797224  0.24230187  0.52711964  1
  O  O156  1  0.88300306  0.73264550  -0.00736435  1
  O  O157  1  0.85458363  0.76493037  0.48064125  1
  O  O158  1  0.16090034  0.22357736  0.57767919  1
  O  O159  1  0.26636586  0.17570124  0.96941452  1
  O  O160  1  0.16809059  0.75756541  0.51745680  1
  O  O161  1  0.15275575  0.76823860  0.99374637  1
  O  O162  1  0.56727406  0.34842872  0.40590133  1
  O  O163  1  0.66004023  0.26211347  0.98487972  1
  O  O164  1  0.62136518  0.75947230  0.49184968  1
  O  O165  1  0.57739189  0.68336312  0.99213996  1
  O  O166  1  0.52230537  0.26864804  0.12546298  1
  O  O167  1  0.46866774  0.21037594  0.66581075  1
  O  O168  1  0.50659084  0.75187508  0.11566521  1
  O  O169  1  0.51986011  0.75697416  0.64418236  1
  O  O170  1  1.01742698  0.20755878  0.08569505  1
  O  O171  1  0.98835406  0.21758285  0.65043712  1
  O  O172  1  0.97921322  0.82135752  0.21945333  1
  O  O173  1  0.99366441  0.75173126  0.57470722  1
  O  O174  1  0.02226575  0.21260137  0.40065565  1
  O  O175  1  0.00907949  0.25468493  0.85495556  1
  O  O176  1  0.05475740  0.70930544  0.41363501  1
  O  O177  1  -0.00957777  0.81242398  0.81404716  1
  O  O178  1  0.53271354  0.20536207  0.31442904  1
  O  O179  1  0.48895691  0.23257630  0.86853857  1
  O  O180  1  0.50531940  0.74037079  0.39353650  1
  O  O181  1  0.47334281  0.76296421  0.84638360  1
  O  O182  1  0.31254192  0.16828839  0.54203606  1
  O  O183  1  0.27899890  0.09563903  0.97616583  1
  O  O184  1  0.25395244  0.63967164  0.50785442  1
  O  O185  1  0.22933241  0.62626856  0.97830893  1
  O  O186  1  0.74299147  0.19953466  0.50029173  1
  O  O187  1  0.77313724  0.13747435  1.01159611  1
  O  O188  1  0.73212103  0.64484295  0.49783323  1
  O  O189  1  0.75114962  0.60396262  0.98507696  1
  O  O190  1  0.26314027  0.31571798  0.03579849  1
  O  O191  1  0.26799156  0.33525094  0.49584637  1
  O  O192  1  0.25648507  0.88532923  -0.02891937  1
  O  O193  1  0.28864115  0.84021770  0.53990781  1
  O  O194  1  0.77066918  0.37699820  -0.00777735  1
  O  O195  1  0.77753594  0.35936923  0.46081606  1
  O  O196  1  0.79951519  0.84650708  0.08170503  1
  O  O197  1  0.73546459  0.86132975  0.48542127  1
  O  O198  1  0.13767230  0.48874075  0.24074032  1
  O  O199  1  0.11788162  0.51368951  0.71290622  1
  O  O200  1  0.11210419  0.96578095  0.26029256  1
  O  O201  1  0.19535805  1.07097465  0.79229333  1
  O  O202  1  0.63109652  0.52018250  0.22432656  1
  O  O203  1  0.58964402  0.50495524  0.67930757  1
  O  O204  1  0.63563556  0.95433677  0.24064573  1
  O  O205  1  0.66926945  0.99269929  0.77544831  1
  O  O206  1  0.34634499  0.04155516  0.28556369  1
  O  O207  1  0.32802165  -0.03412068  0.80911928  1
  O  O208  1  0.34309348  0.53127885  0.26673345  1
  O  O209  1  0.37023017  0.54084836  0.75513554  1
  O  O210  1  0.83637618  0.01829752  0.27093183  1
  O  O211  1  0.82099538  0.01536672  0.87579039  1
  O  O212  1  0.85249502  0.54368096  0.21595546  1
  O  O213  1  0.92207882  0.51914281  0.74514002  1
  O  O214  1  0.12496761  0.33452152  0.39210885  1
  O  O215  1  0.14641129  0.36641593  0.87579721  1
  O  O216  1  0.14094946  0.86902524  0.43620757  1
  O  O217  1  0.14541812  0.92295619  0.84655150  1
  O  O218  1  0.61187469  0.38968235  0.36946672  1
  O  O219  1  0.53312840  0.41713833  0.84236597  1
  O  O220  1  0.62205342  0.83906136  0.35222823  1
  O  O221  1  0.66870509  0.80672935  0.96388368  1
  O  O222  1  0.44046754  0.09191879  0.18078762  1
  O  O223  1  0.36802262  -0.01351381  0.64789499  1
  O  O224  1  0.33755561  0.63155788  0.14079863  1
  O  O225  1  0.45551266  0.57473220  0.58205084  1
  O  O226  1  0.91596222  0.09894008  0.13907884  1
  O  O227  1  0.84973322  0.12812679  0.62101379  1
  O  O228  1  0.82497443  0.68009591  0.12180290  1
  O  O229  1  0.86483805  0.64511206  0.59564828  1
  O  O230  1  0.26457229  0.16956602  0.13304837  1
  O  O231  1  0.28115284  0.27315563  0.65555362  1
  O  O232  1  0.25382463  0.79638672  0.09935499  1
  O  O233  1  0.25022350  0.72011514  0.62455654  1
  O  O234  1  0.74852582  0.28566703  0.13134122  1
  O  O235  1  0.79727809  0.27657925  0.64047073  1
  O  O236  1  0.76107590  0.71134875  0.12995626  1
  O  O237  1  0.76295176  0.75436439  0.59703908  1
  O  O238  1  0.20741880  0.21315265  0.42926886  1
  O  O239  1  0.22054510  0.24316364  0.82720608  1
  O  O240  1  0.28067856  0.75407515  0.42484332  1
  O  O241  1  0.25543969  0.74197781  0.87649413  1
  O  O242  1  0.84445577  0.24581762  0.37694271  1
  O  O243  1  0.73124177  0.20370734  0.79910912  1
  O  O244  1  0.73331352  0.73462504  0.38827693  1
  O  O245  1  0.75443006  0.73709478  0.82993466  1
  O  O246  1  0.00700072  0.08364006  0.00225473  1
  O  O247  1  0.02636285  0.08798739  0.50613836  1
  O  O248  1  0.03928728  0.63195476  0.01373432  1
  O  O249  1  0.05954001  0.53852688  0.41091148  1
  O  O250  1  0.48642497  0.05832906  -0.03732067  1
  O  O251  1  0.46501385  0.11246654  0.55779814  1
  O  O252  1  0.51127995  0.65127876  -0.03027350  1
  O  O253  1  0.49585014  0.61110538  0.53360665  1
  O  O254  1  0.53259628  0.43685303  0.52665143  1
  O  O255  1  0.49416626  0.34455654  0.97220481  1
  O  O256  1  0.44852955  0.85404480  0.55454049  1
  O  O257  1  0.52403760  0.85533766  0.97028879  1
  O  O258  1  0.96803387  0.39878081  0.42001602  1
  O  O259  1  0.98274378  0.40389442  1.00292457  1
  O  O260  1  0.98032695  0.88159127  0.47774104  1
  O  O261  1  0.97727650  0.85895045  0.98974990  1
  O  O262  1  0.48188092  0.50433019  0.35458537  1
  O  O263  1  0.46472772  0.44777829  0.84967349  1
  O  O264  1  0.46754787  0.97742844  0.35992346  1
  O  O265  1  0.52603799  0.97702633  0.85978435  1
  O  O266  1  1.00463556  0.36829996  0.27267199  1
  O  O267  1  1.03749295  0.51523376  0.91760128  1
  O  O268  1  0.95111314  1.00356940  0.35649293  1
  O  O269  1  0.97829808  0.98108772  0.88549646  1
  O  O270  1  0.00562717  -0.01950493  0.13745800  1
  O  O271  1  0.00959549  0.05612592  0.57502578  1
  O  O272  1  0.03203696  0.50793755  0.13288073  1
  O  O273  1  0.03169436  0.47418621  0.58018377  1
  O  O274  1  0.51323313  -0.02691189  0.06137586  1
  O  O275  1  0.56521538  0.02482475  0.63769231  1
  O  O276  1  0.51811526  0.49288068  0.12092469  1
  O  O277  1  0.53572393  0.45984032  0.68526026  1
  O  O278  1  0.27100236  0.38402988  0.24665566  1
  O  O279  1  0.28346844  0.41505422  0.75987564  1
  O  O280  1  0.22756113  0.82998155  0.24880965  1
  O  O281  1  0.14168333  0.90755838  0.77809165  1
  O  O282  1  0.75596914  0.43844409  0.29263429  1
  O  O283  1  0.79440420  0.39832727  0.73893646  1
  O  O284  1  0.73913901  0.83269542  0.24723199  1
  O  O285  1  0.69507889  0.92883297  0.80185780  1
  O  O286  1  0.26534065  0.17521492  0.28970847  1
  O  O287  1  0.24566383  0.10455244  0.67642728  1
  O  O288  1  0.27854137  0.67741096  0.27529792  1
  O  O289  1  0.24916392  0.63701171  0.77174695  1
  O  O290  1  0.69842970  0.11317120  0.24061313  1
  O  O291  1  0.71533731  0.15677156  0.74944859  1
  O  O292  1  0.73783065  0.60781406  0.27844255  1
  O  O293  1  0.75977182  0.78843840  0.77868841  1
  O  O294  1  0.39180451  0.15736669  0.38054606  1
  O  O295  1  0.35927099  0.11884442  0.85410100  1
  O  O296  1  0.37865606  0.60905289  0.39070554  1
  O  O297  1  0.37731324  0.60424522  0.90535628  1
  O  O298  1  0.84963667  0.09732338  0.42466033  1
  O  O299  1  0.82031346  0.07067346  0.82905019  1
  O  O300  1  0.83939406  0.59938421  0.38046164  1
  O  O301  1  0.90861130  0.60088014  0.88005178  1
  O  O302  1  0.13716447  0.36665950  0.13302502  1
  O  O303  1  0.14032103  0.37898574  0.63565386  1
  O  O304  1  0.10670539  0.86302498  0.14386705  1
  O  O305  1  0.16802634  0.93364419  0.62242807  1
  O  O306  1  0.64160655  0.39325408  0.09848732  1
  O  O307  1  0.69067726  0.36503991  0.59441978  1
  O  O308  1  0.64189278  0.83794765  0.13093715  1
  O  O309  1  0.64257536  0.87328485  0.63315517  1
  O  O310  1  0.11755228  0.22169848  0.27338524  1
  O  O311  1  0.10056053  0.23364222  0.75041185  1
  O  O312  1  0.01698786  0.77138717  0.25728050  1
  O  O313  1  0.09131211  0.74001049  0.70906010  1
  O  O314  1  0.61910128  0.26524839  0.24367626  1
  O  O315  1  0.58894904  0.28432351  0.74338354  1
  O  O316  1  0.60501164  0.73462604  0.24534042  1
  O  O317  1  0.58947999  0.78962461  0.77391966  1
  O  O318  1  0.40301487  0.23464168  0.24075811  1
  O  O319  1  0.38094275  0.11132867  0.78631812  1
  O  O320  1  0.39536438  0.75225683  0.24189667  1
  O  O321  1  0.39477259  0.73198744  0.74117160  1
  O  O322  1  0.89587024  0.26252199  0.20051702  1
  O  O323  1  0.88786426  0.23260185  0.75185499  1
  O  O324  1  0.86437949  0.71392048  0.27187137  1
  O  O325  1  0.90821903  0.75754370  0.69458218  1
  O  O326  1  0.36291187  0.48858280  0.47884177  1
  O  O327  1  0.39988855  0.54451934  0.93842002  1
  O  O328  1  0.35759640  1.01459194  0.47243953  1
  O  O329  1  0.41564727  0.93293819  0.95034337  1
  O  O330  1  1.00896622  0.56604605  0.45222305  1
  O  O331  1  0.91882273  0.54227813  1.03627744  1
  O  O332  1  0.85391298  0.97889721  0.49305890  1
  O  O333  1  0.89136860  0.97841997  1.01945846  1
  O  O334  1  0.08941671  -0.04843815  0.00112106  1
  O  O335  1  0.20117654  -0.02620336  0.57352514  1
  O  O336  1  0.12975806  0.49143056  0.02842576  1
  O  O337  1  0.18053508  0.48502877  0.52088952  1
  O  O338  1  0.61665960  -0.04071838  -0.04401025  1
  O  O339  1  0.59543394  -0.06028813  0.50005812  1
  O  O340  1  0.62160484  0.50236815  0.00039500  1
  O  O341  1  0.58562334  0.48192406  0.51153991  1
  O  O342  1  0.31884409  0.32439330  0.09037497  1
  O  O343  1  0.37843880  0.39200143  0.58943400  1
  O  O344  1  0.34895598  0.90247979  0.17050298  1
  O  O345  1  0.29710999  0.83851340  0.69375063  1
  O  O346  1  0.86422393  0.39173348  0.09473535  1
  O  O347  1  0.86782629  0.40844673  0.59736860  1
  O  O348  1  0.86712705  0.84007701  0.11572281  1
  O  O349  1  0.87065274  0.85658774  0.58841719  1
  O  O350  1  0.16635897  0.14845999  0.41836841  1
  O  O351  1  0.11642898  0.22239443  0.94410202  1
  O  O352  1  0.10808880  0.68956008  0.36941066  1
  O  O353  1  0.11712714  0.65678010  0.86110424  1
  O  O354  1  0.60955233  0.22077437  0.31310245  1
  O  O355  1  0.63198701  0.12130141  0.91615430  1
  O  O356  1  0.62295518  0.63748528  0.37287408  1
  O  O357  1  0.63785915  0.60397348  0.87945031  1
