# generated using pymatgen
data_V51Zn51O256
_symmetry_space_group_name_H-M   'P 1'
_cell_length_a   17.90373725
_cell_length_b   17.95811599
_cell_length_c   17.89180613
_cell_angle_alpha   90.35875717
_cell_angle_beta   88.03416449
_cell_angle_gamma   88.65104525
_symmetry_Int_Tables_number   1
_chemical_formula_structural   V51Zn51O256
_chemical_formula_sum   'V51 Zn51 O256'
_cell_volume   5747.40404211
_cell_formula_units_Z   1
loop_
 _symmetry_equiv_pos_site_id
 _symmetry_equiv_pos_as_xyz
  1  'x, y, z'
loop_
 _atom_site_type_symbol
 _atom_site_label
 _atom_site_symmetry_multiplicity
 _atom_site_fract_x
 _atom_site_fract_y
 _atom_site_fract_z
 _atom_site_occupancy
  V  V0  1  0.63496412  0.16484202  -0.01962905  1
  V  V1  1  0.86965727  0.30095091  0.16778407  1
  V  V2  1  0.76526465  0.16472761  0.84659453  1
  V  V3  1  0.02614914  -0.07030054  0.49606270  1
  V  V4  1  0.50485131  0.16538293  0.66347412  1
  V  V5  1  0.80285064  0.02679706  0.18303400  1
  V  V6  1  0.66894811  0.39911771  0.80496970  1
  V  V7  1  0.79903539  0.49558432  0.72255667  1
  V  V8  1  0.87324295  0.38262140  0.02219644  1
  V  V9  1  0.14711885  0.90294608  0.25999009  1
  V  V10  1  0.39887752  0.00839050  0.84055292  1
  V  V11  1  0.65027174  0.26555617  0.42689437  1
  V  V12  1  0.11543357  0.74434630  0.85192415  1
  V  V13  1  0.31995232  0.73943884  0.48710978  1
  V  V14  1  0.24079241  0.64066261  0.36426878  1
  V  V15  1  0.01314835  0.50362699  -0.01635929  1
  V  V16  1  0.89166793  0.11573870  0.72603921  1
  V  V17  1  0.62154727  0.64408088  0.01663444  1
  V  V18  1  0.35355356  0.56739266  0.23727283  1
  V  V19  1  0.64139603  0.64919594  0.34587271  1
  V  V20  1  0.52142605  0.31758941  0.32609978  1
  V  V21  1  0.21956825  0.21034205  0.01897924  1
  V  V22  1  0.51432404  0.49239658  0.51334869  1
  V  V23  1  0.23575726  0.80168649  -0.01603989  1
  V  V24  1  0.62011372  0.91443239  0.74994321  1
  V  V25  1  0.11540709  0.23515467  0.86767002  1
  V  V26  1  0.49854305  0.86452077  0.87401691  1
  V  V27  1  0.84842846  -0.00883000  0.85967703  1
  V  V28  1  0.37040347  0.61346616  0.79530651  1
  V  V29  1  0.15559523  0.37565231  0.78596319  1
  V  V30  1  -0.05615270  0.72550211  0.74425760  1
  V  V31  1  0.86698296  0.56146968  0.92109351  1
  V  V32  1  0.70649847  0.76514848  -0.04229172  1
  V  V33  1  0.76144123  0.79526489  0.40288407  1
  V  V34  1  0.19452997  0.14120273  0.57196368  1
  V  V35  1  0.39007862  0.24035169  0.06795215  1
  V  V36  1  0.36887850  0.77467285  0.11436993  1
  V  V37  1  0.65966320  0.04039011  0.65373767  1
  V  V38  1  0.73883183  0.08236052  0.38531993  1
  V  V39  1  0.35579474  0.28390069  0.65702921  1
  V  V40  1  0.23073700  0.43030058  0.61600271  1
  V  V41  1  0.27590088  0.86048653  0.62963846  1
  V  V42  1  0.12555650  0.65564255  0.02598981  1
  V  V43  1  -0.02039134  0.25062584  0.75161130  1
  V  V44  1  0.24199452  -0.02354573  0.76062796  1
  V  V45  1  0.27688177  0.12704050  0.85254744  1
  V  V46  1  0.57819791  -0.02796728  0.09467459  1
  V  V47  1  0.09526584  0.64866616  0.48820821  1
  V  V48  1  0.69408840  0.54071987  0.23921465  1
  V  V49  1  0.52497662  -0.00318393  0.54141411  1
  V  V50  1  -0.01027895  0.88438050  0.86521428  1
  Zn  Zn51  1  0.63720134  0.21548649  0.74214717  1
  Zn  Zn52  1  0.47327831  0.07882694  0.98380070  1
  Zn  Zn53  1  0.19046918  0.18303350  0.72747349  1
  Zn  Zn54  1  0.27421947  0.00816411  -0.02626520  1
  Zn  Zn55  1  0.55751413  0.32886681  0.00242812  1
  Zn  Zn56  1  0.22705574  0.68209568  0.16418060  1
  Zn  Zn57  1  0.53022205  0.80565640  0.04004210  1
  Zn  Zn58  1  0.69829439  0.50076919  0.55965554  1
  Zn  Zn59  1  0.10918543  0.73723300  0.31541974  1
  Zn  Zn60  1  0.22332732  0.87606773  0.44068539  1
  Zn  Zn61  1  0.81977901  0.07870809  -0.01001318  1
  Zn  Zn62  1  0.83207326  0.88489641  0.24155380  1
  Zn  Zn63  1  0.42222583  0.71860005  0.94753029  1
  Zn  Zn64  1  0.62760716  0.45056320  0.38593322  1
  Zn  Zn65  1  0.79838737  0.83412452  0.79929258  1
  Zn  Zn66  1  0.44160768  0.63763867  0.39093817  1
  Zn  Zn67  1  0.35404383  0.17972422  0.51624603  1
  Zn  Zn68  1  0.65338580  -0.03511155  0.26325987  1
  Zn  Zn69  1  0.98901486  0.96907159  0.17375005  1
  Zn  Zn70  1  0.51662629  0.47798396  0.23250923  1
  Zn  Zn71  1  0.77193047  0.60330910  0.06705570  1
  Zn  Zn72  1  0.97682082  0.45016485  0.79169173  1
  Zn  Zn73  1  0.70993187  0.46444365  0.97477043  1
  Zn  Zn74  1  0.49145918  0.29655230  0.52642921  1
  Zn  Zn75  1  0.80390432  0.45806832  0.16013916  1
  Zn  Zn76  1  0.25236966  0.35665767  0.12332059  1
  Zn  Zn77  1  0.34352738  0.08916014  0.67618104  1
  Zn  Zn78  1  0.26037519  0.61971834  0.60308730  1
  Zn  Zn79  1  0.10924027  0.76420668  0.67651832  1
  Zn  Zn80  1  0.33297772  0.10104939  0.10741424  1
  Zn  Zn81  1  0.66072062  0.11197428  0.15584297  1
  Zn  Zn82  1  0.57660109  0.09193913  0.82452098  1
  Zn  Zn83  1  0.11363019  0.30321891  0.60875711  1
  Zn  Zn84  1  0.67252306  0.93995395  0.93156129  1
  Zn  Zn85  1  0.95281459  0.75254565  0.41963121  1
  Zn  Zn86  1  0.75144844  0.34637573  0.29374791  1
  Zn  Zn87  1  0.16067452  0.04160169  0.40467473  1
  Zn  Zn88  1  0.55113287  0.54453905  0.82416048  1
  Zn  Zn89  1  0.34228725  0.41696314  0.74721968  1
  Zn  Zn90  1  0.06262741  0.06238957  0.79453877  1
  Zn  Zn91  1  0.32314871  0.81738266  0.83463606  1
  Zn  Zn92  1  0.67237883  0.96375606  0.46369437  1
  Zn  Zn93  1  0.25398817  0.53500487  0.07893381  1
  Zn  Zn94  1  0.84392434  0.33874598  0.82651472  1
  Zn  Zn95  1  0.06140912  0.84588854  0.04479212  1
  Zn  Zn96  1  0.35843462  0.26589843  0.23295837  1
  Zn  Zn97  1  0.30087026  0.77582028  0.29219496  1
  Zn  Zn98  1  0.16844687  0.38054808  0.98753737  1
  Zn  Zn99  1  0.40459984  0.94430336  0.04143142  1
  Zn  Zn100  1  0.43728340  0.90948999  0.69603712  1
  Zn  Zn101  1  0.78978325  0.67064470  0.79574649  1
  O  O102  1  0.02346281  0.08381783  0.20477809  1
  O  O103  1  0.14282353  0.12166049  0.65182357  1
  O  O104  1  0.12929443  0.66430013  0.12245237  1
  O  O105  1  0.14378702  0.64259395  0.58350686  1
  O  O106  1  0.61839731  0.16092356  0.07599470  1
  O  O107  1  0.64313429  0.13757532  0.66372433  1
  O  O108  1  0.58492782  0.65769385  0.09960364  1
  O  O109  1  0.66031448  0.61570577  0.60451231  1
  O  O110  1  0.43164262  0.30043426  0.30255284  1
  O  O111  1  0.38890680  0.30365594  0.88294533  1
  O  O112  1  0.38872145  0.99546434  0.34459102  1
  O  O113  1  0.40601555  0.89780149  0.84044512  1
  O  O114  1  0.85711355  0.34759086  0.35064542  1
  O  O115  1  0.87088136  0.37024031  0.93024269  1
  O  O116  1  0.77841534  0.83113930  0.31603057  1
  O  O117  1  0.88265318  0.89292763  0.83763701  1
  O  O118  1  0.24403933  -0.02557132  0.41084470  1
  O  O119  1  0.27837308  0.00857565  0.85882105  1
  O  O120  1  0.21408160  0.55671706  0.35153446  1
  O  O121  1  0.35407615  0.44039281  0.95270378  1
  O  O122  1  0.67225843  0.01546796  0.35449671  1
  O  O123  1  0.75368925  -0.02091540  0.86867797  1
  O  O124  1  0.66666779  0.54873282  0.34921242  1
  O  O125  1  0.79245741  0.50820793  0.90588074  1
  O  O126  1  0.21890836  0.43932769  0.06493942  1
  O  O127  1  0.23918872  0.52542178  0.63424372  1
  O  O128  1  0.31330244  1.00484605  0.07381385  1
  O  O129  1  0.25479908  0.95544481  0.65562607  1
  O  O130  1  0.76439663  0.56186645  0.16635698  1
  O  O131  1  0.77049421  0.48368443  0.63066573  1
  O  O132  1  0.81391416  1.04134520  0.08999501  1
  O  O133  1  0.74892131  1.02797429  0.64513328  1
  O  O134  1  -0.00322922  0.52272284  0.38238962  1
  O  O135  1  -0.05537197  0.34448612  0.78409760  1
  O  O136  1  0.05054903  0.92990058  0.26135312  1
  O  O137  1  -0.05246207  0.77800078  0.84488347  1
  O  O138  1  0.57885553  0.27212594  0.26810893  1
  O  O139  1  0.49623904  0.40805566  0.91109029  1
  O  O140  1  0.38329675  0.99886059  0.27633435  1
  O  O141  1  0.52591218  0.87645798  0.75463240  1
  O  O142  1  0.31963721  0.14487447  0.36635589  1
  O  O143  1  0.53257188  0.17243456  0.75753507  1
  O  O144  1  0.44883251  0.56017348  0.22317270  1
  O  O145  1  0.47107855  0.60263430  0.78004738  1
  O  O146  1  1.08625875  0.10847912  0.18728462  1
  O  O147  1  0.98807564  0.13758407  0.76001259  1
  O  O148  1  0.89166543  0.54530125  0.29941148  1
  O  O149  1  0.95015614  0.63779080  0.71926053  1
  O  O150  1  0.30859989  0.25176489  0.00340149  1
  O  O151  1  0.38642939  0.27409242  0.55738618  1
  O  O152  1  0.32891617  0.78148440  -0.05871777  1
  O  O153  1  0.41028991  0.72207035  0.45877541  1
  O  O154  1  0.87542319  0.29309388  0.06254491  1
  O  O155  1  0.95238781  0.27921553  0.39361899  1
  O  O156  1  0.90601557  0.73409727  0.01017142  1
  O  O157  1  0.84622331  0.76425184  0.43495368  1
  O  O158  1  0.18069618  0.23501421  0.55422971  1
  O  O159  1  0.13064058  0.21163400  0.96199504  1
  O  O160  1  0.12523629  0.71926192  0.57034098  1
  O  O161  1  0.14242450  0.76960903  1.02486401  1
  O  O162  1  0.66444646  0.27966515  0.51459263  1
  O  O163  1  0.62404105  0.25690343  0.95841271  1
  O  O164  1  0.63088358  0.65952910  0.55937038  1
  O  O165  1  0.60853102  0.74815970  0.97567226  1
  O  O166  1  0.47121535  0.28161764  0.03969430  1
  O  O167  1  0.53270061  0.23714163  0.60641178  1
  O  O168  1  0.44353140  0.73573228  0.05349712  1
  O  O169  1  0.48575789  0.71140645  0.62211971  1
  O  O170  1  0.93455802  0.24913737  0.20560916  1
  O  O171  1  1.02767858  0.26813299  0.67110288  1
  O  O172  1  0.99165463  0.77884215  0.11320035  1
  O  O173  1  1.00317920  0.77628270  0.68662856  1
  O  O174  1  0.08398726  0.38309265  0.47152066  1
  O  O175  1  0.02073379  0.24420007  0.85574831  1
  O  O176  1  0.00562839  0.74090389  0.32536549  1
  O  O177  1  -0.00055919  0.71726956  0.83616608  1
  O  O178  1  0.54589776  0.27540093  0.42049333  1
  O  O179  1  0.44432986  0.26654259  0.86409892  1
  O  O180  1  0.47174599  0.84407624  0.26982341  1
  O  O181  1  0.49270980  0.77024834  0.87314277  1
  O  O182  1  0.29437517  0.11655619  0.58106396  1
  O  O183  1  0.24486001  0.11721706  0.95095614  1
  O  O184  1  0.27844836  0.64976788  0.45738145  1
  O  O185  1  0.20750301  0.60878497  1.00775625  1
  O  O186  1  0.75354048  0.04483354  0.47056664  1
  O  O187  1  0.72972679  0.13796791  0.96259285  1
  O  O188  1  0.78376589  0.55453229  0.47027682  1
  O  O189  1  0.72967632  0.69595014  1.02409923  1
  O  O190  1  0.18075735  0.29674924  0.06027881  1
  O  O191  1  0.21551194  0.41414738  0.52855619  1
  O  O192  1  0.23039745  0.89437371  -0.01112429  1
  O  O193  1  0.28393626  0.84154025  0.52784914  1
  O  O194  1  0.78767037  0.42792009  0.05114932  1
  O  O195  1  0.88605579  0.27970822  0.37150086  1
  O  O196  1  0.72446875  0.85356770  -0.02012214  1
  O  O197  1  0.72295397  0.86519755  0.45821534  1
  O  O198  1  0.17118446  0.40270225  0.28478186  1
  O  O199  1  0.08298366  0.43972285  0.79380622  1
  O  O200  1  0.16090359  0.99264337  0.29742971  1
  O  O201  1  0.14920499  0.99387535  0.76736578  1
  O  O202  1  0.61655962  0.51439674  0.19971216  1
  O  O203  1  0.61531270  0.47398701  0.77490679  1
  O  O204  1  0.60557986  1.01887360  0.17906384  1
  O  O205  1  0.63171175  1.01639579  0.75839656  1
  O  O206  1  0.32700454  0.15724366  0.29539903  1
  O  O207  1  0.37127143  -0.00126105  0.73747949  1
  O  O208  1  0.32686910  0.48358310  0.25691444  1
  O  O209  1  0.37302747  0.51248682  0.79189376  1
  O  O210  1  0.89030490  -0.01931446  0.21331174  1
  O  O211  1  0.88348692  0.02447320  0.76721148  1
  O  O212  1  0.88777526  0.50213098  0.35237288  1
  O  O213  1  0.89317090  0.49026938  0.73472312  1
  O  O214  1  0.06378775  0.38823018  0.40481321  1
  O  O215  1  0.15240107  0.33611378  0.88636298  1
  O  O216  1  0.14635627  0.85552660  0.35163784  1
  O  O217  1  0.07425808  0.83590110  0.83061503  1
  O  O218  1  0.68182614  0.35003137  0.37964027  1
  O  O219  1  0.66625573  0.39905771  0.90078739  1
  O  O220  1  0.59331700  0.87303691  0.28049186  1
  O  O221  1  0.59179865  0.90454740  0.87108544  1
  O  O222  1  0.40240115  0.14882270  0.02495150  1
  O  O223  1  0.40491255  0.18291283  0.67458807  1
  O  O224  1  0.29896979  0.59557970  0.15433105  1
  O  O225  1  0.35460215  0.61935009  0.70043207  1
  O  O226  1  0.92929262  0.14627035  0.01345535  1
  O  O227  1  0.89833281  0.09975895  0.63730896  1
  O  O228  1  1.03422263  0.42394643  0.24593310  1
  O  O229  1  0.94613381  0.54962268  0.57263681  1
  O  O230  1  0.22753410  0.15733446  0.09447588  1
  O  O231  1  0.27255553  0.25020651  0.68373291  1
  O  O232  1  0.27650224  0.75799918  0.08076554  1
  O  O233  1  0.30701912  0.70845317  0.58042678  1
  O  O234  1  0.95907564  0.13771649  0.07439488  1
  O  O235  1  0.82143483  0.34453732  0.52812319  1
  O  O236  1  0.86275003  0.78795328  0.00762643  1
  O  O237  1  0.83450636  0.86610391  0.58850932  1
  O  O238  1  0.14674937  0.19875622  0.38732505  1
  O  O239  1  0.25904663  0.21868734  0.84447134  1
  O  O240  1  0.28225163  0.78666759  0.39833251  1
  O  O241  1  0.20164242  0.77819236  0.88854666  1
  O  O242  1  0.69452025  0.18246162  0.39534430  1
  O  O243  1  0.78586114  0.25610445  0.85686409  1
  O  O244  1  0.69472210  0.71358630  0.39527481  1
  O  O245  1  0.74008925  0.74677413  0.86692940  1
  O  O246  1  0.08607357  0.08073410  0.02264969  1
  O  O247  1  0.01799827  0.01325723  0.54743760  1
  O  O248  1  0.04613909  0.58542075  0.02459372  1
  O  O249  1  0.00329215  0.67580932  0.47996180  1
  O  O250  1  0.56512082  0.10984800  -0.06316588  1
  O  O251  1  0.45467845  0.12703852  0.48443127  1
  O  O252  1  0.53604314  0.61522959  -0.03252948  1
  O  O253  1  0.47523802  0.54786541  0.44775340  1
  O  O254  1  0.49165297  0.40176977  0.50245245  1
  O  O255  1  0.50202622  0.43413529  1.12363394  1
  O  O256  1  0.47778422  0.93474207  0.59452511  1
  O  O257  1  0.47913518  0.87911769  0.97154275  1
  O  O258  1  1.05156139  0.32808874  0.51294039  1
  O  O259  1  0.95367404  0.44267179  1.03708054  1
  O  O260  1  1.01191625  0.83928785  0.45144408  1
  O  O261  1  0.99949521  0.87328220  0.95822745  1
  O  O262  1  0.54200164  0.41774924  0.31956352  1
  O  O263  1  0.50762575  0.47735487  0.91572981  1
  O  O264  1  0.55726983  0.95031247  0.46322180  1
  O  O265  1  0.49050837  1.02303073  0.82621771  1
  O  O266  1  1.00795964  0.56409534  0.32946355  1
  O  O267  1  0.96097185  0.51360004  0.89698187  1
  O  O268  1  1.06679817  0.98574632  0.41952155  1
  O  O269  1  1.01092998  0.97352359  0.84061790  1
  O  O270  1  0.05353224  -0.06001090  0.09622236  1
  O  O271  1  0.01483988  -0.10741980  0.58486626  1
  O  O272  1  0.00771705  0.37079085  0.27862979  1
  O  O273  1  0.00002985  0.51728280  0.59849142  1
  O  O274  1  0.49115017  0.00981939  0.07041077  1
  O  O275  1  0.50527738  0.07766475  0.62396827  1
  O  O276  1  0.55211258  0.46715836  0.07935926  1
  O  O277  1  0.52628383  0.53703911  0.61015507  1
  O  O278  1  0.25357635  0.31582965  0.23493374  1
  O  O279  1  0.24146850  0.41456051  0.78954563  1
  O  O280  1  0.24292329  0.87480352  0.26484755  1
  O  O281  1  0.25646113  0.88632997  0.78827941  1
  O  O282  1  0.74072615  0.45284021  0.25899150  1
  O  O283  1  0.76887391  0.41200364  0.77628007  1
  O  O284  1  0.74757559  0.94717365  0.20019054  1
  O  O285  1  0.70032402  0.86329086  0.76807489  1
  O  O286  1  0.14843169  0.13263500  0.34254579  1
  O  O287  1  0.25879656  0.09489772  0.75274462  1
  O  O288  1  0.21373195  0.70032221  0.27536977  1
  O  O289  1  0.27864112  0.60082404  0.82767453  1
  O  O290  1  0.74695153  0.10373926  0.21300878  1
  O  O291  1  0.78911715  0.14228082  0.75306358  1
  O  O292  1  0.67047090  0.64774943  0.25272113  1
  O  O293  1  0.75969341  0.57777681  0.75435917  1
  O  O294  1  0.32133770  0.20668243  0.41164239  1
  O  O295  1  0.37447259  0.11492611  0.84539682  1
  O  O296  1  0.34618741  0.62883999  0.32383125  1
  O  O297  1  0.39764206  0.62555903  0.89211089  1
  O  O298  1  0.81915878  0.07611299  0.33717944  1
  O  O299  1  0.84101149  0.10574667  0.87951217  1
  O  O300  1  0.83209001  0.59971476  0.48756795  1
  O  O301  1  0.85992620  0.64139381  0.87287489  1
  O  O302  1  0.22359108  0.35967947  0.30038530  1
  O  O303  1  0.15668344  0.38251994  0.66986096  1
  O  O304  1  0.17018269  0.92751028  0.16912590  1
  O  O305  1  0.20259261  0.81207859  0.66505291  1
  O  O306  1  0.60393013  0.41660341  0.04481815  1
  O  O307  1  0.80030334  0.39405613  0.48603722  1
  O  O308  1  0.57031487  0.87794655  0.10750825  1
  O  O309  1  0.63019389  0.92664755  0.65554704  1
  O  O310  1  0.13639345  0.25751455  0.35198206  1
  O  O311  1  0.13785766  0.27618707  0.76673979  1
  O  O312  1  0.11409699  0.81508057  0.22737005  1
  O  O313  1  0.13856208  0.70429242  0.76841247  1
  O  O314  1  0.49391646  0.11520335  0.27343444  1
  O  O315  1  0.64283722  0.31841159  0.76378007  1
  O  O316  1  0.51743593  0.89532667  0.27948479  1
  O  O317  1  0.52372821  0.73128530  0.67459315  1
  O  O318  1  0.37964381  0.18522345  0.15687911  1
  O  O319  1  0.40406630  0.32686083  0.72743803  1
  O  O320  1  0.36326422  0.74741533  0.20731280  1
  O  O321  1  0.36113966  0.71261854  0.79373379  1
  O  O322  1  0.78105164  0.28812875  0.20841435  1
  O  O323  1  0.89156429  0.22822830  0.72505008  1
  O  O324  1  0.89514637  0.79955084  0.19773156  1
  O  O325  1  0.84296456  0.75010542  0.74046133  1
  O  O326  1  0.45509728  0.51362563  0.60308403  1
  O  O327  1  0.36722783  0.49036191  0.99833384  1
  O  O328  1  0.45081744  1.05333420  0.48143816  1
  O  O329  1  0.39671539  1.00679936  0.94303934  1
  O  O330  1  0.91452941  0.43773189  0.48774494  1
  O  O331  1  0.86689688  0.58238551  1.01575823  1
  O  O332  1  0.93620170  0.94081965  0.46292051  1
  O  O333  1  0.88259758  0.99291729  0.94782963  1
  O  O334  1  0.05792163  0.04231018  -0.02515657  1
  O  O335  1  0.12562961  -0.09899176  0.49838716  1
  O  O336  1  0.08900254  0.45364796  -0.03846496  1
  O  O337  1  0.09627865  0.55751465  0.47835104  1
  O  O338  1  0.64189681  -0.00880710  0.02420409  1
  O  O339  1  0.62336915  0.02577571  0.55696371  1
  O  O340  1  0.67914620  0.56066519  0.01990718  1
  O  O341  1  0.61859480  0.48602187  0.49438065  1
  O  O342  1  0.35320561  0.31889665  0.12720155  1
  O  O343  1  0.32013971  0.38928931  0.63849853  1
  O  O344  1  0.38606105  0.86625599  0.11568335  1
  O  O345  1  0.35850254  0.83931886  0.67209033  1
  O  O346  1  0.88927478  0.39632796  0.17688393  1
  O  O347  1  0.92806719  0.39099013  0.53513938  1
  O  O348  1  0.94473190  0.82826241  0.14706520  1
  O  O349  1  0.84910868  0.90684760  0.64151296  1
  O  O350  1  0.16388897  0.09246950  0.49766070  1
  O  O351  1  0.13335401  0.14285314  0.82886540  1
  O  O352  1  0.14714336  0.68649157  0.40609310  1
  O  O353  1  0.09911006  0.67998338  0.92523928  1
  O  O354  1  0.49301220  0.11288486  0.34199027  1
  O  O355  1  0.66636976  0.15881567  0.83488317  1
  O  O356  1  0.54744431  0.65879067  0.35746927  1
  O  O357  1  0.58553988  0.61064773  0.90461172  1
