# generated using pymatgen
data_V51Zn51O256
_symmetry_space_group_name_H-M   'P 1'
_cell_length_a   17.24589729
_cell_length_b   17.34434104
_cell_length_c   17.23136987
_cell_angle_alpha   92.33206428
_cell_angle_beta   90.40580385
_cell_angle_gamma   90.55237300
_symmetry_Int_Tables_number   1
_chemical_formula_structural   V51Zn51O256
_chemical_formula_sum   'V51 Zn51 O256'
_cell_volume   5149.57309138
_cell_formula_units_Z   1
loop_
 _symmetry_equiv_pos_site_id
 _symmetry_equiv_pos_as_xyz
  1  'x, y, z'
loop_
 _atom_site_type_symbol
 _atom_site_label
 _atom_site_symmetry_multiplicity
 _atom_site_fract_x
 _atom_site_fract_y
 _atom_site_fract_z
 _atom_site_occupancy
  V  V0  1  0.11720712  0.03699457  0.68980252  1
  V  V1  1  0.76035340  0.48646936  0.75657005  1
  V  V2  1  0.73589887  0.90882271  0.11023645  1
  V  V3  1  0.62227870  0.26154818  0.37820438  1
  V  V4  1  0.64001322  0.04165993  0.64179944  1
  V  V5  1  0.24801210  0.73254758  0.48626552  1
  V  V6  1  -0.00168370  0.00935476  0.00148423  1
  V  V7  1  -0.01476154  0.52953459  0.01872056  1
  V  V8  1  0.01083069  0.84310148  0.86640662  1
  V  V9  1  -0.03715077  0.37700867  0.92225373  1
  V  V10  1  0.65814089  0.91620461  0.27907979  1
  V  V11  1  0.37989104  0.48789794  0.32445495  1
  V  V12  1  0.10350224  0.38124574  0.72896997  1
  V  V13  1  0.13558013  0.00047113  0.10701048  1
  V  V14  1  0.36532218  0.86969234  -0.02029733  1
  V  V15  1  0.12044735  0.87159022  0.24555644  1
  V  V16  1  0.40699937  0.50810421  0.86650230  1
  V  V17  1  0.54810766  0.77333672  0.26044546  1
  V  V18  1  0.15034668  0.50687128  0.09660492  1
  V  V19  1  0.71831755  0.62994925  0.87639602  1
  V  V20  1  0.92174388  0.16038236  0.64582153  1
  V  V21  1  0.12560551  0.71204127  0.35076078  1
  V  V22  1  0.85564480  0.26257002  0.14825740  1
  V  V23  1  0.54043614  0.62433391  0.12648299  1
  V  V24  1  0.11049418  0.07365025  0.50681887  1
  V  V25  1  0.63274472  0.26441504  0.90943901  1
  V  V26  1  0.23824739  0.84637187  0.09579126  1
  V  V27  1  0.62256652  0.58694028  0.48485295  1
  V  V28  1  0.24194269  0.31652260  0.50210723  1
  V  V29  1  0.74486229  0.85193301  0.65252262  1
  V  V30  1  0.50401417  0.92303846  0.89213641  1
  V  V31  1  0.74841047  0.03721747  0.76301183  1
  V  V32  1  0.62463799  0.35735641  0.72921036  1
  V  V33  1  0.55217170  0.07723746  0.08278571  1
  V  V34  1  0.51071509  0.87329769  0.40771374  1
  V  V35  1  0.14478642  0.73798436  0.87052839  1
  V  V36  1  0.60585122  0.86143576  0.76666549  1
  V  V37  1  0.87285406  0.78609126  0.09046999  1
  V  V38  1  -0.01517118  -0.04959013  0.46314793  1
  V  V39  1  0.36646895  0.65892578  0.23945910  1
  V  V40  1  0.75650968  0.15074417  0.91667296  1
  V  V41  1  0.86342711  0.39467362  0.48659816  1
  V  V42  1  0.85213916  0.63344137  0.20902191  1
  V  V43  1  0.85959417  -0.00833227  0.89108836  1
  V  V44  1  0.32753535  0.12190377  0.73531902  1
  V  V45  1  0.34719095  0.02358548  0.29780867  1
  V  V46  1  0.52944767  0.22137989  0.73674703  1
  V  V47  1  0.88464124  0.12466049  0.26897774  1
  V  V48  1  0.48051098  0.34046103  0.88677464  1
  V  V49  1  0.86093976  0.63851740  0.75994715  1
  V  V50  1  0.01530420  0.15082079  0.13854324  1
  Zn  Zn51  1  0.50397137  0.43959441  0.19930290  1
  Zn  Zn52  1  0.53607025  0.12108958  0.88488113  1
  Zn  Zn53  1  0.00648946  0.07355305  0.79582727  1
  Zn  Zn54  1  0.57358303  0.05446196  0.36911335  1
  Zn  Zn55  1  0.73208079  0.68525350  0.06589905  1
  Zn  Zn56  1  0.41421824  0.43924041  0.52737131  1
  Zn  Zn57  1  0.47444917  0.43114884  0.70290891  1
  Zn  Zn58  1  0.97598468  0.76676909  0.26730862  1
  Zn  Zn59  1  0.65034212  0.91505901  0.47573709  1
  Zn  Zn60  1  0.67350189  0.97214579  0.94404542  1
  Zn  Zn61  1  0.15420193  0.89113751  0.46162514  1
  Zn  Zn62  1  0.40094470  0.84984723  0.20381451  1
  Zn  Zn63  1  0.60709044  0.48664374  0.86084710  1
  Zn  Zn64  1  0.90841300  0.68492808  0.93489405  1
  Zn  Zn65  1  0.27604175  0.83598797  0.30783945  1
  Zn  Zn66  1  0.92576190  0.93959736  0.70810712  1
  Zn  Zn67  1  0.03592167  0.59385419  0.21160688  1
  Zn  Zn68  1  0.48703170  1.01405477  0.72858976  1
  Zn  Zn69  1  0.83161841  0.07865537  0.08028625  1
  Zn  Zn70  1  0.21731146  0.15710387  0.37440322  1
  Zn  Zn71  1  0.02537100  0.02228312  0.27422454  1
  Zn  Zn72  1  0.82552102  0.30431837  0.33184755  1
  Zn  Zn73  1  0.30174915  0.30165261  0.30788853  1
  Zn  Zn74  1  0.93309371  0.19600213  0.96766406  1
  Zn  Zn75  1  0.82867299  -0.01803977  0.57563672  1
  Zn  Zn76  1  0.95450739  0.20183546  0.45070428  1
  Zn  Zn77  1  0.36898188  0.00189731  0.11226189  1
  Zn  Zn78  1  0.58463850  0.57925756  0.29257764  1
  Zn  Zn79  1  0.17532796  0.68196368  0.66627100  1
  Zn  Zn80  1  0.18760492  0.68701220  0.18434141  1
  Zn  Zn81  1  0.61610593  0.78635728  0.56966553  1
  Zn  Zn82  1  0.79596634  0.32645435  0.82947910  1
  Zn  Zn83  1  0.02511289  0.55115967  0.83100162  1
  Zn  Zn84  1  0.33226590  0.52924439  0.14589386  1
  Zn  Zn85  1  0.72693201  0.46605792  0.35773016  1
  Zn  Zn86  1  0.42985744  0.68066406  0.96895988  1
  Zn  Zn87  1  0.06260316  0.34342239  0.08610095  1
  Zn  Zn88  1  0.79083034  0.55862678  0.59478339  1
  Zn  Zn89  1  0.76470402  0.78228607  0.23453735  1
  Zn  Zn90  1  0.90218056  0.91532052  0.20683804  1
  Zn  Zn91  1  0.53033256  0.29240654  0.07110655  1
  Zn  Zn92  1  0.78623615  0.80946173  0.83128702  1
  Zn  Zn93  1  0.05838082  0.81761523  1.02864578  1
  Zn  Zn94  1  0.43579918  0.68038639  0.40645703  1
  Zn  Zn95  1  0.88917172  0.46222265  0.13389403  1
  Zn  Zn96  1  0.43100404  0.30014885  0.41202545  1
  Zn  Zn97  1  0.70143861  0.16073581  0.20210789  1
  Zn  Zn98  1  0.54069856  0.89703725  0.10025475  1
  Zn  Zn99  1  0.81435868  0.51547657  -0.06264111  1
  Zn  Zn100  1  0.52879298  0.30065770  0.56109086  1
  Zn  Zn101  1  0.27801299  0.34769858  0.84928205  1
  O  O102  1  0.10537397  0.10176866  0.12397191  1
  O  O103  1  0.12225634  0.10588605  0.60446350  1
  O  O104  1  0.24009133  0.60769132  -0.04956016  1
  O  O105  1  0.08732337  0.60536897  0.60461242  1
  O  O106  1  0.61197218  0.11774480  0.15380717  1
  O  O107  1  0.65041330  0.13346508  0.63242113  1
  O  O108  1  0.63220403  0.65791305  0.10991161  1
  O  O109  1  0.58925809  0.52730157  0.55308150  1
  O  O110  1  0.39040957  0.36977849  0.32638135  1
  O  O111  1  0.38732687  0.33140486  0.85280762  1
  O  O112  1  0.41879050  0.88194501  0.42670213  1
  O  O113  1  0.40548897  0.87547646  0.88380660  1
  O  O114  1  0.88452768  0.40655450  0.38272011  1
  O  O115  1  0.86552461  0.38552757  0.90018143  1
  O  O116  1  0.83249171  0.94480137  0.35176584  1
  O  O117  1  0.83958013  0.89667084  0.89152320  1
  O  O118  1  0.35535738  0.03413852  0.52320439  1
  O  O119  1  0.22135219  0.10552588  0.93946246  1
  O  O120  1  0.28553128  0.48820035  0.32011912  1
  O  O121  1  0.30129284  0.47060696  0.88872581  1
  O  O122  1  0.81028961  0.00297544  0.38524062  1
  O  O123  1  0.75199218  0.03421545  0.88359461  1
  O  O124  1  0.79620162  0.54890308  0.37157667  1
  O  O125  1  0.72917486  0.49034477  0.86377157  1
  O  O126  1  0.24935891  0.50722821  0.07878619  1
  O  O127  1  0.33462501  0.49740381  0.57275805  1
  O  O128  1  0.23049026  1.00914663  0.10059070  1
  O  O129  1  0.17121026  0.96100430  0.67466593  1
  O  O130  1  0.70928240  0.41801809  0.11961933  1
  O  O131  1  0.72986652  0.49533486  0.65797486  1
  O  O132  1  0.75950208  1.00564977  0.12147264  1
  O  O133  1  0.74197264  0.99707797  0.65773418  1
  O  O134  1  0.07269012  0.40247707  0.29853869  1
  O  O135  1  0.02468683  0.35864118  0.67238590  1
  O  O136  1  0.01821052  0.87233708  0.23395855  1
  O  O137  1  -0.03796169  0.87459664  0.78910574  1
  O  O138  1  0.52915369  0.34001795  0.16848824  1
  O  O139  1  0.50965843  0.33083416  0.75775102  1
  O  O140  1  0.54635404  0.88413727  0.30124522  1
  O  O141  1  0.50997722  0.91154177  0.77358404  1
  O  O142  1  0.46635248  0.06311297  0.31730721  1
  O  O143  1  0.51640731  0.12542449  0.76874864  1
  O  O144  1  0.54107155  0.66785824  0.23668526  1
  O  O145  1  0.39369590  0.73109371  0.77091022  1
  O  O146  1  1.01188845  0.13260855  0.23927042  1
  O  O147  1  0.97968998  0.15545126  0.72567126  1
  O  O148  1  0.94859694  0.65269424  0.24668292  1
  O  O149  1  0.95740653  0.61318224  0.77557488  1
  O  O150  1  0.32112772  0.17828296  0.08413011  1
  O  O151  1  0.34600601  0.34416944  0.48101969  1
  O  O152  1  0.40296812  0.78024071  0.00694068  1
  O  O153  1  0.34026276  0.70177034  0.45905655  1
  O  O154  1  0.88190126  0.25400812  0.05144316  1
  O  O155  1  0.86772664  0.29140128  0.44746836  1
  O  O156  1  0.85071570  0.76405755  -0.00552167  1
  O  O157  1  0.80841372  0.75665999  0.46851342  1
  O  O158  1  0.15702130  0.27021248  0.52829479  1
  O  O159  1  0.13446118  0.30663153  0.99128363  1
  O  O160  1  0.14990682  0.69593360  0.45332215  1
  O  O161  1  0.12020036  0.74202962  0.96794234  1
  O  O162  1  0.62292045  0.27562362  0.48084567  1
  O  O163  1  0.62200103  0.27181603  1.00654554  1
  O  O164  1  0.62151406  0.67494679  0.54340326  1
  O  O165  1  0.61621260  0.76792605  0.99538549  1
  O  O166  1  0.49253329  0.17437051  0.07388809  1
  O  O167  1  0.52806015  0.21795079  0.64022949  1
  O  O168  1  0.50255395  0.81065441  0.17304420  1
  O  O169  1  0.43403896  0.66902431  0.61802326  1
  O  O170  1  1.03526048  0.24614402  0.13103249  1
  O  O171  1  0.95996737  0.19548690  0.56116627  1
  O  O172  1  0.97321280  0.78157657  0.09114108  1
  O  O173  1  0.92909015  0.72514229  0.56931444  1
  O  O174  1  0.02146986  0.27409806  0.40975043  1
  O  O175  1  -0.01875762  0.27980004  0.91022126  1
  O  O176  1  0.03701555  0.75683213  0.36376276  1
  O  O177  1  -0.01664643  0.75111912  0.88368457  1
  O  O178  1  0.52318810  0.26791063  0.34909044  1
  O  O179  1  0.52410007  0.23984812  0.87729491  1
  O  O180  1  0.50031794  0.76135361  0.35432819  1
  O  O181  1  0.57406065  0.74191439  0.94332699  1
  O  O182  1  0.26495810  0.21575865  0.46769344  1
  O  O183  1  0.25703433  0.18245005  1.11424730  1
  O  O184  1  0.23381380  0.56350090  0.44450727  1
  O  O185  1  0.28389309  0.64399516  0.99468340  1
  O  O186  1  0.74525829  0.05146279  0.51024648  1
  O  O187  1  0.75769020  0.13992366  1.01214291  1
  O  O188  1  0.72329860  0.59437434  0.51068703  1
  O  O189  1  0.73789915  0.61139917  0.97805157  1
  O  O190  1  0.26246964  0.30946576  -0.03920835  1
  O  O191  1  0.20053291  0.40609077  0.50142944  1
  O  O192  1  0.26269077  0.85638332  -0.00938785  1
  O  O193  1  0.24249396  0.83127225  0.48739300  1
  O  O194  1  0.74589539  0.39672869  0.06241972  1
  O  O195  1  0.75887684  0.41176714  0.45341384  1
  O  O196  1  0.71252945  0.89678589  0.01391351  1
  O  O197  1  0.71406703  0.86438199  0.55132037  1
  O  O198  1  0.12970073  0.59459191  0.15009228  1
  O  O199  1  0.08424874  0.47857115  0.76927281  1
  O  O200  1  0.11403618  0.98009524  0.21035011  1
  O  O201  1  0.11979378  1.07332778  0.78575402  1
  O  O202  1  0.67304229  0.51391435  0.27558168  1
  O  O203  1  0.58897216  0.45316683  0.74810800  1
  O  O204  1  0.64107851  1.01341961  0.28830351  1
  O  O205  1  0.64394133  1.02709368  0.75355030  1
  O  O206  1  0.34997204  -0.07955427  0.28857364  1
  O  O207  1  0.37708868  0.03775412  0.73997451  1
  O  O208  1  0.39510657  0.47252015  0.21320381  1
  O  O209  1  0.40020964  0.48623981  0.76916896  1
  O  O210  1  0.91059039  0.02170526  0.24459607  1
  O  O211  1  0.85048840  0.00203491  0.78077491  1
  O  O212  1  0.83434326  0.53652675  0.20183793  1
  O  O213  1  0.85529438  0.47877920  0.75441198  1
  O  O214  1  0.09108319  0.46258100  0.33476655  1
  O  O215  1  0.04477666  0.37075033  0.81807303  1
  O  O216  1  0.14798145  0.88898990  0.33958104  1
  O  O217  1  0.10955748  0.83253099  0.83809185  1
  O  O218  1  0.62760595  0.35886478  0.36222742  1
  O  O219  1  0.61085981  0.35909412  0.88002732  1
  O  O220  1  0.68835007  0.89334557  0.37073746  1
  O  O221  1  0.61113260  0.90681482  0.87276597  1
  O  O222  1  0.34917118  0.05832026  0.20632121  1
  O  O223  1  0.37916989  0.17216268  0.65424260  1
  O  O224  1  0.41517729  0.62875730  0.15652256  1
  O  O225  1  0.31918897  0.59180696  0.69883596  1
  O  O226  1  0.89902282  0.14609778  0.14817185  1
  O  O227  1  0.87373957  0.07726857  0.62487563  1
  O  O228  1  0.84419486  0.67352203  0.11572148  1
  O  O229  1  0.85432005  0.62122990  0.65710743  1
  O  O230  1  0.20680674  0.32690245  0.01161886  1
  O  O231  1  0.28097046  0.32173373  0.59443412  1
  O  O232  1  0.23242659  0.75025047  0.10090190  1
  O  O233  1  0.23953091  0.70343203  0.58259081  1
  O  O234  1  0.75803514  0.24355685  0.15269278  1
  O  O235  1  0.85054669  0.24037032  0.68704509  1
  O  O236  1  0.75241924  0.78948777  0.11684536  1
  O  O237  1  0.75215688  0.75808501  0.65084293  1
  O  O238  1  0.22854795  0.33130357  0.39341667  1
  O  O239  1  0.27162712  0.21249501  0.81545403  1
  O  O240  1  0.22513743  0.74847039  0.34624221  1
  O  O241  1  0.23906133  0.74047493  0.86216776  1
  O  O242  1  0.72953715  0.24913357  0.37997766  1
  O  O243  1  0.74157345  0.25863217  0.89909743  1
  O  O244  1  0.85136536  0.73723557  0.41489759  1
  O  O245  1  0.72102403  0.72820153  0.87394888  1
  O  O246  1  -0.00936559  0.11681685  0.02571473  1
  O  O247  1  0.01214716  0.04205168  0.50722908  1
  O  O248  1  -0.01701659  0.62296140  -0.00210177  1
  O  O249  1  -0.02510491  0.73183196  0.51642663  1
  O  O250  1  0.48352484  0.12527138  0.00668265  1
  O  O251  1  0.46931539  0.22998774  0.49061671  1
  O  O252  1  0.49910009  0.62837505  0.03523164  1
  O  O253  1  0.52285763  0.61025388  0.45983081  1
  O  O254  1  0.49774345  0.37752575  0.47643542  1
  O  O255  1  0.47165913  0.33707584  0.98464687  1
  O  O256  1  0.56221444  0.82805096  0.48371652  1
  O  O257  1  0.51726231  0.89376013  0.98780564  1
  O  O258  1  0.96006729  0.40619046  0.50858706  1
  O  O259  1  0.98341644  0.39054809  1.02143683  1
  O  O260  1  1.04697467  0.87988149  0.49297562  1
  O  O261  1  1.00503165  0.89655599  0.95822726  1
  O  O262  1  0.51372707  0.49174499  0.30218054  1
  O  O263  1  0.49469646  0.45349537  0.88726484  1
  O  O264  1  0.55331202  0.96959983  0.43361924  1
  O  O265  1  0.49166062  1.01948598  0.89494078  1
  O  O266  1  0.98170417  0.58655209  0.39945708  1
  O  O267  1  0.98736781  0.48613842  0.91171657  1
  O  O268  1  0.99698131  0.96737047  0.36666539  1
  O  O269  1  0.96438447  1.01977478  0.88305707  1
  O  O270  1  -0.00992840  -0.01799191  0.09325181  1
  O  O271  1  0.01709443  0.00105268  0.68982812  1
  O  O272  1  -0.00848399  0.52167258  0.12548454  1
  O  O273  1  0.01922613  0.59899129  0.62762356  1
  O  O274  1  0.49375460  0.00333517  0.12219207  1
  O  O275  1  0.54453053  0.01178961  0.62989839  1
  O  O276  1  0.55087908  0.52992570  0.14913872  1
  O  O277  1  0.47113386  0.49727439  0.61227713  1
  O  O278  1  0.30100543  0.32447928  0.17385643  1
  O  O279  1  0.19913550  0.38357431  0.78321407  1
  O  O280  1  0.22032601  0.86771438  0.20406234  1
  O  O281  1  0.09372397  0.78099299  0.63188948  1
  O  O282  1  0.76348418  0.38394986  0.29063820  1
  O  O283  1  0.72821653  0.37655671  0.75474518  1
  O  O284  1  0.75407553  0.89942710  0.23612462  1
  O  O285  1  0.72036755  0.87187440  0.76315367  1
  O  O286  1  0.26686062  0.05884619  0.34245115  1
  O  O287  1  0.24013581  0.10427342  0.69916071  1
  O  O288  1  0.27570914  0.62261175  0.21704096  1
  O  O289  1  0.25334122  0.60153862  0.72676115  1
  O  O290  1  0.78570856  0.11427201  0.25903304  1
  O  O291  1  0.76138851  0.13029226  0.76250562  1
  O  O292  1  0.78265445  0.67651603  0.26604985  1
  O  O293  1  0.75283001  0.59915359  0.76961203  1
  O  O294  1  0.41515378  0.06825594  0.37725009  1
  O  O295  1  0.31414571  0.15847722  0.84613862  1
  O  O296  1  0.40006728  0.60488492  0.32020385  1
  O  O297  1  0.41602234  0.60563586  0.88408769  1
  O  O298  1  0.90564446  0.13844467  0.36818525  1
  O  O299  1  0.85478580  0.15067282  0.89336674  1
  O  O300  1  1.00669298  0.58378474  0.46626957  1
  O  O301  1  0.84372922  0.61194937  0.87524405  1
  O  O302  1  0.12617895  0.42151421  0.13923215  1
  O  O303  1  0.14285244  0.42882913  0.65220156  1
  O  O304  1  0.13636541  0.88484810  0.08616533  1
  O  O305  1  0.03223642  0.79403048  0.66625877  1
  O  O306  1  0.58907896  0.44728322  0.03545572  1
  O  O307  1  0.61479252  0.34673259  0.63188574  1
  O  O308  1  0.63837585  0.90588529  0.15548012  1
  O  O309  1  0.61869278  0.85392251  0.66158248  1
  O  O310  1  0.23123294  0.22042776  0.28602525  1
  O  O311  1  0.13437377  0.28635273  0.72157162  1
  O  O312  1  0.11825195  0.76126866  0.23724101  1
  O  O313  1  0.11400474  0.68662002  0.76467616  1
  O  O314  1  0.64352888  0.22541864  0.28079388  1
  O  O315  1  0.62828961  0.25169362  0.75948687  1
  O  O316  1  0.64635957  0.78279209  0.26160249  1
  O  O317  1  0.58285922  0.77384115  0.78761877  1
  O  O318  1  0.36842387  0.22205497  0.35347197  1
  O  O319  1  0.39810759  0.21468501  0.72017718  1
  O  O320  1  0.36145399  0.75845903  0.25672995  1
  O  O321  1  0.34799563  0.77243863  0.73818825  1
  O  O322  1  0.88041024  0.23944305  0.25946550  1
  O  O323  1  0.87461847  0.27449505  0.75175197  1
  O  O324  1  0.88040269  0.80256536  0.22033786  1
  O  O325  1  0.85493094  0.73584183  0.77656704  1
  O  O326  1  0.40647534  0.49179551  0.42452918  1
  O  O327  1  0.35081282  0.47046198  0.95301441  1
  O  O328  1  0.42012608  1.05694013  0.54212032  1
  O  O329  1  0.37660065  0.96718428  1.00709168  1
  O  O330  1  0.85274118  0.49092983  0.52195468  1
  O  O331  1  0.88076271  0.50540771  1.02521947  1
  O  O332  1  0.89101908  0.93364959  0.49417288  1
  O  O333  1  0.87412143  1.01474855  0.99234624  1
  O  O334  1  0.10108069  0.01004682  0.00214984  1
  O  O335  1  0.17156702  0.00014879  0.48904089  1
  O  O336  1  0.09821138  0.51068569  0.01015604  1
  O  O337  1  0.16522739  0.55268937  0.45671673  1
  O  O338  1  0.61312939  0.03788209  0.01495052  1
  O  O339  1  0.67389797  0.02671403  0.52305921  1
  O  O340  1  0.62975542  0.49072196  -0.00198382  1
  O  O341  1  0.63657182  0.49990391  0.42595220  1
  O  O342  1  0.35590324  0.31044493  0.12969652  1
  O  O343  1  0.44496590  0.36104534  0.61300133  1
  O  O344  1  0.33837302  0.88005771  0.11710146  1
  O  O345  1  0.46327410  0.73389772  0.61345980  1
  O  O346  1  0.87241550  0.36103111  0.16844797  1
  O  O347  1  0.83207656  0.34878435  0.56676205  1
  O  O348  1  0.85317065  0.88932829  0.10135492  1
  O  O349  1  0.84347760  0.88839100  0.64805508  1
  O  O350  1  0.12085497  0.13385888  0.42844519  1
  O  O351  1  0.18896395  0.16315637  0.96522814  1
  O  O352  1  0.10933459  0.62333785  0.30628518  1
  O  O353  1  0.12053020  0.63345934  0.82663283  1
  O  O354  1  0.59898400  0.15935066  0.40042801  1
  O  O355  1  0.64640702  0.15380642  0.89479005  1
  O  O356  1  0.63456592  0.63357897  0.38934687  1
  O  O357  1  0.62236799  0.60107689  0.86710354  1
