# generated using pymatgen
data_V51Zn51O256
_symmetry_space_group_name_H-M   'P 1'
_cell_length_a   18.13624887
_cell_length_b   17.85441586
_cell_length_c   18.01109689
_cell_angle_alpha   88.94660855
_cell_angle_beta   91.06030776
_cell_angle_gamma   89.18010704
_symmetry_Int_Tables_number   1
_chemical_formula_structural   V51Zn51O256
_chemical_formula_sum   'V51 Zn51 O256'
_cell_volume   5829.60144058
_cell_formula_units_Z   1
loop_
 _symmetry_equiv_pos_site_id
 _symmetry_equiv_pos_as_xyz
  1  'x, y, z'
loop_
 _atom_site_type_symbol
 _atom_site_label
 _atom_site_symmetry_multiplicity
 _atom_site_fract_x
 _atom_site_fract_y
 _atom_site_fract_z
 _atom_site_occupancy
  V  V0  1  0.95178831  0.77433886  0.08797897  1
  V  V1  1  0.67015897  0.17217295  0.38687980  1
  V  V2  1  0.14028288  0.04139748  0.63668035  1
  V  V3  1  0.49475833  0.30345284  0.59874322  1
  V  V4  1  0.64733800  0.31395557  0.82441108  1
  V  V5  1  0.10121907  0.43597444  0.73944953  1
  V  V6  1  0.76069877  0.35569880  0.14295546  1
  V  V7  1  0.11015344  0.24265735  0.87437424  1
  V  V8  1  -0.00045047  0.26374972  0.72994045  1
  V  V9  1  0.17995212  0.74789993  0.33316113  1
  V  V10  1  0.45643494  0.69880600  0.25664724  1
  V  V11  1  0.74416396  0.59651365  0.36258763  1
  V  V12  1  -0.03685421  0.48308490  0.49768516  1
  V  V13  1  0.56975565  0.84567941  0.23086292  1
  V  V14  1  0.45891912  0.64519604  0.65527326  1
  V  V15  1  0.90294825  0.42915439  -0.07424405  1
  V  V16  1  0.84453189  0.36383019  0.45538660  1
  V  V17  1  0.08562618  0.90916922  0.25524649  1
  V  V18  1  0.37029298  0.15157039  0.81586370  1
  V  V19  1  -0.01281739  0.19123579  0.09231744  1
  V  V20  1  0.53889894  0.36741634  0.32235627  1
  V  V21  1  0.78645233  0.17146740  0.53639715  1
  V  V22  1  0.24885567  0.26650472  0.49256704  1
  V  V23  1  0.35410669  0.75069040  0.14562737  1
  V  V24  1  0.80824731  -0.05366825  0.22150973  1
  V  V25  1  0.10836163  0.51115104  0.09229193  1
  V  V26  1  0.20967241  0.81720937  0.48677698  1
  V  V27  1  0.20742487  0.96110833  0.77069525  1
  V  V28  1  0.55955329  0.89745629  0.78177309  1
  V  V29  1  0.50610492  0.88907039  0.39457432  1
  V  V30  1  0.00017693  0.75173714  0.25458914  1
  V  V31  1  0.13182450  -0.02206016  0.07656501  1
  V  V32  1  0.79594367  0.03844584  0.36605835  1
  V  V33  1  0.28457993  0.79002050  -0.01387657  1
  V  V34  1  0.14676925  0.15692174  0.01134022  1
  V  V35  1  0.68126078  0.86459884  0.66126900  1
  V  V36  1  0.88297765  0.12780721  0.78370918  1
  V  V37  1  0.37810837  0.07028297  0.97993680  1
  V  V38  1  0.61457721  0.06381197  0.07777163  1
  V  V39  1  0.84228446  0.89453858  -0.03116839  1
  V  V40  1  0.66154727  0.46643855  0.60674384  1
  V  V41  1  0.23673612  0.01325570  0.26349666  1
  V  V42  1  -0.00184238  -0.01229682  -0.05705691  1
  V  V43  1  0.94762591  0.84747408  0.51270745  1
  V  V44  1  0.09368289  0.18476318  0.40971067  1
  V  V45  1  0.25944542  0.37033644  0.66837562  1
  V  V46  1  -0.01510749  0.75801628  0.75121806  1
  V  V47  1  0.90144084  0.09590266  0.24116259  1
  V  V48  1  0.31461638  0.39258087  0.00637989  1
  V  V49  1  0.75334678  0.73540235  -0.03118271  1
  V  V50  1  0.40421133  0.55900868  0.79901580  1
  Zn  Zn51  1  -0.03483161  0.27016932  0.53649552  1
  Zn  Zn52  1  0.93031085  0.90839752  0.32956345  1
  Zn  Zn53  1  0.13319904  0.41059035  0.55433898  1
  Zn  Zn54  1  0.82033910  0.52886710  0.53394762  1
  Zn  Zn55  1  0.41778858  0.66674774  0.99207026  1
  Zn  Zn56  1  0.16742690  0.50973739  0.90327840  1
  Zn  Zn57  1  0.21027825  0.18167755  0.73687456  1
  Zn  Zn58  1  0.05257743  0.33154555  0.03619150  1
  Zn  Zn59  1  0.34629590  0.20710361  0.64476816  1
  Zn  Zn60  1  0.59293497  0.73331339  0.07899393  1
  Zn  Zn61  1  0.67148973  0.34339147  0.47825000  1
  Zn  Zn62  1  0.91889744  0.43218420  0.08739451  1
  Zn  Zn63  1  0.27521668  0.31589655  0.83886002  1
  Zn  Zn64  1  0.35606639  0.79439930  0.38580419  1
  Zn  Zn65  1  0.14947797  1.00434982  0.43540924  1
  Zn  Zn66  1  0.52524401  0.80013961  0.56881748  1
  Zn  Zn67  1  0.39924964  0.99444797  0.77028049  1
  Zn  Zn68  1  0.11621513  0.59747219  0.25876986  1
  Zn  Zn69  1  0.30900915  0.55670500  0.10362009  1
  Zn  Zn70  1  0.96111873  0.95107503  0.11415979  1
  Zn  Zn71  1  0.13577409  0.86195568  0.92358995  1
  Zn  Zn72  1  0.20608621  0.20216284  0.26961658  1
  Zn  Zn73  1  0.68313205  0.87974348  1.07479595  1
  Zn  Zn74  1  0.06590456  0.09278659  0.78687873  1
  Zn  Zn75  1  0.51069429  0.24586820  0.76164931  1
  Zn  Zn76  1  0.28138066  0.10864260  0.12627766  1
  Zn  Zn77  1  0.00007808  0.56809522  0.82486545  1
  Zn  Zn78  1  0.92698910  0.67196742  0.42485384  1
  Zn  Zn79  1  0.67426231  0.27196415  0.66299310  1
  Zn  Zn80  1  0.59897742  0.29653213  0.14979233  1
  Zn  Zn81  1  0.11154736  0.85906084  0.62944922  1
  Zn  Zn82  1  0.35025664  0.31054898  0.32230573  1
  Zn  Zn83  1  0.64576535  0.68307471  0.24644585  1
  Zn  Zn84  1  0.76229438  0.31734099  0.32163370  1
  Zn  Zn85  1  0.92379947  0.24571896  0.91525906  1
  Zn  Zn86  1  0.30202085  0.93219679  1.09347839  1
  Zn  Zn87  1  0.39072677  0.90458508  0.25006957  1
  Zn  Zn88  1  0.53928089  0.43667957  0.72924979  1
  Zn  Zn89  1  0.71972635  0.17545227  0.20140150  1
  Zn  Zn90  1  0.41268136  0.47074992  0.63393487  1
  Zn  Zn91  1  0.63135245  -0.00261176  0.31498368  1
  Zn  Zn92  1  0.90782872  0.19718695  0.39613504  1
  Zn  Zn93  1  0.51001605  0.26320491  0.42733477  1
  Zn  Zn94  1  0.72970650  0.41680497  0.97464271  1
  Zn  Zn95  1  0.79666226  0.80571685  0.81109616  1
  Zn  Zn96  1  0.79820916  -0.03284409  0.54292260  1
  Zn  Zn97  1  0.88635866  0.61683300  -0.01704232  1
  Zn  Zn98  1  0.51852604  0.03176734  0.89172475  1
  Zn  Zn99  1  0.48183789  0.18639761  1.07542950  1
  Zn  Zn100  1  0.58372021  0.73058390  0.71969112  1
  Zn  Zn101  1  0.82298226  0.30178450  0.79843461  1
  O  O102  1  0.07360135  0.14688140  0.07977214  1
  O  O103  1  0.20180524  0.11251342  0.65431262  1
  O  O104  1  0.07143067  0.59984369  0.08224500  1
  O  O105  1  0.09749873  0.65656759  0.55674260  1
  O  O106  1  0.67870647  0.10083831  0.13926502  1
  O  O107  1  0.58686551  0.05937647  0.64323703  1
  O  O108  1  0.63231367  0.64442091  0.14451022  1
  O  O109  1  0.54831417  0.63567672  0.69205738  1
  O  O110  1  0.45347696  0.31581277  0.34245141  1
  O  O111  1  0.33355613  0.38068775  0.90760105  1
  O  O112  1  0.41167457  0.88667270  0.35741054  1
  O  O113  1  0.30026351  0.79386938  0.69132507  1
  O  O114  1  0.85939279  0.29492658  0.38023980  1
  O  O115  1  0.95042730  0.47380314  0.85939643  1
  O  O116  1  0.95828851  0.89253018  0.42946218  1
  O  O117  1  0.83039165  0.88415069  0.87416389  1
  O  O118  1  0.22589160  0.03253535  0.35402467  1
  O  O119  1  0.32005116  -0.20745808  0.75653328  1
  O  O120  1  0.18547017  0.43062104  0.33406704  1
  O  O121  1  0.31860416  0.53847607  0.81013115  1
  O  O122  1  0.79371023  -0.02920366  0.43119088  1
  O  O123  1  0.70493354  0.05300057  0.83220631  1
  O  O124  1  0.79495732  0.52418697  0.33170098  1
  O  O125  1  0.72105977  0.60765984  0.77699940  1
  O  O126  1  0.20346019  0.53671910  0.08654356  1
  O  O127  1  0.32811188  0.41065788  0.61679580  1
  O  O128  1  0.21147096  0.98385096  0.13514124  1
  O  O129  1  0.31944846  0.94177862  0.59821504  1
  O  O130  1  0.90630311  0.57855651  0.20941107  1
  O  O131  1  0.74479249  0.50919341  0.60206380  1
  O  O132  1  0.75900999  0.90795143  0.15297225  1
  O  O133  1  0.71544574  0.91584563  0.59072682  1
  O  O134  1  0.02701791  0.46365219  0.30912832  1
  O  O135  1  0.05490159  0.34945458  0.74398206  1
  O  O136  1  -0.00732011  0.86130479  0.25152271  1
  O  O137  1  -0.03993358  0.85091310  0.77152099  1
  O  O138  1  0.58322480  0.32974875  0.24658222  1
  O  O139  1  0.56022219  0.35496928  0.79787157  1
  O  O140  1  0.49148527  0.89654979  0.21605466  1
  O  O141  1  0.47460413  0.92026528  0.74357587  1
  O  O142  1  0.57672049  0.08780923  0.26092141  1
  O  O143  1  0.45217920  0.07360837  0.81540441  1
  O  O144  1  0.47584653  0.61008770  0.26106638  1
  O  O145  1  0.40187261  0.64232757  0.73528771  1
  O  O146  1  0.94808666  0.14423178  0.30626543  1
  O  O147  1  0.97411716  0.16231999  0.75848678  1
  O  O148  1  1.04691802  0.67198559  0.22816616  1
  O  O149  1  0.98695830  0.65484216  0.74880791  1
  O  O150  1  0.29129249  0.29864370  0.00802361  1
  O  O151  1  0.45571213  0.28848521  0.51278220  1
  O  O152  1  0.36013901  0.74670194  -0.05508823  1
  O  O153  1  0.30328981  0.80027401  0.47780639  1
  O  O154  1  0.86880681  0.34168009  -0.10968731  1
  O  O155  1  0.87793517  0.19816505  0.52310998  1
  O  O156  1  0.83196704  0.78896628  -0.01539893  1
  O  O157  1  0.93176947  0.75302780  0.49449579  1
  O  O158  1  0.17029001  0.20884360  0.46917133  1
  O  O159  1  0.10436315  0.25498713  0.98417790  1
  O  O160  1  0.15976636  0.74865818  0.43010722  1
  O  O161  1  0.20341312  0.77901459  0.93699204  1
  O  O162  1  0.71246840  0.21210163  0.46678827  1
  O  O163  1  0.67573726  0.22114764  0.89141782  1
  O  O164  1  0.50582172  0.61552881  0.44174457  1
  O  O165  1  0.67996091  0.77474181  1.02394196  1
  O  O166  1  0.53813327  0.27234981  0.07207832  1
  O  O167  1  0.59833810  0.10012453  0.58937560  1
  O  O168  1  0.45080952  0.74267857  0.14829839  1
  O  O169  1  0.45681451  0.73179442  0.60970692  1
  O  O170  1  1.00713399  0.27917574  0.12144145  1
  O  O171  1  1.01031606  0.25582810  0.63592380  1
  O  O172  1  1.04081503  0.78836595  0.09656786  1
  O  O173  1  0.96320130  0.74950934  0.65566144  1
  O  O174  1  0.00835854  0.21954901  0.44442517  1
  O  O175  1  0.01516027  0.26433633  0.86043567  1
  O  O176  1  -0.03843560  0.72584775  0.33548280  1
  O  O177  1  0.04226958  0.73768918  0.83012497  1
  O  O178  1  0.57773205  0.18379886  0.39754051  1
  O  O179  1  0.60626032  0.23750498  0.90104753  1
  O  O180  1  0.42906855  0.72658178  0.34397022  1
  O  O181  1  0.47918220  0.84142420  0.94397850  1
  O  O182  1  0.31179170  0.21334302  0.54283054  1
  O  O183  1  0.22385626  0.17777585  1.06001986  1
  O  O184  1  0.11254546  0.60644380  0.60251927  1
  O  O185  1  0.22473059  0.60722932  0.93195793  1
  O  O186  1  0.78033475  0.07653823  0.54866687  1
  O  O187  1  0.65707468  0.09376007  0.98226872  1
  O  O188  1  0.75746207  0.59568116  0.46261066  1
  O  O189  1  0.78128164  0.64600946  0.99235008  1
  O  O190  1  0.23562030  0.43730127  -0.04330129  1
  O  O191  1  0.21318428  0.34504193  0.53952136  1
  O  O192  1  0.30522510  0.88271291  -0.00180863  1
  O  O193  1  0.18297823  0.90346402  0.45233528  1
  O  O194  1  0.81000486  0.46813446  -0.06849835  1
  O  O195  1  0.74754740  0.37581997  0.41236743  1
  O  O196  1  0.76117029  0.92437906  0.00038641  1
  O  O197  1  0.76602323  0.78790965  0.48953307  1
  O  O198  1  0.13007351  0.51421931  0.18988141  1
  O  O199  1  0.03991366  0.50783130  0.73360395  1
  O  O200  1  0.06938273  0.95256458  0.16272627  1
  O  O201  1  0.17102892  1.04558581  0.79349925  1
  O  O202  1  0.62101225  0.51400012  0.15272520  1
  O  O203  1  0.63266538  0.47151072  0.69623138  1
  O  O204  1  0.63661643  0.90597844  0.25710471  1
  O  O205  1  0.65525257  1.08601639  0.79750010  1
  O  O206  1  0.32712584  -0.00837448  0.24874673  1
  O  O207  1  0.33192748  0.09048142  0.89288228  1
  O  O208  1  0.36370756  0.42586473  0.24269815  1
  O  O209  1  0.44584375  0.48891651  0.74279501  1
  O  O210  1  0.88840101  -0.00413637  0.18111005  1
  O  O211  1  0.89485953  0.04614357  0.82284899  1
  O  O212  1  0.88084187  0.51843728  0.18638048  1
  O  O213  1  0.86469271  0.47522999  0.71946547  1
  O  O214  1  0.13473148  0.38593509  0.33982299  1
  O  O215  1  0.15438234  0.45488930  0.81569382  1
  O  O216  1  0.05915014  0.96783737  0.31938007  1
  O  O217  1  0.17623974  0.89317566  0.82825317  1
  O  O218  1  0.58760721  0.34563846  0.40990342  1
  O  O219  1  0.67815485  0.37171300  0.89422969  1
  O  O220  1  0.55891453  0.82945090  0.34478475  1
  O  O221  1  0.57392161  0.94415517  0.86274093  1
  O  O222  1  0.46782412  0.14523894  0.27676868  1
  O  O223  1  0.35626554  0.12881602  0.72173861  1
  O  O224  1  0.36912963  0.63774235  0.08233110  1
  O  O225  1  0.43487185  0.57195086  0.59879271  1
  O  O226  1  0.94555484  0.13053594  0.15881512  1
  O  O227  1  0.85037688  0.11231094  0.68147170  1
  O  O228  1  0.78289367  0.73282559  0.16919333  1
  O  O229  1  0.84888541  0.64061927  0.58764792  1
  O  O230  1  0.38149400  0.16795875  0.13797952  1
  O  O231  1  0.25716728  0.27188234  0.67184607  1
  O  O232  1  0.27719292  0.74772789  0.07710985  1
  O  O233  1  0.18682285  0.80466853  0.57837220  1
  O  O234  1  0.71062297  0.26874434  0.14239396  1
  O  O235  1  0.74990588  0.21199355  0.61218657  1
  O  O236  1  0.73622467  0.76336404  0.20837803  1
  O  O237  1  0.61380422  0.79520477  0.63195191  1
  O  O238  1  0.29098927  0.29663297  0.41456961  1
  O  O239  1  0.16951440  0.31343240  0.86052176  1
  O  O240  1  0.26200815  0.78964189  0.32363453  1
  O  O241  1  0.29300844  0.61568968  0.93135717  1
  O  O242  1  0.82220375  0.12295128  0.40307546  1
  O  O243  1  0.72414207  0.31974290  0.76059577  1
  O  O244  1  0.67089633  0.67148627  0.35754701  1
  O  O245  1  0.73842609  0.74084443  0.87346821  1
  O  O246  1  -0.06092764  0.19629160  0.00976456  1
  O  O247  1  -0.04937796  0.03742916  0.56681718  1
  O  O248  1  -0.06224962  0.69332017  0.03929189  1
  O  O249  1  -0.03748951  0.57016619  0.44895245  1
  O  O250  1  0.52980191  0.09338945  0.10904483  1
  O  O251  1  0.37953419  0.05977723  0.41986857  1
  O  O252  1  0.52655783  0.67686825  0.01256608  1
  O  O253  1  0.48892004  0.55144915  0.42669183  1
  O  O254  1  0.58035850  0.26401256  0.59890043  1
  O  O255  1  0.40632194  0.37663842  1.02838853  1
  O  O256  1  0.50708363  0.86230432  0.48834313  1
  O  O257  1  0.48028724  0.85773433  1.00950185  1
  O  O258  1  0.94933577  0.37057875  0.48721494  1
  O  O259  1  0.96576047  0.38436952  0.99483364  1
  O  O260  1  1.02737808  0.86660480  0.56507298  1
  O  O261  1  1.03573841  0.90424586  0.91700344  1
  O  O262  1  0.52308257  0.45669499  0.30757103  1
  O  O263  1  0.45581399  0.53233281  0.88977133  1
  O  O264  1  0.54623369  0.97492793  0.38186453  1
  O  O265  1  0.44743173  1.00639850  0.96716492  1
  O  O266  1  1.05256460  0.52576849  0.32670382  1
  O  O267  1  0.93409025  0.62090534  0.88945481  1
  O  O268  1  0.97520545  1.05250904  0.50592392  1
  O  O269  1  1.02900012  1.05825341  0.88589227  1
  O  O270  1  0.02728246  -0.00084955  0.03864933  1
  O  O271  1  0.05852740  0.05892523  0.67878982  1
  O  O272  1  0.01547955  0.48458378  0.11442669  1
  O  O273  1  -0.07694972  0.50657733  0.57848589  1
  O  O274  1  0.50437507  0.08453916  0.27934890  1
  O  O275  1  0.44206961  0.04254088  0.56331038  1
  O  O276  1  0.58471468  0.57323164  0.15040246  1
  O  O277  1  0.60108432  0.54875130  0.55910180  1
  O  O278  1  0.27279151  0.27838574  0.26132045  1
  O  O279  1  0.28409744  0.38783169  0.75707551  1
  O  O280  1  0.18383056  0.92646349  0.26010417  1
  O  O281  1  0.30280669  0.96028152  0.76504367  1
  O  O282  1  0.75672737  0.38220584  0.23409067  1
  O  O283  1  0.83899996  0.53514456  0.73925800  1
  O  O284  1  0.83948586  0.87366450  0.27567762  1
  O  O285  1  0.74811914  0.82289604  0.71575161  1
  O  O286  1  0.22496524  0.10712030  0.21978934  1
  O  O287  1  0.28611562  0.21155125  0.81584763  1
  O  O288  1  0.31665145  0.54311319  0.21331825  1
  O  O289  1  0.19758023  0.62463352  0.73788130  1
  O  O290  1  0.74597734  0.00404971  0.27800762  1
  O  O291  1  0.79157801  0.11016032  0.72579174  1
  O  O292  1  0.73849507  0.62571939  0.26499190  1
  O  O293  1  0.80390343  0.68117706  0.62001665  1
  O  O294  1  0.37161257  0.22506453  0.18817638  1
  O  O295  1  0.41801650  0.15447005  0.99518809  1
  O  O296  1  0.31899056  0.48022270  0.25740174  1
  O  O297  1  0.43850677  0.60877106  0.88949190  1
  O  O298  1  0.88287822  0.01603646  0.31763952  1
  O  O299  1  0.84926237  0.19727056  0.84551353  1
  O  O300  1  0.82220282  0.65748695  0.37982967  1
  O  O301  1  0.70312422  0.64656215  0.72244441  1
  O  O302  1  0.11755064  0.40833375  0.08873337  1
  O  O303  1  0.16673167  0.42366724  0.65968773  1
  O  O304  1  0.14881081  0.90134311  0.02875313  1
  O  O305  1  0.16597493  0.94349844  0.67657628  1
  O  O306  1  0.71255025  0.41366462  0.07773709  1
  O  O307  1  0.67361783  0.37150953  0.58209358  1
  O  O308  1  0.60535208  0.82015789  0.14143411  1
  O  O309  1  0.63066528  0.92800044  0.71758252  1
  O  O310  1  0.11601590  0.21561497  0.32184386  1
  O  O311  1  0.11051545  0.20041440  0.77750739  1
  O  O312  1  0.10774971  0.79877194  0.28061965  1
  O  O313  1  0.07031998  0.79191577  0.71144419  1
  O  O314  1  0.70327866  0.21974853  0.30729082  1
  O  O315  1  0.61475395  0.23319441  0.75182604  1
  O  O316  1  0.55441366  0.73693065  0.25171067  1
  O  O317  1  0.57085075  0.80114452  0.79434108  1
  O  O318  1  0.42389857  0.27207597  0.19228876  1
  O  O319  1  0.43329902  0.22184057  0.82887161  1
  O  O320  1  0.34558332  0.70253982  0.22676543  1
  O  O321  1  0.22210206  0.67346401  0.77818771  1
  O  O322  1  0.81717123  0.13656292  0.23543756  1
  O  O323  1  0.91255085  0.29742962  0.73587678  1
  O  O324  1  0.92758056  0.75057032  0.18445658  1
  O  O325  1  0.89203700  0.75104738  0.78382253  1
  O  O326  1  0.49853936  0.39937443  0.62570506  1
  O  O327  1  0.34097377  0.48953655  1.02501021  1
  O  O328  1  0.36043619  1.01072621  0.46352702  1
  O  O329  1  0.32941810  1.03773295  1.06074235  1
  O  O330  1  0.86034147  0.46591353  0.45331870  1
  O  O331  1  0.89846444  0.50972978  1.00979008  1
  O  O332  1  0.87413474  0.89082228  0.55650723  1
  O  O333  1  0.90237112  0.97820674  0.95912254  1
  O  O334  1  0.15518969  0.05292150  0.01448561  1
  O  O335  1  0.13125060  0.02638426  0.54393225  1
  O  O336  1  0.10473542  0.50495152  -0.00717371  1
  O  O337  1  0.05876982  0.46602167  0.51307845  1
  O  O338  1  0.61847974  -0.03122199  0.07699330  1
  O  O339  1  0.46489656  0.10045447  0.53435651  1
  O  O340  1  0.57297618  0.55489288  -0.01195876  1
  O  O341  1  0.59548375  0.48617652  0.52010182  1
  O  O342  1  0.27348160  0.38797973  0.09254225  1
  O  O343  1  0.44427859  0.25467925  0.66773609  1
  O  O344  1  0.34222945  0.85075991  0.16426177  1
  O  O345  1  0.37226503  0.90136664  0.58413758  1
  O  O346  1  0.85292591  0.35585673  0.11907097  1
  O  O347  1  0.81650914  0.33633897  0.53767499  1
  O  O348  1  0.91416743  0.86839752  0.05843004  1
  O  O349  1  0.70296261  0.76709747  0.50362400  1
  O  O350  1  0.08857402  0.09045100  0.40927585  1
  O  O351  1  0.15734530  0.15721083  0.91170967  1
  O  O352  1  0.18669856  0.65515759  0.30889559  1
  O  O353  1  0.09437956  0.58359447  0.87126101  1
  O  O354  1  0.68712492  0.07489278  0.37882928  1
  O  O355  1  0.58188880  0.09275558  0.97071459  1
  O  O356  1  0.67220008  0.53594947  0.37586732  1
  O  O357  1  0.58118564  0.62214955  0.97243759  1
