# generated using pymatgen
data_V51Zn51O256
_symmetry_space_group_name_H-M   'P 1'
_cell_length_a   17.14571908
_cell_length_b   17.39941864
_cell_length_c   17.38915190
_cell_angle_alpha   89.99243733
_cell_angle_beta   90.94339279
_cell_angle_gamma   90.06226109
_symmetry_Int_Tables_number   1
_chemical_formula_structural   V51Zn51O256
_chemical_formula_sum   'V51 Zn51 O256'
_cell_volume   5186.92192423
_cell_formula_units_Z   1
loop_
 _symmetry_equiv_pos_site_id
 _symmetry_equiv_pos_as_xyz
  1  'x, y, z'
loop_
 _atom_site_type_symbol
 _atom_site_label
 _atom_site_symmetry_multiplicity
 _atom_site_fract_x
 _atom_site_fract_y
 _atom_site_fract_z
 _atom_site_occupancy
  V  V0  1  0.25249246  0.74983163  0.04368349  1
  V  V1  1  0.89821591  0.23304856  0.07040267  1
  V  V2  1  0.49062359  0.36150852  0.37124911  1
  V  V3  1  0.35986383  0.00145937  0.38776634  1
  V  V4  1  0.09802588  0.00939629  0.66276596  1
  V  V5  1  0.73766901  0.61928662  0.86769800  1
  V  V6  1  0.36027916  0.51546109  0.84265837  1
  V  V7  1  0.37328715  0.37545378  0.03516283  1
  V  V8  1  0.85727180  0.88190489  0.03317219  1
  V  V9  1  0.49354673  0.22688928  0.76803745  1
  V  V10  1  0.49072143  0.87313727  0.88566470  1
  V  V11  1  0.83272301  0.40428636  0.00162164  1
  V  V12  1  0.49510452  0.48473218  0.50080868  1
  V  V13  1  0.57040195  0.13531922  0.10013610  1
  V  V14  1  0.85395964  0.64494725  0.24627842  1
  V  V15  1  0.10019007  0.36847890  0.21795862  1
  V  V16  1  0.25204518  0.37109425  0.62947487  1
  V  V17  1  0.00140753  0.85800204  0.36989393  1
  V  V18  1  0.38449516  0.26253801  0.60898723  1
  V  V19  1  0.60256782  0.37541233  0.73460361  1
  V  V20  1  0.53956013  -0.04212028  0.45537578  1
  V  V21  1  0.63985965  0.12842419  0.51013638  1
  V  V22  1  0.49816036  0.72608521  0.27584912  1
  V  V23  1  -0.01472034  0.61478158  0.10812553  1
  V  V24  1  0.12906354  0.48837742  0.63237725  1
  V  V25  1  0.12212918  0.60387107  -0.00296437  1
  V  V26  1  0.87539516  0.84322168  0.51210380  1
  V  V27  1  0.77792267  0.00965812  0.29059254  1
  V  V28  1  0.25627627  0.24162202  0.46937179  1
  V  V29  1  0.13077610  0.58475032  0.45773013  1
  V  V30  1  0.88514574  0.52752672  0.89104250  1
  V  V31  1  0.35600956  0.22375781  0.13287692  1
  V  V32  1  0.14895306  0.73002930  0.35409564  1
  V  V33  1  0.06095409  0.38634661  0.85551994  1
  V  V34  1  0.50774806  0.22518255  0.26102343  1
  V  V35  1  0.46206475  0.61674667  0.12720683  1
  V  V36  1  0.90993003  0.00685337  0.40233986  1
  V  V37  1  0.64568030  0.59654961  0.49407694  1
  V  V38  1  0.72329979  0.38905529  0.14192074  1
  V  V39  1  -0.02703276  0.13208375  0.69271371  1
  V  V40  1  0.49058888  0.10406645  0.60504112  1
  V  V41  1  0.49409273  0.61889877  0.60625659  1
  V  V42  1  0.28396649  0.91220358  0.13498594  1
  V  V43  1  0.00905425  0.74173465  0.23154240  1
  V  V44  1  0.13259599  0.88698471  0.23877769  1
  V  V45  1  0.36415783  0.48742304  0.35764178  1
  V  V46  1  0.37237641  0.73925651  0.57302116  1
  V  V47  1  0.01574895  0.62136803  0.60631265  1
  V  V48  1  0.17316010  0.23302982  0.87877899  1
  V  V49  1  0.61469218  0.52728626  0.14196855  1
  V  V50  1  0.65309915  0.24815232  0.38612947  1
  Zn  Zn51  1  0.06939197  0.81893955  0.06362119  1
  Zn  Zn52  1  0.21911556  0.45056782  0.94486876  1
  Zn  Zn53  1  0.82770651  0.65412318  0.53085156  1
  Zn  Zn54  1  0.44373572  0.91312104  0.66916579  1
  Zn  Zn55  1  0.46938972  0.23441597  0.97120704  1
  Zn  Zn56  1  0.18309039  0.41065628  0.40670072  1
  Zn  Zn57  1  0.18420815  0.68203345  0.62248221  1
  Zn  Zn58  1  0.91070328  0.45638105  0.19584905  1
  Zn  Zn59  1  0.05996002  0.30810749  0.01549331  1
  Zn  Zn60  1  0.78432584  0.43551613  0.80867036  1
  Zn  Zn61  1  0.21053997  0.89603814  0.43137116  1
  Zn  Zn62  1  0.31440422  0.54295964  0.53979738  1
  Zn  Zn63  1  0.55579895  0.55502935  0.31670190  1
  Zn  Zn64  1  0.92946025  0.70141935  0.94444842  1
  Zn  Zn65  1  0.86127287  0.85152294  0.24487090  1
  Zn  Zn66  1  0.69967176  0.20309984  0.19789409  1
  Zn  Zn67  1  0.66544323  0.71252314  0.18181923  1
  Zn  Zn68  1  0.54592633  0.75854137  0.47794582  1
  Zn  Zn69  1  0.07699383  0.06682471  0.85723312  1
  Zn  Zn70  1  0.25410350  0.21018369  0.70900833  1
  Zn  Zn71  1  0.04002789  0.55508472  0.29324163  1
  Zn  Zn72  1  0.45166476  0.41641184  0.19470650  1
  Zn  Zn73  1  0.16986952  0.18473432  0.18132814  1
  Zn  Zn74  1  0.58737419  0.06966527  0.32366678  1
  Zn  Zn75  1  0.54252861  0.41465605  0.03104683  1
  Zn  Zn76  1  0.95343910  0.68255943  0.41997664  1
  Zn  Zn77  1  0.66497371  0.44864704  0.41152154  1
  Zn  Zn78  1  0.37184100  0.08393959  0.71071515  1
  Zn  Zn79  1  0.77416980  0.07633173  0.07952904  1
  Zn  Zn80  1  0.30987588  0.91711669  0.79611700  1
  Zn  Zn81  1  0.10887510  0.60327470  0.79196512  1
  Zn  Zn82  1  0.96637854  0.51133791  0.73105022  1
  Zn  Zn83  1  0.72660585  0.96297556  0.48004332  1
  Zn  Zn84  1  0.08702645  0.78702233  0.52352254  1
  Zn  Zn85  1  0.64689458  0.21559083  0.67351401  1
  Zn  Zn86  1  0.81642399  0.55931849  0.09829159  1
  Zn  Zn87  1  0.55224609  0.77208023  0.05799001  1
  Zn  Zn88  1  0.43638087  0.69371039  0.95245115  1
  Zn  Zn89  1  0.97324353  0.89008860  0.89553203  1
  Zn  Zn90  1  0.94278812  0.19068105  0.49119332  1
  Zn  Zn91  1  0.42163839  1.03900508  0.19283422  1
  Zn  Zn92  1  0.09700650  0.31827836  0.53832873  1
  Zn  Zn93  1  0.33498003  0.32503967  0.80693527  1
  Zn  Zn94  1  0.32082746  0.81985960  0.30060558  1
  Zn  Zn95  1  0.32809625  0.58114012  0.02260932  1
  Zn  Zn96  1  0.68502555  0.49914769  0.97848864  1
  Zn  Zn97  1  0.61599321  0.58551739  0.71488245  1
  Zn  Zn98  1  0.43529995  0.17968385  0.43643125  1
  Zn  Zn99  1  0.41997208  0.65534154  0.42436371  1
  Zn  Zn100  1  0.17361093  0.66816035  0.16720241  1
  Zn  Zn101  1  0.57245154  0.31755613  0.54997403  1
  O  O102  1  0.10181851  0.10593716  0.13821231  1
  O  O103  1  0.07798414  0.11802936  0.65960483  1
  O  O104  1  0.09571559  0.61292643  0.11198208  1
  O  O105  1  0.13575779  0.58490095  0.58364784  1
  O  O106  1  0.67439016  0.12157812  0.11261811  1
  O  O107  1  0.59992336  0.13355387  0.61521470  1
  O  O108  1  0.60830085  0.62517389  0.12531974  1
  O  O109  1  0.60401743  0.60145750  0.59774683  1
  O  O110  1  0.39368305  0.36515797  0.37379215  1
  O  O111  1  0.37964757  0.41729619  0.84193637  1
  O  O112  1  0.31750469  0.88781518  0.39179997  1
  O  O113  1  0.37947781  0.89599780  0.87662784  1
  O  O114  1  0.81728892  0.38901366  0.38813070  1
  O  O115  1  0.86008860  0.41846999  0.89692829  1
  O  O116  1  0.90273145  0.85713005  0.35120842  1
  O  O117  1  0.86664336  0.91661346  0.93498299  1
  O  O118  1  0.25267050  -0.00532162  0.39919936  1
  O  O119  1  0.23555360  -0.02374354  0.87623903  1
  O  O120  1  0.26768614  0.46163645  0.36388139  1
  O  O121  1  0.29626868  0.53275715  0.92230725  1
  O  O122  1  0.79187954  0.00409021  0.39684400  1
  O  O123  1  0.78161777  0.08912137  0.76782699  1
  O  O124  1  0.78205759  0.43971402  0.43725484  1
  O  O125  1  0.73102470  0.51652065  0.87630576  1
  O  O126  1  0.26361757  0.53143437  0.19994635  1
  O  O127  1  0.24201582  0.47151769  0.59495296  1
  O  O128  1  0.23584306  0.98997097  0.11168245  1
  O  O129  1  0.19126416  1.01791540  0.63840745  1
  O  O130  1  0.71515978  0.51185044  0.09696831  1
  O  O131  1  0.76666200  0.49028893  0.65608804  1
  O  O132  1  0.80569640  1.07092985  0.19595679  1
  O  O133  1  0.66619838  0.98125097  0.76899231  1
  O  O134  1  -0.00623186  0.37067136  0.21472441  1
  O  O135  1  0.00475957  0.41866181  0.77899726  1
  O  O136  1  0.02263209  0.84994672  0.25507657  1
  O  O137  1  0.08602243  0.80140855  0.71306499  1
  O  O138  1  0.51260388  0.34880846  0.26951971  1
  O  O139  1  0.50853239  0.33562400  0.74678376  1
  O  O140  1  0.57982358  0.91549857  0.19639379  1
  O  O141  1  0.48696814  0.89559083  0.78311779  1
  O  O142  1  0.50143986  0.12658352  0.27963746  1
  O  O143  1  0.47775454  0.13315122  0.72255599  1
  O  O144  1  0.49127157  0.62609023  0.25119128  1
  O  O145  1  0.50444282  0.62519539  0.70329605  1
  O  O146  1  0.98115792  0.18826788  0.31528241  1
  O  O147  1  0.99351484  0.12610564  0.79288462  1
  O  O148  1  0.98894552  0.63293788  0.22473668  1
  O  O149  1  1.02101232  0.61256781  0.71541411  1
  O  O150  1  0.37459347  0.23541011  0.03428264  1
  O  O151  1  0.35982308  0.24206207  0.50245626  1
  O  O152  1  0.33015624  0.70925239  -0.01303267  1
  O  O153  1  0.37585575  0.74748352  0.47502464  1
  O  O154  1  0.87324802  0.31152466  0.00442959  1
  O  O155  1  0.84818779  0.25541650  0.51395439  1
  O  O156  1  0.87363036  0.78135024  0.01381818  1
  O  O157  1  0.86976940  0.73918601  0.47853418  1
  O  O158  1  0.16866446  0.16995070  0.48731492  1
  O  O159  1  0.15311754  0.26980415  0.96905954  1
  O  O160  1  0.14276018  0.71588315  0.45425673  1
  O  O161  1  0.15193391  0.76185897  1.01571999  1
  O  O162  1  0.63207196  0.23659648  0.49873754  1
  O  O163  1  0.74584623  0.22106979  0.91363220  1
  O  O164  1  0.63688471  0.69258572  0.47790175  1
  O  O165  1  0.54737364  0.71448101  0.96376810  1
  O  O166  1  0.54613345  0.21570469  0.15927003  1
  O  O167  1  0.48339639  0.25901487  0.60376162  1
  O  O168  1  0.48271337  0.71787509  0.12861796  1
  O  O169  1  0.49527246  0.71621583  0.57266599  1
  O  O170  1  0.99889204  0.22712804  0.05739765  1
  O  O171  1  0.98377191  0.22870237  0.69556942  1
  O  O172  1  1.01522006  0.74756603  0.13193061  1
  O  O173  1  1.06699653  0.71411134  0.60678112  1
  O  O174  1  0.03086505  0.25169969  0.49178464  1
  O  O175  1  0.07923783  0.28443755  0.84488509  1
  O  O176  1  0.02049595  0.74018126  0.34833995  1
  O  O177  1  -0.03442162  0.78487593  0.88420376  1
  O  O178  1  0.49917366  0.24829046  0.37295379  1
  O  O179  1  0.46027541  0.22362118  0.85889196  1
  O  O180  1  0.50402253  0.71870472  0.37784353  1
  O  O181  1  0.44052610  0.77849777  0.87934015  1
  O  O182  1  0.23580749  0.13283388  0.49629744  1
  O  O183  1  0.22331446  -0.03222344  0.94593732  1
  O  O184  1  0.22978019  0.58867876  0.47323781  1
  O  O185  1  0.21875163  0.62806380  1.03148168  1
  O  O186  1  0.73262703  0.11705703  0.52997148  1
  O  O187  1  0.70277496  0.03270610  0.96948793  1
  O  O188  1  0.74386566  0.58738479  0.52062012  1
  O  O189  1  0.68924306  0.64657424  0.94300870  1
  O  O190  1  0.28327741  0.36922756  -0.00993424  1
  O  O191  1  0.19912885  0.33005092  0.48167809  1
  O  O192  1  0.28315506  0.84928235  0.04905569  1
  O  O193  1  0.16404931  0.86582385  0.52358316  1
  O  O194  1  0.73503467  0.39186115  -0.00728898  1
  O  O195  1  0.73386376  0.45193865  0.60601524  1
  O  O196  1  0.76146914  0.85900798  0.02222572  1
  O  O197  1  0.77451129  0.86827497  0.50871806  1
  O  O198  1  0.09462652  0.47134025  0.22928530  1
  O  O199  1  0.14485959  0.51054790  0.72412143  1
  O  O200  1  0.12515538  0.97651341  0.26176809  1
  O  O201  1  0.12335027  1.02308433  0.76320529  1
  O  O202  1  0.63280306  0.52229500  0.23784777  1
  O  O203  1  0.60089152  0.47111015  0.72141508  1
  O  O204  1  0.68253174  1.03676710  0.28052207  1
  O  O205  1  0.63135747  1.04123458  0.78339950  1
  O  O206  1  0.39272594  -0.00007981  0.29667922  1
  O  O207  1  0.36883630  -0.02476231  0.72569638  1
  O  O208  1  0.38442666  0.47262227  0.26186571  1
  O  O209  1  0.31752994  0.54130555  0.76199838  1
  O  O210  1  0.89211395  0.01734739  0.30170155  1
  O  O211  1  0.83111169  -0.04538312  0.78847015  1
  O  O212  1  0.84118580  0.54774979  0.21438345  1
  O  O213  1  0.86392457  0.51536967  0.78486663  1
  O  O214  1  0.11274350  0.36547803  0.31994034  1
  O  O215  1  0.15191749  0.42656428  0.85892497  1
  O  O216  1  0.13398356  0.84103163  0.35328644  1
  O  O217  1  0.11794737  0.85239272  0.88631452  1
  O  O218  1  0.62249291  0.34839900  0.38799377  1
  O  O219  1  0.64602732  0.35908534  0.83208551  1
  O  O220  1  0.68657168  0.82347825  0.36060658  1
  O  O221  1  0.58167501  0.84214209  0.86094185  1
  O  O222  1  0.36989042  0.12781909  0.14589039  1
  O  O223  1  0.39005136  0.13673868  0.60678087  1
  O  O224  1  0.36534048  0.60858695  0.13785397  1
  O  O225  1  0.38347691  0.62585035  0.58783200  1
  O  O226  1  0.84612251  0.15050300  0.04475673  1
  O  O227  1  0.88052472  0.12597435  0.71752242  1
  O  O228  1  0.88471759  0.64880859  0.11341167  1
  O  O229  1  0.91712761  0.62979755  0.59852062  1
  O  O230  1  0.25693747  0.23319227  0.14307319  1
  O  O231  1  0.25121642  0.26216803  0.61074512  1
  O  O232  1  0.26074478  0.72950835  0.13989095  1
  O  O233  1  0.27387866  0.73401634  0.59373023  1
  O  O234  1  0.72237965  0.29011531  0.13371959  1
  O  O235  1  0.77334122  0.20075820  0.70107783  1
  O  O236  1  0.65303522  0.78283349  0.09713135  1
  O  O237  1  0.67497549  0.84574520  0.66745226  1
  O  O238  1  0.26413458  0.23726143  0.37719470  1
  O  O239  1  0.27304912  0.25108316  0.86363515  1
  O  O240  1  0.24509951  0.73325623  0.33605585  1
  O  O241  1  0.16175485  0.80664486  0.85524505  1
  O  O242  1  0.74748587  0.25018606  0.38667925  1
  O  O243  1  0.88916045  0.13263245  0.91481705  1
  O  O244  1  0.73226716  0.77117675  0.37294547  1
  O  O245  1  0.74349814  0.82914932  0.82868725  1
  O  O246  1  0.10810861  0.10732990  0.05848252  1
  O  O247  1  -0.06458481  0.13919326  0.59729278  1
  O  O248  1  0.00362376  0.64036735  0.00630760  1
  O  O249  1  0.02460331  0.61768940  0.49201604  1
  O  O250  1  0.54459131  0.15939763  0.00740917  1
  O  O251  1  0.50648629  0.11680666  0.50488422  1
  O  O252  1  0.45492637  0.60864485  0.02334095  1
  O  O253  1  0.50618338  0.59049435  0.48164923  1
  O  O254  1  0.50342757  0.37548901  0.48425937  1
  O  O255  1  0.46739297  0.34825381  0.98855970  1
  O  O256  1  0.56221773  0.86612577  0.48064776  1
  O  O257  1  0.50097406  0.85037672  0.98809003  1
  O  O258  1  0.87439698  0.31312309  0.56198906  1
  O  O259  1  1.01873490  0.38401667  0.94597955  1
  O  O260  1  0.99484947  0.82737786  0.46924372  1
  O  O261  1  0.97177583  0.88222333  1.02389911  1
  O  O262  1  0.49770273  0.47190890  0.37184671  1
  O  O263  1  0.47033237  0.55259605  0.84656502  1
  O  O264  1  0.55750883  0.96679762  0.36063216  1
  O  O265  1  0.50746728  0.96467238  0.91746457  1
  O  O266  1  0.95851966  0.48095302  0.29794813  1
  O  O267  1  0.97936589  0.53703790  0.89154818  1
  O  O268  1  1.01057818  0.95796375  0.38288933  1
  O  O269  1  1.01539140  0.98558944  0.88260070  1
  O  O270  1  -0.03144029  0.15810007  0.25273970  1
  O  O271  1  -0.01500108  0.02414125  0.68396239  1
  O  O272  1  -0.02967621  0.51903428  0.11344027  1
  O  O273  1  0.02467146  0.50219541  0.61865589  1
  O  O274  1  0.52070603  0.05710136  0.13140037  1
  O  O275  1  0.48984738  0.00709172  0.61991106  1
  O  O276  1  0.50427595  0.51192172  0.14586507  1
  O  O277  1  0.47944944  0.50299918  0.59636387  1
  O  O278  1  0.19722531  0.38325735  0.19691686  1
  O  O279  1  0.25996316  0.37434827  0.72411541  1
  O  O280  1  0.24441533  0.87310630  0.22801421  1
  O  O281  1  0.23153490  0.87558339  0.73865747  1
  O  O282  1  0.73585473  0.40585356  0.23341007  1
  O  O283  1  0.71119054  0.35489653  0.77938549  1
  O  O284  1  0.77373411  0.91755035  0.25560003  1
  O  O285  1  0.88171327  0.90423828  0.78852708  1
  O  O286  1  0.18520678  0.12923363  0.28974354  1
  O  O287  1  0.27105555  0.10958550  0.73824200  1
  O  O288  1  0.22942192  0.57831001  0.24033767  1
  O  O289  1  0.24852531  0.70267495  0.78489967  1
  O  O290  1  0.79219513  0.13427071  0.24087422  1
  O  O291  1  0.77222842  0.08260405  0.69958011  1
  O  O292  1  0.76205675  0.68294612  0.23233890  1
  O  O293  1  0.74420024  0.77249461  0.87132354  1
  O  O294  1  0.36462329  0.09728632  0.41113676  1
  O  O295  1  0.34484281  0.09472912  0.89415485  1
  O  O296  1  0.36312992  0.58712292  0.36147717  1
  O  O297  1  0.42493957  0.61486192  0.85685712  1
  O  O298  1  0.93002133  0.09722616  0.43596961  1
  O  O299  1  0.85486423  0.07867637  0.88536825  1
  O  O300  1  0.87715275  0.63422699  0.34208989  1
  O  O301  1  0.84640419  0.63240567  0.89252240  1
  O  O302  1  0.08636775  0.36331625  0.11567878  1
  O  O303  1  0.13352598  0.38078625  0.62093070  1
  O  O304  1  0.11640711  0.88379593  0.14030285  1
  O  O305  1  0.08715187  0.91784540  0.68845146  1
  O  O306  1  0.61711692  0.40881324  0.12300869  1
  O  O307  1  0.63342477  0.32581527  0.64731266  1
  O  O308  1  0.52761054  0.88354404  0.16036740  1
  O  O309  1  0.74292950  0.87285850  0.68209759  1
  O  O310  1  0.10309813  0.26677580  0.22657376  1
  O  O311  1  0.16698963  0.24167734  0.76654713  1
  O  O312  1  0.11953908  0.72778410  0.24515197  1
  O  O313  1  0.18168311  0.67719753  0.73848673  1
  O  O314  1  0.62837965  0.22681056  0.28321770  1
  O  O315  1  0.59384582  0.21539022  0.77266065  1
  O  O316  1  0.58918176  0.75990674  0.25213644  1
  O  O317  1  0.62176421  0.89148386  0.63966643  1
  O  O318  1  0.41323974  0.23997926  0.23035777  1
  O  O319  1  0.37603617  0.25236833  0.71649930  1
  O  O320  1  0.41831371  0.78607699  0.26116226  1
  O  O321  1  0.29371624  0.74815862  0.75097808  1
  O  O322  1  0.88151779  0.25458552  0.16087844  1
  O  O323  1  0.79416353  0.19236716  0.76903367  1
  O  O324  1  0.90181581  0.74854662  0.23701461  1
  O  O325  1  1.02969850  0.82414188  0.74742836  1
  O  O326  1  0.38878330  0.48606732  0.47290631  1
  O  O327  1  0.38292984  0.47087870  1.04716105  1
  O  O328  1  0.43750564  0.96993971  0.45925390  1
  O  O329  1  0.33119559  1.08873235  0.96278686  1
  O  O330  1  0.88854569  0.37610290  0.40175237  1
  O  O331  1  0.85403639  0.51237023  0.99715594  1
  O  O332  1  0.90119749  0.94638417  0.48591929  1
  O  O333  1  0.83909633  0.97974025  1.05936076  1
  O  O334  1  0.05158992  0.07804950  0.02194550  1
  O  O335  1  0.07324232  -0.00939722  0.56837369  1
  O  O336  1  0.13228424  0.50773957  -0.00140724  1
  O  O337  1  0.11185230  0.48733653  0.45032070  1
  O  O338  1  0.72609938  0.00372136  -0.09181892  1
  O  O339  1  0.62488862  0.01208040  0.49879812  1
  O  O340  1  0.58203215  0.51172974  0.00871108  1
  O  O341  1  0.60578259  0.48256081  0.50660042  1
  O  O342  1  0.38338489  0.34414031  0.13426550  1
  O  O343  1  0.35795418  0.36120497  0.60294177  1
  O  O344  1  0.37812947  0.94082559  0.15038768  1
  O  O345  1  0.40281025  0.82282348  0.62212604  1
  O  O346  1  0.83488078  0.41463296  0.11174893  1
  O  O347  1  0.82542345  0.33911379  0.60947780  1
  O  O348  1  0.87401708  0.86913500  0.13303332  1
  O  O349  1  0.89981626  0.83851685  0.60259865  1
  O  O350  1  0.13339278  0.13734544  0.33806201  1
  O  O351  1  0.15273726  0.13517931  0.88847555  1
  O  O352  1  0.11688413  0.61222679  0.35450796  1
  O  O353  1  0.11937882  0.62624474  0.89875404  1
  O  O354  1  0.63150360  0.13647721  0.40455083  1
  O  O355  1  0.70972076  0.16582454  0.88871568  1
  O  O356  1  0.64453733  0.56104463  0.39340110  1
  O  O357  1  0.68909210  0.63822497  0.78076716  1
