# generated using pymatgen
data_V51Zn51O256
_symmetry_space_group_name_H-M   'P 1'
_cell_length_a   17.85298280
_cell_length_b   17.61758160
_cell_length_c   17.78791288
_cell_angle_alpha   90.79398164
_cell_angle_beta   90.54665193
_cell_angle_gamma   90.45193427
_symmetry_Int_Tables_number   1
_chemical_formula_structural   V51Zn51O256
_chemical_formula_sum   'V51 Zn51 O256'
_cell_volume   5593.79612004
_cell_formula_units_Z   1
loop_
 _symmetry_equiv_pos_site_id
 _symmetry_equiv_pos_as_xyz
  1  'x, y, z'
loop_
 _atom_site_type_symbol
 _atom_site_label
 _atom_site_symmetry_multiplicity
 _atom_site_fract_x
 _atom_site_fract_y
 _atom_site_fract_z
 _atom_site_occupancy
  V  V0  1  0.92846925  0.56438038  0.37360578  1
  V  V1  1  0.84599219  0.27607789  0.00564063  1
  V  V2  1  0.85113332  0.74862150  0.14088041  1
  V  V3  1  0.46670851  0.05013638  0.58775515  1
  V  V4  1  0.36270724  0.24652782  0.59114439  1
  V  V5  1  0.44014201  0.06851179  0.31427426  1
  V  V6  1  0.77135571  0.19854112  0.41356801  1
  V  V7  1  -0.01811511  0.87663419  0.85643814  1
  V  V8  1  0.68269299  0.51239211  0.06655768  1
  V  V9  1  0.48895796  0.88247776  0.35443566  1
  V  V10  1  0.40068319  0.54857710  0.70240770  1
  V  V11  1  0.75957648  0.80519430  0.50133795  1
  V  V12  1  0.38412028  0.48160291  0.87161115  1
  V  V13  1  0.46898047  0.26689028  0.80065847  1
  V  V14  1  0.22962681  0.14690107  0.89398674  1
  V  V15  1  0.07415500  0.14561878  -0.01349462  1
  V  V16  1  0.73580027  0.49880576  0.29803566  1
  V  V17  1  0.73432274  0.89909214  0.12680161  1
  V  V18  1  0.24343715  0.80623509  0.63208995  1
  V  V19  1  0.90896434  0.28667832  0.63519678  1
  V  V20  1  0.61423390  0.93912525  0.24176323  1
  V  V21  1  0.04039842  0.90643929  0.38261310  1
  V  V22  1  0.12854783  0.51775710  0.60356709  1
  V  V23  1  0.09356912  0.02077233  0.10977716  1
  V  V24  1  0.89642279  0.65874147  0.70193641  1
  V  V25  1  0.37582381  -0.09568094  0.84056870  1
  V  V26  1  0.27649276  0.87348846  0.13179733  1
  V  V27  1  0.65052008  0.10160645  0.52149307  1
  V  V28  1  0.65047098  0.67870697  0.88238366  1
  V  V29  1  0.08195269  0.49786103  0.11862584  1
  V  V30  1  0.62091455  0.41735478  0.63157049  1
  V  V31  1  0.29142439  0.32423379  0.11337961  1
  V  V32  1  0.46349178  -0.07302769  -0.01616137  1
  V  V33  1  0.22440057  -0.04102893  0.73561788  1
  V  V34  1  0.38652817  0.66483332  0.13887565  1
  V  V35  1  0.52242327  0.35691361  0.35647237  1
  V  V36  1  0.77993578  0.37793833  0.14948333  1
  V  V37  1  0.91177119  0.12363201  0.74052862  1
  V  V38  1  0.02459799  0.26184441  0.27168910  1
  V  V39  1  0.14900118  0.15935025  0.53147479  1
  V  V40  1  0.65128775  0.31945945  0.78280182  1
  V  V41  1  0.19539910  0.61009375  0.88532157  1
  V  V42  1  0.27270933  0.61503135  0.34693829  1
  V  V43  1  0.52020126  0.70821780  0.25460452  1
  V  V44  1  0.50190883  0.55283906  0.10560646  1
  V  V45  1  0.17774595  0.78914162  0.44148271  1
  V  V46  1  0.02597787  0.10081434  0.62374253  1
  V  V47  1  0.84101002  0.64312503  0.26550569  1
  V  V48  1  0.02864674  0.76848845  0.23607753  1
  V  V49  1  0.39957678  0.48122959  0.35466311  1
  V  V50  1  0.44439776  0.07084739  0.78742378  1
  Zn  Zn51  1  0.69389873  0.38733672  0.43682090  1
  Zn  Zn52  1  0.43489522  0.64303703  0.39527737  1
  Zn  Zn53  1  0.31040405  -0.00013117  0.01159342  1
  Zn  Zn54  1  0.33430655  0.13910654  0.44938833  1
  Zn  Zn55  1  0.09946523  0.46400223  0.40142301  1
  Zn  Zn56  1  0.82929750  0.24594916  0.81260370  1
  Zn  Zn57  1  0.70165934  0.37732022  0.96839845  1
  Zn  Zn58  1  0.38447304  0.93085815  0.65922976  1
  Zn  Zn59  1  0.56058192  0.24534014  0.61245697  1
  Zn  Zn60  1  0.07360168  0.05995674  0.81877170  1
  Zn  Zn61  1  0.55513631  0.48626689  0.79695985  1
  Zn  Zn62  1  0.95909015  0.71809199  0.97063350  1
  Zn  Zn63  1  0.07859170  0.33836145  0.54514141  1
  Zn  Zn64  1  0.71574900  0.28630865  0.57346662  1
  Zn  Zn65  1  0.31805778  0.53677580  0.51871005  1
  Zn  Zn66  1  0.34119452  0.78370710  0.28478883  1
  Zn  Zn67  1  0.23314864  0.44494506  0.97663328  1
  Zn  Zn68  1  0.20758674  0.72588849  0.20934467  1
  Zn  Zn69  1  0.33381865  0.72622305  0.75097554  1
  Zn  Zn70  1  0.42856608  0.40083154  0.64581043  1
  Zn  Zn71  1  0.96724897  0.46786889  0.70139674  1
  Zn  Zn72  1  0.98184102  0.21348321  0.47421551  1
  Zn  Zn73  1  0.42945943  0.41188153  0.19763641  1
  Zn  Zn74  1  0.11510262  0.81901392  0.07655239  1
  Zn  Zn75  1  0.24136295  0.45125576  0.24811358  1
  Zn  Zn76  1  0.74074852  0.77219436  0.74441650  1
  Zn  Zn77  1  0.30009405  0.08031217  0.59695247  1
  Zn  Zn78  1  0.83856834  0.07343331  0.57812117  1
  Zn  Zn79  1  0.83114446  0.62614557  0.51460140  1
  Zn  Zn80  1  0.70955709  0.59966847  0.65672032  1
  Zn  Zn81  1  0.78576413  0.65436660  0.01005883  1
  Zn  Zn82  1  0.61090411  0.91538999  0.44623486  1
  Zn  Zn83  1  0.35128624  0.30230525  0.94951196  1
  Zn  Zn84  1  0.84059800  0.20677787  0.22731622  1
  Zn  Zn85  1  0.91291886  0.10437435  0.07899642  1
  Zn  Zn86  1  0.86087241  0.92803052  0.69647047  1
  Zn  Zn87  1  0.60882126  0.08383078  0.35961476  1
  Zn  Zn88  1  0.21200266  0.16847487  0.70552547  1
  Zn  Zn89  1  0.02731339  0.30837266  0.06873570  1
  Zn  Zn90  1  0.08208572  0.07150724  0.28332295  1
  Zn  Zn91  1  0.00862330  0.57918805  0.85106884  1
  Zn  Zn92  1  0.43489716  0.64064326  0.96976037  1
  Zn  Zn93  1  -0.06309108  0.89763532  0.54803182  1
  Zn  Zn94  1  0.77044903  0.83287229  0.29846799  1
  Zn  Zn95  1  0.17871309  0.16866666  0.17045170  1
  Zn  Zn96  1  0.54429043  0.52885913  0.29889777  1
  Zn  Zn97  1  0.56038723  -0.03320073  0.85913680  1
  Zn  Zn98  1  0.43256866  0.95579181  0.15864102  1
  Zn  Zn99  1  0.68178013  0.65264179  0.17230856  1
  Zn  Zn100  1  0.60153901  0.90313634  1.04245562  1
  Zn  Zn101  1  0.09370066  0.63763532  0.34728936  1
  O  O102  1  0.12479455  0.13444252  0.07686086  1
  O  O103  1  0.13294727  0.13393638  0.63266607  1
  O  O104  1  0.07321604  0.59335676  0.10279388  1
  O  O105  1  0.09535562  0.60821012  0.60204468  1
  O  O106  1  0.69743958  0.11163812  -0.01206053  1
  O  O107  1  0.55922206  0.08298787  0.57058204  1
  O  O108  1  0.61875817  0.57434728  0.11583599  1
  O  O109  1  0.64949399  0.51039865  0.64669103  1
  O  O110  1  0.36871517  0.39388341  0.36004759  1
  O  O111  1  0.24347346  0.33373451  0.76423277  1
  O  O112  1  0.39706786  0.85970116  0.33953728  1
  O  O113  1  0.36227680  0.81394538  0.80917954  1
  O  O114  1  0.92117960  0.43052682  0.38238357  1
  O  O115  1  0.86293274  0.48813806  0.86912759  1
  O  O116  1  0.86039949  0.93098511  0.29750772  1
  O  O117  1  0.91143844  0.86848984  0.92742135  1
  O  O118  1  0.25740022  -0.02814678  0.38106517  1
  O  O119  1  0.27468180  -0.06071156  0.81627721  1
  O  O120  1  0.30305250  0.52452489  0.31108327  1
  O  O121  1  0.19861542  0.51434038  0.90346540  1
  O  O122  1  0.82888987  0.13015445  0.47549900  1
  O  O123  1  0.76816347  0.00168519  0.87900810  1
  O  O124  1  0.73785602  0.47778338  0.39257977  1
  O  O125  1  0.68168450  0.58913048  0.83220916  1
  O  O126  1  0.16832076  0.49252435  0.17637329  1
  O  O127  1  0.22304897  0.52817496  0.57976536  1
  O  O128  1  0.26202911  0.96866722  0.10475068  1
  O  O129  1  0.28378070  0.99953344  0.66684163  1
  O  O130  1  0.76753857  0.55567229  0.05807348  1
  O  O131  1  0.74684527  0.58869054  0.55819970  1
  O  O132  1  0.77747232  0.99525713  0.09362460  1
  O  O133  1  0.68524682  1.03690607  0.73049998  1
  O  O134  1  0.04673875  0.35558525  0.28908044  1
  O  O135  1  -0.13824267  0.44387287  0.81407193  1
  O  O136  1  0.02024886  0.83417576  0.31533966  1
  O  O137  1  -0.10078679  0.89596272  0.80002626  1
  O  O138  1  0.49421359  0.34773156  0.26435267  1
  O  O139  1  0.44106324  0.33626416  0.74114107  1
  O  O140  1  0.52082963  0.91815085  0.21831533  1
  O  O141  1  0.53097289  0.73847407  0.64111414  1
  O  O142  1  0.51550172  0.13048768  0.32766249  1
  O  O143  1  0.53824302  0.05599821  0.80298330  1
  O  O144  1  0.51865349  0.63456290  0.32669614  1
  O  O145  1  0.49273705  0.52979674  0.71645679  1
  O  O146  1  1.01189895  0.15756348  0.27348036  1
  O  O147  1  1.01339642  0.10797492  0.73575783  1
  O  O148  1  1.03077596  0.68060974  0.27049334  1
  O  O149  1  0.97779244  0.70477402  0.67645849  1
  O  O150  1  0.60167185  0.28033691  0.01993868  1
  O  O151  1  0.33831800  0.23615423  0.49792438  1
  O  O152  1  0.39823225  0.70392042  0.05176566  1
  O  O153  1  0.44679111  0.71577976  0.48966128  1
  O  O154  1  0.92856971  0.31594580  0.03660526  1
  O  O155  1  0.80715520  0.44798516  0.60879217  1
  O  O156  1  0.89505357  0.74521471  0.05802060  1
  O  O157  1  0.85615698  0.81993178  0.51933777  1
  O  O158  1  0.15326440  0.25437786  0.53646126  1
  O  O159  1  0.07692371  0.24321591  0.99986730  1
  O  O160  1  0.20121910  0.79148219  0.54229445  1
  O  O161  1  0.04923509  0.76035401  1.01464802  1
  O  O162  1  0.64233790  0.20092824  0.55279889  1
  O  O163  1  0.67925187  0.14184197  0.92880091  1
  O  O164  1  0.66540266  0.81614778  0.46378094  1
  O  O165  1  0.55551193  0.73120745  0.89737930  1
  O  O166  1  0.67102944  0.16237300  0.14110617  1
  O  O167  1  0.45826859  0.22712610  0.60332591  1
  O  O168  1  0.49762070  0.63372349  0.17093718  1
  O  O169  1  0.41330125  0.69333416  0.54711283  1
  O  O170  1  1.01966493  0.26247121  0.17017714  1
  O  O171  1  0.98407504  0.28126534  0.56584745  1
  O  O172  1  0.94750977  0.77967942  0.18693482  1
  O  O173  1  0.93849210  0.86900273  0.64977375  1
  O  O174  1  0.01524399  0.24842321  0.37099796  1
  O  O175  1  0.08608547  0.30172373  0.77174139  1
  O  O176  1  0.01800479  0.79235642  0.53088828  1
  O  O177  1  -0.01259658  0.77420113  0.87086486  1
  O  O178  1  0.48365357  0.26470737  0.40242149  1
  O  O179  1  0.44190227  0.28591988  0.89057939  1
  O  O180  1  0.51779461  0.78343372  0.31761325  1
  O  O181  1  0.48909565  0.69859102  0.88561368  1
  O  O182  1  0.23351141  0.11042746  0.51106316  1
  O  O183  1  0.26676177  0.07825337  0.94920185  1
  O  O184  1  0.25681126  0.60378946  0.43974427  1
  O  O185  1  0.23862376  0.63599720  0.98751510  1
  O  O186  1  0.72681093  0.07314685  0.56943400  1
  O  O187  1  0.84371205  0.18429131  1.03552336  1
  O  O188  1  0.78342053  0.71082207  0.46379775  1
  O  O189  1  0.68218875  0.66680974  0.97062159  1
  O  O190  1  0.23409198  0.36623710  0.04753283  1
  O  O191  1  0.27144782  0.43179045  0.46161014  1
  O  O192  1  0.22737656  0.81654539  0.06885631  1
  O  O193  1  0.15561119  0.96825621  0.54655755  1
  O  O194  1  0.76750541  0.33464002  0.04067009  1
  O  O195  1  0.87953154  0.38643873  0.41625207  1
  O  O196  1  0.69932253  0.85064884  0.05075427  1
  O  O197  1  0.74910748  0.88670077  0.55508786  1
  O  O198  1  0.04124022  0.50197698  0.20630658  1
  O  O199  1  0.15347542  0.52367721  0.69631851  1
  O  O200  1  0.14241632  1.06787049  0.19657885  1
  O  O201  1  0.14876258  1.01164466  0.75673733  1
  O  O202  1  0.64173618  0.50149629  0.27605895  1
  O  O203  1  0.62359470  0.41416556  0.74904776  1
  O  O204  1  0.63556290  1.03058262  0.26783009  1
  O  O205  1  0.71967584  0.95120125  0.88168538  1
  O  O206  1  0.42185809  0.04618242  0.22127723  1
  O  O207  1  0.41305432  -0.04034333  0.76195931  1
  O  O208  1  0.43859225  0.50507914  0.26572974  1
  O  O209  1  0.35395324  0.49211426  0.77344499  1
  O  O210  1  0.85748536  -0.01274205  0.34049086  1
  O  O211  1  0.86284442  0.04093283  0.71940129  1
  O  O212  1  0.85573396  0.53666979  0.30616020  1
  O  O213  1  0.91694548  0.56215472  0.67372263  1
  O  O214  1  0.05992883  0.37845405  0.44925104  1
  O  O215  1  0.07366459  0.39070656  0.90746416  1
  O  O216  1  0.12663859  0.87656533  0.42294330  1
  O  O217  1  0.03158821  0.84914662  0.77741559  1
  O  O218  1  0.61611497  0.34865968  0.36617022  1
  O  O219  1  0.66157558  0.34389873  0.87541077  1
  O  O220  1  0.60377568  0.89967671  0.33490775  1
  O  O221  1  0.60734519  0.90903637  0.76536719  1
  O  O222  1  0.36705565  0.29842599  0.06010979  1
  O  O223  1  0.43484424  0.07379433  0.67589069  1
  O  O224  1  0.39635000  0.56504343  0.11270017  1
  O  O225  1  0.37667914  0.50915628  0.61274238  1
  O  O226  1  0.88321010  0.12345819  0.18161132  1
  O  O227  1  0.92923587  0.13190519  0.61742361  1
  O  O228  1  0.88481499  0.64379627  0.18179124  1
  O  O229  1  0.87206250  0.67757831  0.60518056  1
  O  O230  1  0.24566997  0.24758163  0.15276566  1
  O  O231  1  0.30001988  0.18508663  0.64350015  1
  O  O232  1  0.29386398  0.67149002  0.16508235  1
  O  O233  1  0.24824709  0.72397037  0.67837733  1
  O  O234  1  0.79215267  0.28484011  0.17620454  1
  O  O235  1  0.82324155  0.28492713  0.59316163  1
  O  O236  1  0.76371938  0.70458869  0.11502171  1
  O  O237  1  0.72688577  0.74991507  0.57493283  1
  O  O238  1  0.25392588  0.37053849  0.49090664  1
  O  O239  1  0.26313511  0.23419481  0.92225353  1
  O  O240  1  0.25084583  0.78778426  0.38551337  1
  O  O241  1  0.18948608  0.68781306  0.96781873  1
  O  O242  1  0.75045345  0.28776431  0.44808469  1
  O  O243  1  0.83901461  0.28692612  0.90945678  1
  O  O244  1  0.77543104  0.84122469  0.40557409  1
  O  O245  1  0.70417827  0.74870348  0.84332124  1
  O  O246  1  -0.01711254  0.12145934  -0.00860102  1
  O  O247  1  0.04730228  0.13335075  0.52027717  1
  O  O248  1  -0.01764334  0.61189061  -0.05376474  1
  O  O249  1  -0.00392865  0.74084357  0.48741818  1
  O  O250  1  0.55341627  0.12597293  0.05212972  1
  O  O251  1  0.39019209  0.07593888  0.52909748  1
  O  O252  1  0.50845726  0.56979454  0.01180283  1
  O  O253  1  0.58596709  0.64146250  0.51649493  1
  O  O254  1  0.47986404  0.32150335  0.45367819  1
  O  O255  1  0.55719407  0.29132503  1.07123788  1
  O  O256  1  0.50982504  0.86873809  0.44696927  1
  O  O257  1  0.49778702  0.85440858  1.03429142  1
  O  O258  1  0.85155564  0.44498401  0.55632034  1
  O  O259  1  1.00513346  0.38366165  0.90143371  1
  O  O260  1  0.97511365  0.91589401  0.45219127  1
  O  O261  1  1.05471792  0.89911997  0.92182088  1
  O  O262  1  0.50478792  0.45588082  0.38217848  1
  O  O263  1  0.47700448  0.46142623  0.86867906  1
  O  O264  1  0.47399240  0.98622524  0.35894258  1
  O  O265  1  0.47343502  0.89706189  0.87755324  1
  O  O266  1  1.02936181  0.54823347  0.36965688  1
  O  O267  1  1.01838572  0.49606531  0.78842161  1
  O  O268  1  1.04809984  0.99265182  0.34219357  1
  O  O269  1  0.99995496  0.97899799  0.84462262  1
  O  O270  1  0.00172749  0.03861256  0.12086199  1
  O  O271  1  0.02236538  0.00985310  0.61289246  1
  O  O272  1  0.00064474  0.47813501  0.06752913  1
  O  O273  1  0.02900754  0.48321374  0.61264572  1
  O  O274  1  0.42608422  -0.00633075  0.04885253  1
  O  O275  1  0.46559155  -0.04661970  0.58947350  1
  O  O276  1  0.50301814  0.45841258  0.12881378  1
  O  O277  1  0.52843446  0.41344877  0.60729436  1
  O  O278  1  0.17172785  0.43939304  0.32971992  1
  O  O279  1  0.20267241  0.36792852  0.80838966  1
  O  O280  1  0.25966081  0.82809934  0.22365107  1
  O  O281  1  0.19228483  0.87168069  0.69295959  1
  O  O282  1  0.76479100  0.41865954  0.25081246  1
  O  O283  1  0.73633478  0.27686899  0.76492104  1
  O  O284  1  0.70583590  0.88021982  0.22894104  1
  O  O285  1  0.61011994  0.83769150  0.76451789  1
  O  O286  1  0.43932527  0.19973285  0.15471427  1
  O  O287  1  0.24815417  0.13526474  0.79950603  1
  O  O288  1  0.19319503  0.64410168  0.29381908  1
  O  O289  1  0.24990440  0.60834646  0.79682197  1
  O  O290  1  0.78413711  0.19743274  0.32000616  1
  O  O291  1  0.70573330  0.09911212  0.75510314  1
  O  O292  1  0.74603576  0.60102704  0.25450320  1
  O  O293  1  0.80370478  0.61185410  0.71643122  1
  O  O294  1  0.35840199  0.10327713  0.35441807  1
  O  O295  1  0.40391211  0.05743007  0.86928836  1
  O  O296  1  0.34803606  0.67986230  0.33756956  1
  O  O297  1  0.37331275  0.56985165  0.91122427  1
  O  O298  1  0.87841330  0.18719353  0.44181558  1
  O  O299  1  0.88442426  0.14124696  0.82939104  1
  O  O300  1  0.90746077  0.65910451  0.34628213  1
  O  O301  1  0.93738248  0.63572975  0.78897912  1
  O  O302  1  0.08459271  0.39125965  0.10734832  1
  O  O303  1  0.13276700  0.41042218  0.60629275  1
  O  O304  1  0.10138821  0.92425933  0.11273699  1
  O  O305  1  0.11337009  0.91774468  0.56736291  1
  O  O306  1  0.69361495  0.43223739  0.12226935  1
  O  O307  1  0.63703344  0.30962439  0.66034817  1
  O  O308  1  0.64093790  0.95229749  0.13596292  1
  O  O309  1  0.53864496  0.79863464  0.60728361  1
  O  O310  1  0.12169121  0.24228748  0.25977393  1
  O  O311  1  0.11382418  0.26665029  0.71757671  1
  O  O312  1  0.11058213  0.77046313  0.17994100  1
  O  O313  1  0.26611809  0.67696905  0.83476582  1
  O  O314  1  0.65305328  0.20533103  0.19237300  1
  O  O315  1  0.56970331  0.25730871  0.79028179  1
  O  O316  1  0.60856307  0.71922420  0.21831611  1
  O  O317  1  0.68295654  0.69705097  0.69202654  1
  O  O318  1  0.50612637  0.19437083  0.16856253  1
  O  O319  1  0.43337991  0.17542177  0.77842075  1
  O  O320  1  0.42446497  0.73449785  0.21488806  1
  O  O321  1  0.38724491  0.64370787  0.70982283  1
  O  O322  1  0.92732299  0.27919636  0.26195329  1
  O  O323  1  0.89470257  0.22930798  0.71950091  1
  O  O324  1  0.81129315  0.74029018  0.26173006  1
  O  O325  1  0.84817380  0.73729943  0.74285588  1
  O  O326  1  0.39587372  0.54557853  0.43738332  1
  O  O327  1  0.33082708  0.41354304  0.92345078  1
  O  O328  1  0.29589541  0.95077766  0.43396322  1
  O  O329  1  0.35869191  0.91885355  0.94224448  1
  O  O330  1  0.90154536  0.56676293  0.46543412  1
  O  O331  1  0.86042668  0.67692706  0.93645441  1
  O  O332  1  0.86215663  0.96794786  0.58836118  1
  O  O333  1  0.84227553  0.99855852  1.06092504  1
  O  O334  1  0.10995074  0.03575317  0.00856236  1
  O  O335  1  0.14066402  0.16494374  0.41315234  1
  O  O336  1  0.15113265  0.50027027  0.04352871  1
  O  O337  1  0.12048312  0.51178943  0.49852851  1
  O  O338  1  0.55832932  -0.02711102  -0.03219318  1
  O  O339  1  0.62651929  0.02127352  0.45673772  1
  O  O340  1  0.65577750  0.47574591  -0.02022280  1
  O  O341  1  0.67169932  0.39021392  0.54654434  1
  O  O342  1  0.31775827  0.39343937  0.18674507  1
  O  O343  1  0.34530273  0.33936077  0.61241583  1
  O  O344  1  0.37219130  0.86616091  0.12708079  1
  O  O345  1  0.33378322  0.83967995  0.62929040  1
  O  O346  1  0.85900621  0.42047995  0.13676261  1
  O  O347  1  0.92635310  0.37238326  0.67736227  1
  O  O348  1  0.81914705  0.84858857  0.14467814  1
  O  O349  1  0.77118973  0.86916911  0.71414687  1
  O  O350  1  0.16480739  0.11736215  0.36365803  1
  O  O351  1  0.12180329  0.13246687  0.89157073  1
  O  O352  1  0.12192788  0.71309094  0.42239678  1
  O  O353  1  0.10635646  0.62701085  0.85569923  1
  O  O354  1  0.68477186  0.14366669  0.42561640  1
  O  O355  1  0.51037646  0.14250833  1.00123342  1
  O  O356  1  0.61531891  0.60257359  0.46665159  1
  O  O357  1  0.60280634  0.59521234  0.82380394  1
