# generated using pymatgen
data_V51Zn51O256
_symmetry_space_group_name_H-M   'P 1'
_cell_length_a   17.85330311
_cell_length_b   17.64713257
_cell_length_c   17.70024470
_cell_angle_alpha   88.87826387
_cell_angle_beta   88.80572843
_cell_angle_gamma   91.22661421
_symmetry_Int_Tables_number   1
_chemical_formula_structural   V51Zn51O256
_chemical_formula_sum   'V51 Zn51 O256'
_cell_volume   5573.02462340
_cell_formula_units_Z   1
loop_
 _symmetry_equiv_pos_site_id
 _symmetry_equiv_pos_as_xyz
  1  'x, y, z'
loop_
 _atom_site_type_symbol
 _atom_site_label
 _atom_site_symmetry_multiplicity
 _atom_site_fract_x
 _atom_site_fract_y
 _atom_site_fract_z
 _atom_site_occupancy
  V  V0  1  0.38815820  0.50039826  0.36813812  1
  V  V1  1  0.60008343  0.37902316  0.23373036  1
  V  V2  1  0.30211032  0.06834712  0.39512914  1
  V  V3  1  0.84794504  0.15157291  0.76947714  1
  V  V4  1  0.89923067  0.83771554  -0.02419889  1
  V  V5  1  0.77406680  0.89419177  0.11028659  1
  V  V6  1  0.62479711  0.73613175  0.88024774  1
  V  V7  1  0.08794278  0.85528099  0.75234616  1
  V  V8  1  0.51064749  0.38062269  0.41448855  1
  V  V9  1  0.60409665  0.33702366  0.78356626  1
  V  V10  1  0.73646157  0.20455373  0.43515811  1
  V  V11  1  0.37752229  0.65097301  0.25851702  1
  V  V12  1  0.87038917  -0.01250072  0.86942692  1
  V  V13  1  0.92658435  -0.01787000  0.35773664  1
  V  V14  1  0.86488594  0.71836585  0.61583292  1
  V  V15  1  0.50735356  0.18685608  0.78565651  1
  V  V16  1  0.47724442  0.29367787  0.91094935  1
  V  V17  1  0.21698857  0.88054805  0.61632190  1
  V  V18  1  0.70613258  0.22551892  0.02880798  1
  V  V19  1  0.68350485  0.87936593  0.26090565  1
  V  V20  1  0.87079162  0.59050735  0.74636011  1
  V  V21  1  0.62196540  0.85178942  0.71201684  1
  V  V22  1  0.48229758  0.65253213  0.11431318  1
  V  V23  1  0.84800506  0.69628876  0.10918596  1
  V  V24  1  0.17539704  0.78515916  0.49489132  1
  V  V25  1  0.38464645  0.39170563  0.54928581  1
  V  V26  1  0.79696250  0.70903276  0.43567729  1
  V  V27  1  0.76305038  0.35728453  0.63254016  1
  V  V28  1  0.21591684  -0.01833629  0.75548666  1
  V  V29  1  0.78082984  0.34012187  0.17121046  1
  V  V30  1  -0.02513601  0.15045264  0.64323678  1
  V  V31  1  0.88005046  0.47678073  0.87969766  1
  V  V32  1  0.06079006  -0.01179567  0.63066689  1
  V  V33  1  0.24324684  0.08125238  0.88834037  1
  V  V34  1  0.32244996  0.23102089  0.61085306  1
  V  V35  1  0.53409411  0.88732802  0.87880613  1
  V  V36  1  0.13592614  0.28051529  0.41393572  1
  V  V37  1  0.50951287  0.61720283  0.64395026  1
  V  V38  1  0.10329987  0.62248448  -0.03877658  1
  V  V39  1  -0.02338470  0.72834411  0.75284209  1
  V  V40  1  0.12628961  0.50531522  0.60484791  1
  V  V41  1  0.37398360  0.55024567  0.83586653  1
  V  V42  1  0.76422888  0.55613997  0.32603273  1
  V  V43  1  0.35834669  0.68949093  0.73350213  1
  V  V44  1  0.77007078  0.87219326  0.61748214  1
  V  V45  1  0.66190053  -0.00047291  0.60328008  1
  V  V46  1  0.14692269  0.21628436  0.82222997  1
  V  V47  1  0.60370714  0.03183864  0.16049192  1
  V  V48  1  0.72230503  0.48778882  0.77438237  1
  V  V49  1  0.48705938  0.25614154  0.28644591  1
  V  V50  1  0.28278055  0.78443689  -0.04689826  1
  Zn  Zn51  1  0.51787025  0.41442371  0.62875522  1
  Zn  Zn52  1  0.18655756  0.57674704  0.23978439  1
  Zn  Zn53  1  0.28972556  0.09679135  0.05839416  1
  Zn  Zn54  1  0.50184963  0.52400399  0.22839097  1
  Zn  Zn55  1  0.47481018  0.95628441  0.64448704  1
  Zn  Zn56  1  0.85815756  0.27519703  0.33276486  1
  Zn  Zn57  1  0.35254925  0.86019050  0.80298264  1
  Zn  Zn58  1  0.44228124  0.19868714  0.47096248  1
  Zn  Zn59  1  0.44690108  1.13242310  0.16216681  1
  Zn  Zn60  1  0.85324162  0.50411028  0.08200273  1
  Zn  Zn61  1  0.16964904  0.69876427  0.67995696  1
  Zn  Zn62  1  0.79246435  0.12052848  0.59096583  1
  Zn  Zn63  1  0.53570894  0.28227914  0.09458435  1
  Zn  Zn64  1  0.80236958  0.79946487  0.80264148  1
  Zn  Zn65  1  0.16845398  0.14200010  0.66938166  1
  Zn  Zn66  1  0.74183972  0.92850843  0.44623944  1
  Zn  Zn67  1  0.18825017  0.48734238  0.40477452  1
  Zn  Zn68  1  0.05660769  0.38466622  -0.15847465  1
  Zn  Zn69  1  0.90718501  0.90740238  0.70620538  1
  Zn  Zn70  1  0.33030788  0.32409145  0.35832792  1
  Zn  Zn71  1  0.15112925  0.97963252  0.46177058  1
  Zn  Zn72  1  0.07427191  0.31425199  0.67755833  1
  Zn  Zn73  1  0.29249028  0.65480997  0.09682625  1
  Zn  Zn74  1  0.04128637  0.54194214  0.79323223  1
  Zn  Zn75  1  0.91358181  0.15155180  0.45768504  1
  Zn  Zn76  1  0.67180173  0.17891721  0.70137793  1
  Zn  Zn77  1  0.67960586  0.69014891  0.20627772  1
  Zn  Zn78  1  0.07219790  0.09359120  0.34370906  1
  Zn  Zn79  1  0.58244952  0.02917978  0.77110917  1
  Zn  Zn80  1  0.54938087  0.56806006  0.82741264  1
  Zn  Zn81  1  0.66426765  0.71382502  0.57056187  1
  Zn  Zn82  1  0.44672235  0.75088970  0.94890452  1
  Zn  Zn83  1  0.33027024  0.53221419  0.64102731  1
  Zn  Zn84  1  0.71770022  0.95059496  0.81265614  1
  Zn  Zn85  1  0.32385743  0.69605267  0.39717105  1
  Zn  Zn86  1  0.09723841  0.22713373  0.22501787  1
  Zn  Zn87  1  0.30002384  0.05087045  0.59073872  1
  Zn  Zn88  1  0.59846051  0.82148551  0.04366807  1
  Zn  Zn89  1  0.03537911  0.79934952  0.57964820  1
  Zn  Zn90  1  0.10195814  0.82995709  -0.04635388  1
  Zn  Zn91  1  0.91609382  0.66562068  0.92467707  1
  Zn  Zn92  1  0.72138703  0.02982708  -0.00066486  1
  Zn  Zn93  1  0.90374986  0.33836166  0.75110670  1
  Zn  Zn94  1  0.71323452  0.68783559  0.72764508  1
  Zn  Zn95  1  0.34579947  0.22073252  0.80736633  1
  Zn  Zn96  1  0.03277372  0.05872810  0.79197151  1
  Zn  Zn97  1  0.62714631  0.17005239  0.28694860  1
  Zn  Zn98  1  0.85088248  0.80423708  0.26496473  1
  Zn  Zn99  1  0.21009225  0.49331736  0.87459112  1
  Zn  Zn100  1  0.77325636  0.31433530  0.85995852  1
  Zn  Zn101  1  0.71762454  0.38604556  0.43561361  1
  O  O102  1  -0.00228523  0.28509385  0.20036247  1
  O  O103  1  0.06921368  0.09514340  0.65820969  1
  O  O104  1  0.11992873  0.60645796  0.05565624  1
  O  O105  1  0.13862662  0.60608902  0.61923162  1
  O  O106  1  0.64815326  0.10717342  0.20008783  1
  O  O107  1  0.69328650  0.09472617  0.62562722  1
  O  O108  1  0.58612561  0.68214390  0.13186174  1
  O  O109  1  0.56682693  0.66937972  0.57995566  1
  O  O110  1  0.38075529  0.39202495  0.42230786  1
  O  O111  1  0.38641394  0.29190420  0.88012031  1
  O  O112  1  0.27301472  0.97529575  0.37228714  1
  O  O113  1  0.44594215  0.89501765  0.84522490  1
  O  O114  1  0.99836534  0.52164743  0.33035549  1
  O  O115  1  0.86438411  0.38042628  0.85137074  1
  O  O116  1  0.90252632  0.90028422  0.30848231  1
  O  O117  1  0.85905103  0.80496747  0.89529864  1
  O  O118  1  0.22239123  0.06638821  0.46711072  1
  O  O119  1  0.19457887  -0.00426327  0.85650316  1
  O  O120  1  0.29263112  0.49509915  0.39300889  1
  O  O121  1  0.24213844  0.35964899  0.74931424  1
  O  O122  1  0.84731129  -0.03725186  0.42231335  1
  O  O123  1  0.75711564  -0.01538731  0.90569109  1
  O  O124  1  0.72902995  0.47853072  0.37749220  1
  O  O125  1  0.77311360  0.48758100  0.85682271  1
  O  O126  1  0.24557680  0.43162102  0.23652243  1
  O  O127  1  0.21919325  0.50287845  0.64514078  1
  O  O128  1  0.20544075  1.01571202  0.19873594  1
  O  O129  1  0.21203594  0.98386427  0.62882803  1
  O  O130  1  0.82681513  0.40816949  0.11676241  1
  O  O131  1  0.74187515  0.44314573  0.68617198  1
  O  O132  1  0.78434695  0.98580527  0.08602606  1
  O  O133  1  0.78465452  0.96785582  0.61978112  1
  O  O134  1  0.04448716  0.52397209  0.15746644  1
  O  O135  1  0.00911149  0.35493190  0.75071216  1
  O  O136  1  0.03912355  0.91031640  0.12396256  1
  O  O137  1  -0.01394457  0.84172772  0.74551906  1
  O  O138  1  0.50833618  0.36474727  0.30136783  1
  O  O139  1  0.49469245  0.27309530  0.74738562  1
  O  O140  1  0.46372580  0.91388632  0.30624149  1
  O  O141  1  0.52921110  0.88048073  0.69828361  1
  O  O142  1  0.51586764  0.16848704  0.31947566  1
  O  O143  1  0.56827685  0.12607052  0.73120541  1
  O  O144  1  0.47619738  0.63299566  0.23953668  1
  O  O145  1  0.54214908  0.62727611  0.73182881  1
  O  O146  1  1.06315764  0.13118570  0.24744431  1
  O  O147  1  0.95838260  0.13025452  0.74905052  1
  O  O148  1  1.03110909  0.73408251  0.14367178  1
  O  O149  1  0.97891973  0.62326885  0.74270188  1
  O  O150  1  0.33344565  0.25935798  0.08803690  1
  O  O151  1  0.40316302  0.19632824  0.57400211  1
  O  O152  1  0.36940766  0.82361052  -0.02625453  1
  O  O153  1  0.34392713  0.64999206  0.51062862  1
  O  O154  1  1.02020144  0.26121078  0.03345410  1
  O  O155  1  0.92939494  0.38725938  0.52442429  1
  O  O156  1  0.88953346  0.72189424  0.01431303  1
  O  O157  1  0.86197794  0.71999259  0.51455663  1
  O  O158  1  0.15564064  0.24931084  0.50373586  1
  O  O159  1  0.18280371  0.25132200  1.01656216  1
  O  O160  1  0.08129583  0.76949111  0.48427686  1
  O  O161  1  0.08356530  0.71819499  0.97274026  1
  O  O162  1  0.56571597  0.13449727  0.53651487  1
  O  O163  1  0.61199087  0.22004931  1.04935568  1
  O  O164  1  0.70599263  0.71263791  0.46788954  1
  O  O165  1  0.65008729  0.75901005  0.96804593  1
  O  O166  1  0.48397734  0.23221341  0.18253211  1
  O  O167  1  0.54552894  0.18835141  0.57747057  1
  O  O168  1  0.54508164  0.75187026  0.12464420  1
  O  O169  1  0.40866666  0.83558317  0.47996097  1
  O  O170  1  0.99886148  0.35389687  0.18120653  1
  O  O171  1  1.00829998  0.24066757  0.63087461  1
  O  O172  1  1.07212932  0.96988071  0.13811500  1
  O  O173  1  0.96582141  0.73425607  0.62965023  1
  O  O174  1  0.04757163  0.31399612  0.43650496  1
  O  O175  1  0.11319043  0.29260794  0.86886079  1
  O  O176  1  0.08269009  0.67098168  0.33016526  1
  O  O177  1  -0.02341635  0.72793122  0.84777757  1
  O  O178  1  0.48107978  0.27957758  0.40884029  1
  O  O179  1  0.51334052  0.20335607  0.89019115  1
  O  O180  1  0.56122461  0.81082976  0.41245394  1
  O  O181  1  0.52553372  0.77036500  0.87336832  1
  O  O182  1  0.25574183  0.15391238  0.60148750  1
  O  O183  1  0.21977267  0.08861486  0.98489789  1
  O  O184  1  0.29151601  0.64063287  0.55869021  1
  O  O185  1  0.19215618  0.66159446  0.93175256  1
  O  O186  1  0.80721311  0.14840364  0.48638563  1
  O  O187  1  0.73921726  0.13832198  1.00935333  1
  O  O188  1  0.81062068  0.62008558  0.39743878  1
  O  O189  1  0.68568805  0.58137438  1.01291208  1
  O  O190  1  0.20391107  0.38021635  0.09947049  1
  O  O191  1  0.31015927  0.31667179  0.55493054  1
  O  O192  1  0.20412033  0.83105445  -0.01054503  1
  O  O193  1  0.19316082  0.88602456  0.50201835  1
  O  O194  1  0.99424777  0.32438563  0.02259181  1
  O  O195  1  0.75356040  0.38199688  0.53906013  1
  O  O196  1  0.68843275  0.86142201  0.08632811  1
  O  O197  1  0.76539404  0.85129932  0.52093075  1
  O  O198  1  0.20308093  0.61026242  0.13670837  1
  O  O199  1  0.07109063  0.50776436  0.68928449  1
  O  O200  1  0.11999294  1.00323105  0.36350183  1
  O  O201  1  0.09799911  0.97062434  0.74034637  1
  O  O202  1  0.59228337  0.47499063  0.25466355  1
  O  O203  1  0.63244514  0.51053895  0.78767371  1
  O  O204  1  0.41702285  0.89719935  0.25872800  1
  O  O205  1  0.65825445  0.97041881  0.72387942  1
  O  O206  1  0.24686851  0.11706187  0.33501798  1
  O  O207  1  0.30429810  -0.05054427  0.76247579  1
  O  O208  1  0.40067799  0.48219478  0.27472969  1
  O  O209  1  0.34637644  0.52542783  0.74721101  1
  O  O210  1  0.86100538  0.04918411  0.32428913  1
  O  O211  1  0.83916842  -0.06805605  0.79181144  1
  O  O212  1  1.05685189  0.58091326  0.20148639  1
  O  O213  1  0.88645484  0.49940720  0.73845360  1
  O  O214  1  0.16219144  0.37938943  0.42133410  1
  O  O215  1  0.20317355  0.31553766  0.99693260  1
  O  O216  1  0.06834298  0.83743358  0.26468185  1
  O  O217  1  0.10318727  0.85350771  0.84545203  1
  O  O218  1  0.60430389  0.38063994  0.42421181  1
  O  O219  1  0.54123810  0.36056589  0.86143844  1
  O  O220  1  0.69783649  0.90474918  0.35112044  1
  O  O221  1  0.62393604  0.85172788  0.82163981  1
  O  O222  1  0.34914818  0.11371610  0.13513718  1
  O  O223  1  0.39119354  0.01097355  0.62438719  1
  O  O224  1  0.38342836  0.67680000  0.14836833  1
  O  O225  1  0.40778592  0.64439488  0.65435885  1
  O  O226  1  0.92070886  0.08344921  0.12438922  1
  O  O227  1  0.86507747  0.15384977  0.66195606  1
  O  O228  1  0.87105910  0.60145890  0.11317671  1
  O  O229  1  0.86866047  0.62247278  0.64111570  1
  O  O230  1  0.16442762  0.26408500  0.14661495  1
  O  O231  1  0.32528478  0.24764112  0.70426600  1
  O  O232  1  0.30005083  0.69329752  -0.00328927  1
  O  O233  1  0.18961309  0.76857072  0.59301057  1
  O  O234  1  0.75140486  0.26487058  0.11314096  1
  O  O235  1  0.71442862  0.27460860  0.65563790  1
  O  O236  1  0.75274347  0.70163246  0.11997408  1
  O  O237  1  0.75712662  0.72227113  0.62875149  1
  O  O238  1  0.23546076  0.27619572  0.38558821  1
  O  O239  1  0.24119979  0.18643151  0.85143320  1
  O  O240  1  0.23237848  0.73638642  0.43512241  1
  O  O241  1  0.28049927  0.78986185  0.85658987  1
  O  O242  1  0.77453316  0.29511224  0.39989378  1
  O  O243  1  0.72538631  0.28547352  0.95261787  1
  O  O244  1  0.81471482  0.77470924  0.36399914  1
  O  O245  1  0.71363263  0.72919350  0.82780091  1
  O  O246  1  -0.07237067  0.14628560  0.15272586  1
  O  O247  1  -0.04246620  0.12409844  0.55119424  1
  O  O248  1  0.00597335  0.60358833  -0.02857163  1
  O  O249  1  0.01777842  0.68002324  0.30481423  1
  O  O250  1  0.43566754  0.00404056  0.01353526  1
  O  O251  1  0.52740183  0.12347103  0.47255156  1
  O  O252  1  0.46738477  0.67104058  0.02024124  1
  O  O253  1  0.42007873  0.78246756  0.43650326  1
  O  O254  1  0.48530364  0.38194913  0.52096670  1
  O  O255  1  0.47685649  0.30762769  1.00556892  1
  O  O256  1  0.55490016  0.86777552  0.45025029  1
  O  O257  1  0.53418517  0.87720940  0.97718477  1
  O  O258  1  0.91653794  0.41794006  0.46328105  1
  O  O259  1  1.12874148  0.46863423  0.81889277  1
  O  O260  1  1.10100798  0.83193173  0.32500580  1
  O  O261  1  0.99524772  0.84084389  0.97849282  1
  O  O262  1  0.48583788  0.48157796  0.39996163  1
  O  O263  1  0.45953985  0.51543930  0.85839842  1
  O  O264  1  0.37557730  1.04740729  0.33560395  1
  O  O265  1  0.56914166  0.98091403  0.86617192  1
  O  O266  1  1.14129752  0.51748720  0.31873768  1
  O  O267  1  0.97982915  0.47182546  0.85963899  1
  O  O268  1  0.98938780  0.99416564  0.27922017  1
  O  O269  1  0.96453138  0.98835940  0.84413886  1
  O  O270  1  0.05267606  0.10712024  0.02624086  1
  O  O271  1  -0.03409661  -0.01772823  0.64565063  1
  O  O272  1  0.09813714  0.47694348  0.14702111  1
  O  O273  1  0.04784557  0.51473397  0.54808708  1
  O  O274  1  0.50861886  0.04610653  0.16696202  1
  O  O275  1  0.56693432  0.00675164  0.60542042  1
  O  O276  1  0.49383521  0.55694262  0.11773435  1
  O  O277  1  0.50976633  0.52451510  0.61924996  1
  O  O278  1  0.27924940  0.37386462  0.25566647  1
  O  O279  1  0.26941809  0.39007456  0.80517081  1
  O  O280  1  0.23422887  0.82760281  0.20547253  1
  O  O281  1  0.19273500  0.86676491  0.71973988  1
  O  O282  1  0.70460822  0.37970080  0.21867542  1
  O  O283  1  0.69395296  0.37539497  0.80848342  1
  O  O284  1  0.77868816  0.88246173  0.21553128  1
  O  O285  1  0.73869062  0.84628956  0.72214048  1
  O  O286  1  0.19472469  0.07660029  0.16505359  1
  O  O287  1  0.22810108  0.07765546  0.73919828  1
  O  O288  1  0.29577422  0.59871300  0.24697270  1
  O  O289  1  0.26469872  0.67465489  0.71978910  1
  O  O290  1  0.70461970  0.15457765  0.35841668  1
  O  O291  1  0.75590248  0.12794510  0.76037411  1
  O  O292  1  0.69922897  0.61085223  0.27702534  1
  O  O293  1  0.76350624  0.58700974  0.74514984  1
  O  O294  1  0.34858295  0.15436010  0.42254681  1
  O  O295  1  0.33179507  0.06339978  0.88818380  1
  O  O296  1  0.38938644  0.60716989  0.36444892  1
  O  O297  1  0.38120937  0.65365917  0.82777935  1
  O  O298  1  0.97347714  0.06866404  0.39912019  1
  O  O299  1  0.85966718  0.08814037  0.85276519  1
  O  O300  1  0.83136235  0.52901878  0.26811950  1
  O  O301  1  0.87776983  0.58933007  0.85400309  1
  O  O302  1  0.15173714  0.34358921  0.13544635  1
  O  O303  1  0.12073402  0.40388484  0.61705070  1
  O  O304  1  0.18906981  0.86812582  0.17360609  1
  O  O305  1  0.08446440  0.88285815  0.62931653  1
  O  O306  1  0.56564118  0.37523261  0.14516258  1
  O  O307  1  0.59025124  0.37907596  0.69671823  1
  O  O308  1  0.62358052  0.94298787  0.21530015  1
  O  O309  1  0.65892257  0.88433626  0.61467104  1
  O  O310  1  0.11961485  0.28645389  0.31128167  1
  O  O311  1  0.14487929  0.23813837  0.72408869  1
  O  O312  1  0.09807814  0.75059788  0.14540941  1
  O  O313  1  0.08659495  0.74921462  0.72823497  1
  O  O314  1  0.60323167  0.27834896  0.26560780  1
  O  O315  1  0.62851063  0.24331604  0.78911243  1
  O  O316  1  0.65637162  0.78717038  0.25504391  1
  O  O317  1  0.62160437  0.75616577  0.69502963  1
  O  O318  1  0.38913011  0.26301932  0.29479048  1
  O  O319  1  0.42180392  0.14283056  0.78390187  1
  O  O320  1  0.35527064  0.73672896  0.29620727  1
  O  O321  1  0.38131391  0.78187268  0.72964431  1
  O  O322  1  0.93216643  0.22165984  0.37980379  1
  O  O323  1  0.84487369  0.24549428  0.79892744  1
  O  O324  1  0.88576809  0.74172150  0.18751721  1
  O  O325  1  0.87171275  0.72426248  0.74279393  1
  O  O326  1  0.35467603  0.48400716  0.54801803  1
  O  O327  1  0.30551286  0.51843719  0.90175389  1
  O  O328  1  0.34776830  1.03650364  0.48592614  1
  O  O329  1  0.30093185  0.94375095  1.07794179  1
  O  O330  1  0.97788180  0.45937776  0.30861771  1
  O  O331  1  0.87412249  0.48277454  0.97480528  1
  O  O332  1  0.98183326  0.93714758  0.42483016  1
  O  O333  1  0.88463686  0.93829995  0.95909749  1
  O  O334  1  0.08166251  0.12701699  0.08491855  1
  O  O335  1  0.07910968  0.00504756  0.53728711  1
  O  O336  1  0.13466571  0.52536356  -0.04456795  1
  O  O337  1  0.17384812  0.50533657  0.51240524  1
  O  O338  1  0.63074117  0.02146920  0.06786735  1
  O  O339  1  0.68438261  -0.00468873  0.50849136  1
  O  O340  1  0.62703336  0.54542084  0.02367345  1
  O  O341  1  0.55695007  0.62247819  0.43225518  1
  O  O342  1  0.32675416  0.31472882  0.12790870  1
  O  O343  1  0.40888369  0.38383064  0.64230171  1
  O  O344  1  0.34680371  0.91235605  0.11763008  1
  O  O345  1  0.30632507  0.86632753  0.61042279  1
  O  O346  1  0.84427829  0.30566457  0.23370088  1
  O  O347  1  0.85548743  0.34282191  0.65373992  1
  O  O348  1  0.84797353  0.84380292  0.06954523  1
  O  O349  1  0.86281680  0.83399015  0.63373753  1
  O  O350  1  0.10597998  0.18314313  0.39728365  1
  O  O351  1  0.09619678  0.13499712  0.84204397  1
  O  O352  1  0.14114940  0.68145549  0.28121631  1
  O  O353  1  0.08767033  0.61500126  0.85990674  1
  O  O354  1  0.66751145  0.22681790  0.49186640  1
  O  O355  1  0.48069878  0.04683864  0.98088837  1
  O  O356  1  0.56132275  0.65949574  0.37350841  1
  O  O357  1  0.59870722  0.64256471  0.88669713  1
