# generated using pymatgen
data_V51Zn51O256
_symmetry_space_group_name_H-M   'P 1'
_cell_length_a   17.64531593
_cell_length_b   17.91852306
_cell_length_c   17.92043656
_cell_angle_alpha   91.84552025
_cell_angle_beta   89.14113318
_cell_angle_gamma   91.94376637
_symmetry_Int_Tables_number   1
_chemical_formula_structural   V51Zn51O256
_chemical_formula_sum   'V51 Zn51 O256'
_cell_volume   5659.30242954
_cell_formula_units_Z   1
loop_
 _symmetry_equiv_pos_site_id
 _symmetry_equiv_pos_as_xyz
  1  'x, y, z'
loop_
 _atom_site_type_symbol
 _atom_site_label
 _atom_site_symmetry_multiplicity
 _atom_site_fract_x
 _atom_site_fract_y
 _atom_site_fract_z
 _atom_site_occupancy
  V  V0  1  0.00599531  0.60435841  0.71938056  1
  V  V1  1  0.09588401  0.65283454  0.47680519  1
  V  V2  1  0.32506461  0.77161642  0.13293305  1
  V  V3  1  0.32476243  0.40919862  0.50480817  1
  V  V4  1  0.70819857  0.66724544  0.88729802  1
  V  V5  1  0.80996972  -0.03836203  0.76373514  1
  V  V6  1  0.72366375  0.21978058  0.01419131  1
  V  V7  1  0.47997649  -0.01997928  -0.04277505  1
  V  V8  1  0.61630480  0.24919177  0.83697912  1
  V  V9  1  0.88958195  0.45560310  0.94036095  1
  V  V10  1  0.52208645  0.65659270  0.12240930  1
  V  V11  1  0.63429788  0.06300704  -0.04069176  1
  V  V12  1  0.11916271  0.24375318  0.34801713  1
  V  V13  1  0.29695534  0.66260471  0.25507290  1
  V  V14  1  0.36618915  0.58859216  0.77780169  1
  V  V15  1  0.29208562  0.19751599  0.38746146  1
  V  V16  1  -0.00243011  0.35145903  0.35291509  1
  V  V17  1  0.82316709  -0.01845167  0.37520611  1
  V  V18  1  0.54845001  0.00504747  0.17964629  1
  V  V19  1  0.70107105  0.60420299  0.52675439  1
  V  V20  1  0.78846588  0.46075046  0.19798974  1
  V  V21  1  0.50833781  0.79929467  0.38382409  1
  V  V22  1  0.24582258  0.13449298  0.82376800  1
  V  V23  1  0.51328634  0.37413258  0.89211499  1
  V  V24  1  0.91563511  0.86184155  -0.01849773  1
  V  V25  1  0.22793314  0.60422081  0.88430191  1
  V  V26  1  0.39911485  0.09618134  0.73785497  1
  V  V27  1  0.68031460  0.73979112  0.38079637  1
  V  V28  1  0.02761155  0.48173003  0.50211903  1
  V  V29  1  0.30834794  0.48972333  0.30116251  1
  V  V30  1  0.38349569  0.26468080  0.62950349  1
  V  V31  1  0.75987240  0.84911488  0.62952194  1
  V  V32  1  -0.06680784  0.13333880  0.60136356  1
  V  V33  1  0.54388337  0.28076883  0.21032167  1
  V  V34  1  0.12378566  0.02615166  0.14212985  1
  V  V35  1  0.63606140  0.28533717  0.37851435  1
  V  V36  1  0.62381704  -0.03304566  0.63102021  1
  V  V37  1  0.78785958  0.75163773  -0.00689339  1
  V  V38  1  0.12049198  0.47234430  0.09744264  1
  V  V39  1  0.10414539  0.13555080  0.55996176  1
  V  V40  1  0.91603531  0.75015085  0.65730649  1
  V  V41  1  0.24887059  0.73984610  -0.02384661  1
  V  V42  1  0.88142863  0.10815221  0.24017378  1
  V  V43  1  0.32081359  0.28560358  0.04007990  1
  V  V44  1  0.53745737  0.51461479  0.51578138  1
  V  V45  1  0.78613829  0.86488578  0.11939589  1
  V  V46  1  0.48133468  0.73805598  0.72920707  1
  V  V47  1  0.88189358  0.13285541  0.78377528  1
  V  V48  1  0.19304689  0.94092070  0.29461208  1
  V  V49  1  0.86474439  0.41745376  0.56752643  1
  V  V50  1  0.01088006  -0.00132175  0.49786571  1
  Zn  Zn51  1  0.23263890  0.55476753  0.46894588  1
  Zn  Zn52  1  0.26912800  0.29908859  0.23074296  1
  Zn  Zn53  1  0.43108184  0.92505633  0.65941928  1
  Zn  Zn54  1  0.41918030  0.46433832  0.64026596  1
  Zn  Zn55  1  0.21357225  1.04400651  0.45683616  1
  Zn  Zn56  1  0.34159359  0.30884703  0.81354946  1
  Zn  Zn57  1  0.80089358  0.84141348  0.29840416  1
  Zn  Zn58  1  0.02700834  0.59961460  0.90455486  1
  Zn  Zn59  1  0.17614637  0.91156111  0.96345141  1
  Zn  Zn60  1  0.01167482  0.30619774  0.56027178  1
  Zn  Zn61  1  0.20866437  0.41811980  0.91865266  1
  Zn  Zn62  1  0.05406349  0.06327310  0.31910351  1
  Zn  Zn63  1  0.82156586  0.80477730  0.82144076  1
  Zn  Zn64  1  0.61510372  0.36932460  1.04385930  1
  Zn  Zn65  1  -0.01401574  0.79920568  0.52650660  1
  Zn  Zn66  1  0.50564479  0.84401455  0.10393610  1
  Zn  Zn67  1  0.68161874  0.68457588  0.70368363  1
  Zn  Zn68  1  0.74517430  0.05843151  0.11025040  1
  Zn  Zn69  1  0.80978509  0.27224398  0.88316268  1
  Zn  Zn70  1  0.70850550  0.70931655  0.18646606  1
  Zn  Zn71  1  0.55476490  0.02452729  0.79817751  1
  Zn  Zn72  1  0.39373005  0.94752584  0.08504388  1
  Zn  Zn73  1  0.90861028  0.61122289  0.55040413  1
  Zn  Zn74  1  0.52513712  0.31592785  0.50223219  1
  Zn  Zn75  1  0.30051911  0.06864977  0.01398275  1
  Zn  Zn76  1  0.69332061  0.10834121  0.76308540  1
  Zn  Zn77  1  0.57635869  0.54178819  0.97514314  1
  Zn  Zn78  1  0.43540666  0.61266478  0.37684116  1
  Zn  Zn79  1  0.44932247  0.15368780  0.91025356  1
  Zn  Zn80  1  0.95106279  0.39972260  0.17966538  1
  Zn  Zn81  1  0.91921603  0.93719626  0.64566571  1
  Zn  Zn82  1  0.26590710  0.14496556  0.63144168  1
  Zn  Zn83  1  0.80153513  0.97282862  0.96255110  1
  Zn  Zn84  1  0.37609408  0.86824023  0.26460940  1
  Zn  Zn85  1  0.92655337  0.98869668  0.10852420  1
  Zn  Zn86  1  0.04740101  0.11805205  0.86214760  1
  Zn  Zn87  1  0.52784846  0.14868555  0.29497491  1
  Zn  Zn88  1  0.82477782  0.28330841  0.30759405  1
  Zn  Zn89  1  0.41396323  0.29628916  0.36272703  1
  Zn  Zn90  1  0.17822534  0.65660059  0.62979385  1
  Zn  Zn91  1  0.67955458  0.90425612  0.46351890  1
  Zn  Zn92  1  0.27440568  0.59170006  0.07876702  1
  Zn  Zn93  1  0.92560803  0.43456338  0.74324714  1
  Zn  Zn94  1  0.80079545  0.01970060  0.56463064  1
  Zn  Zn95  1  0.15638835  0.76916955  0.21693952  1
  Zn  Zn96  1  0.62282445  0.15654479  0.11477197  1
  Zn  Zn97  1  0.16786175  0.41605142  0.42132941  1
  Zn  Zn98  1  0.20584515  0.27369377  0.52845635  1
  Zn  Zn99  1  0.68793548  0.41275465  0.47390794  1
  Zn  Zn100  1  0.06621271  0.75728323  0.02103218  1
  Zn  Zn101  1  0.14584641  0.30389725  -0.00005770  1
  O  O102  1  0.12294344  0.11502909  0.12984089  1
  O  O103  1  0.09484299  0.12535701  0.64940400  1
  O  O104  1  0.08907329  0.56227141  0.09253320  1
  O  O105  1  0.09740479  0.63140032  0.69242517  1
  O  O106  1  0.62889118  0.04905947  0.13379626  1
  O  O107  1  0.65424852  0.15445837  0.52585061  1
  O  O108  1  0.61418866  0.67070144  0.14416888  1
  O  O109  1  0.66879719  0.62173181  0.61521429  1
  O  O110  1  0.30494856  0.40241080  0.26006883  1
  O  O111  1  0.41974900  0.34592603  0.87731791  1
  O  O112  1  0.46589103  0.85271743  0.31635152  1
  O  O113  1  0.26407203  0.89423137  0.74984255  1
  O  O114  1  0.90228751  0.33183682  0.36470325  1
  O  O115  1  0.88356620  0.35932658  0.89870950  1
  O  O116  1  0.87597690  0.91157804  0.33427781  1
  O  O117  1  0.90288139  0.84876004  0.88871994  1
  O  O118  1  0.27545446  0.10205530  0.38439147  1
  O  O119  1  0.23365041  -0.01647106  0.89453707  1
  O  O120  1  0.23584730  0.49213490  0.37226915  1
  O  O121  1  0.25319003  0.51904412  0.91503450  1
  O  O122  1  0.73101529  -0.05468767  0.37388637  1
  O  O123  1  0.78881569  -0.03782822  0.85772439  1
  O  O124  1  0.80198612  0.42959459  0.29272250  1
  O  O125  1  0.79251324  0.45491251  0.94738836  1
  O  O126  1  0.22090431  0.49617978  0.09092807  1
  O  O127  1  0.34147061  0.63783924  0.59029187  1
  O  O128  1  0.23768811  1.01230906  0.09296878  1
  O  O129  1  0.32023088  0.96240995  0.56073726  1
  O  O130  1  0.76821179  0.50347283  0.11489559  1
  O  O131  1  0.71454100  0.48736296  0.67623314  1
  O  O132  1  0.74162243  0.94545041  0.12599532  1
  O  O133  1  0.78655690  0.96460507  0.65465712  1
  O  O134  1  0.00625339  0.39605046  0.27051144  1
  O  O135  1  -0.02062724  0.33849690  0.75658820  1
  O  O136  1  -0.00426140  0.75013065  0.16770388  1
  O  O137  1  0.08647037  0.91773167  0.74278785  1
  O  O138  1  0.48981999  0.41164135  0.23486331  1
  O  O139  1  0.56686659  0.48168221  0.75176002  1
  O  O140  1  0.43786859  0.97637556  0.45251057  1
  O  O141  1  0.45424466  0.83048520  0.70711498  1
  O  O142  1  0.46903664  0.24607252  0.27932420  1
  O  O143  1  0.49355233  0.09884244  0.74985965  1
  O  O144  1  0.46843430  0.63164333  0.22192181  1
  O  O145  1  0.48243873  0.64005664  0.74437840  1
  O  O146  1  0.97481690  0.09417227  0.25182372  1
  O  O147  1  0.93687105  0.11700943  0.70300901  1
  O  O148  1  1.00119201  0.61611826  0.24429333  1
  O  O149  1  0.98678858  0.62871725  0.81180611  1
  O  O150  1  0.36681091  0.20971879  -0.03370486  1
  O  O151  1  0.36226190  0.37580242  0.42309600  1
  O  O152  1  0.33026731  0.76842196  0.02530046  1
  O  O153  1  0.30243634  0.78497302  0.45164130  1
  O  O154  1  0.81150446  0.21295814  -0.02712842  1
  O  O155  1  0.90999369  0.34094380  0.53249953  1
  O  O156  1  0.88375502  0.75675839  0.00870651  1
  O  O157  1  0.90682468  0.72503428  0.55400967  1
  O  O158  1  0.10214306  0.23722903  0.54912816  1
  O  O159  1  0.25367623  0.33161925  0.98184365  1
  O  O160  1  0.07465843  0.74283781  0.50354977  1
  O  O161  1  0.17130091  0.80429792  0.98037596  1
  O  O162  1  0.63690629  0.30899823  0.48165876  1
  O  O163  1  0.63032244  0.15864560  1.00120177  1
  O  O164  1  0.66506545  0.69227799  0.48320579  1
  O  O165  1  0.61559135  0.86146801  0.87422337  1
  O  O166  1  0.55213126  0.18354346  0.18789784  1
  O  O167  1  0.46523689  0.26644084  0.57663828  1
  O  O168  1  0.47824239  0.74187180  0.10925374  1
  O  O169  1  0.48523694  0.73055375  0.62989117  1
  O  O170  1  0.96453764  0.25871700  0.08545261  1
  O  O171  1  0.95566281  0.22561896  0.61148111  1
  O  O172  1  1.07492658  0.75577979  0.13756716  1
  O  O173  1  1.00181798  0.79223291  0.66154891  1
  O  O174  1  0.02110946  0.25519259  0.32237092  1
  O  O175  1  0.05222042  0.17512606  0.97469620  1
  O  O176  1  0.00678201  0.57574065  0.29779740  1
  O  O177  1  0.04779036  0.78883721  0.82377017  1
  O  O178  1  0.52037277  0.31345604  0.39275154  1
  O  O179  1  0.53931489  0.19834114  0.86631145  1
  O  O180  1  0.49644753  0.70436431  0.36481676  1
  O  O181  1  0.49958879  0.77601325  0.81690545  1
  O  O182  1  0.20833522  0.12373621  0.54161276  1
  O  O183  1  0.24371753  0.05818119  0.91626740  1
  O  O184  1  0.18864541  0.63953880  0.52211645  1
  O  O185  1  0.22283326  0.64743045  1.00004273  1
  O  O186  1  0.71414873  0.15576437  0.49048614  1
  O  O187  1  0.72784030  0.04669763  0.99378464  1
  O  O188  1  0.79555932  0.59729247  0.52660292  1
  O  O189  1  0.77612600  0.65343488  0.95855015  1
  O  O190  1  0.37390986  0.48367410  -0.00905349  1
  O  O191  1  0.22814851  0.37939278  0.50864388  1
  O  O192  1  0.23667855  0.84521005  -0.21048893  1
  O  O193  1  0.28630637  0.95716039  0.49673156  1
  O  O194  1  0.70782865  0.31040823  0.03803068  1
  O  O195  1  0.77596207  0.42248259  0.53058623  1
  O  O196  1  0.79904284  0.86437671  0.00660061  1
  O  O197  1  0.74528825  0.85659615  0.53584932  1
  O  O198  1  0.14129402  0.47209524  0.19150464  1
  O  O199  1  0.05655481  0.35344570  0.74622624  1
  O  O200  1  0.13903956  1.01312272  0.24513918  1
  O  O201  1  0.12223214  0.97702343  0.73808625  1
  O  O202  1  0.71049823  0.40454711  0.18009401  1
  O  O203  1  0.60876131  0.52742386  0.78437883  1
  O  O204  1  0.53845570  1.04317633  0.27092304  1
  O  O205  1  0.63281917  1.02686049  0.71320636  1
  O  O206  1  0.35869013  0.09139748  0.23371195  1
  O  O207  1  0.38000806  0.00541739  0.70997567  1
  O  O208  1  0.29497290  0.55967502  0.23205491  1
  O  O209  1  0.38125049  0.50528995  0.73092245  1
  O  O210  1  0.83334726  0.06361639  0.31737511  1
  O  O211  1  0.90617114  -0.04392491  0.75486611  1
  O  O212  1  0.88889973  0.49204546  0.18008962  1
  O  O213  1  0.88575257  0.47669101  0.84077125  1
  O  O214  1  0.09617836  0.33611068  0.40231968  1
  O  O215  1  0.09934386  0.30118092  0.76086848  1
  O  O216  1  0.17978182  0.96369426  0.38649503  1
  O  O217  1  0.08601701  0.94544787  0.89284865  1
  O  O218  1  0.64247669  0.39615128  0.37788429  1
  O  O219  1  0.57787728  0.33861929  0.81672940  1
  O  O220  1  0.61714246  0.81816231  0.40603685  1
  O  O221  1  0.62510701  0.89451214  0.81583039  1
  O  O222  1  0.34504348  0.13007980  0.18093821  1
  O  O223  1  0.38224648  0.16269373  0.66114354  1
  O  O224  1  0.32026181  0.66734829  0.13949505  1
  O  O225  1  0.29959851  0.61903343  0.64460758  1
  O  O226  1  0.85397919  0.06247366  0.15244672  1
  O  O227  1  0.84014383  0.12544808  0.57757063  1
  O  O228  1  0.80050174  0.66137185  0.16300866  1
  O  O229  1  0.93592495  0.64260966  0.66013821  1
  O  O230  1  0.33890608  0.17386715  0.03434260  1
  O  O231  1  0.28662843  0.25170350  0.59957963  1
  O  O232  1  0.23300630  0.79316541  0.13500200  1
  O  O233  1  0.22627448  0.75866348  0.64816754  1
  O  O234  1  0.73456904  0.17474438  0.10224239  1
  O  O235  1  0.75856120  0.35817216  0.78227545  1
  O  O236  1  0.73722400  0.76328616  0.07614991  1
  O  O237  1  0.74043407  0.75858940  0.65028726  1
  O  O238  1  0.20916369  0.24633732  0.41886319  1
  O  O239  1  0.26635787  0.22706502  0.83353726  1
  O  O240  1  0.25847742  0.80334126  0.50177103  1
  O  O241  1  0.26848634  0.71397649  0.88604907  1
  O  O242  1  0.72998820  0.27168094  0.35676162  1
  O  O243  1  0.69390638  0.25651747  0.89834013  1
  O  O244  1  0.76890317  0.77951751  0.38161611  1
  O  O245  1  0.73834289  0.76844158  0.89932353  1
  O  O246  1  0.11655994  0.19732568  0.00231055  1
  O  O247  1  0.00533866  0.12082958  0.52166659  1
  O  O248  1  0.02802227  0.66240247  -0.01172269  1
  O  O249  1  0.01661486  0.59252546  0.50821504  1
  O  O250  1  0.50665323  0.07903463  -0.03717888  1
  O  O251  1  0.50276357  0.10321301  0.52130221  1
  O  O252  1  0.51620334  0.60466230  0.04108695  1
  O  O253  1  0.49635981  0.57333299  0.45752863  1
  O  O254  1  0.51292497  0.42434842  0.49703685  1
  O  O255  1  0.54748170  0.33015985  0.96635809  1
  O  O256  1  0.46581234  0.82051259  0.46259898  1
  O  O257  1  0.47793831  0.89874147  1.01418633  1
  O  O258  1  1.04732372  0.41172084  0.56216532  1
  O  O259  1  1.11668436  0.35321963  0.91334998  1
  O  O260  1  1.00146058  0.90288664  0.50907123  1
  O  O261  1  1.00812390  0.84604214  1.00275981  1
  O  O262  1  0.39455564  0.51468295  0.33699401  1
  O  O263  1  0.52537519  0.46894845  0.90624109  1
  O  O264  1  0.50210020  0.98053252  0.42693156  1
  O  O265  1  0.48497951  0.96331658  0.86188845  1
  O  O266  1  0.99826261  0.43929350  0.41981676  1
  O  O267  1  0.98850987  0.48855215  0.91627727  1
  O  O268  1  1.00101536  1.01456957  0.40450097  1
  O  O269  1  1.04805308  1.00145011  0.91414461  1
  O  O270  1  0.03318188  -0.00795504  0.12763442  1
  O  O271  1  -0.05167895  0.01781416  0.58526555  1
  O  O272  1  0.02255208  0.44723534  0.11337630  1
  O  O273  1  -0.00033992  0.50925447  0.71379899  1
  O  O274  1  0.46370574  0.02060256  0.13666489  1
  O  O275  1  0.52827824  -0.04473544  0.61861365  1
  O  O276  1  0.47827509  0.56979205  0.17973582  1
  O  O277  1  0.50080367  0.52795997  0.60556054  1
  O  O278  1  0.27335914  0.27821970  0.12603055  1
  O  O279  1  0.26084030  0.38753310  0.82053620  1
  O  O280  1  0.28783500  0.93031118  0.27260241  1
  O  O281  1  0.20184293  0.87709097  0.62496297  1
  O  O282  1  0.84565344  0.36856616  0.17615869  1
  O  O283  1  0.71596195  0.40708100  0.80675025  1
  O  O284  1  0.76002578  0.81620714  0.20516425  1
  O  O285  1  0.77135682  0.86827640  0.74969192  1
  O  O286  1  0.32071580  0.23999033  0.30357205  1
  O  O287  1  0.25880722  0.10618232  0.73088080  1
  O  O288  1  0.20293000  0.68258708  0.25724564  1
  O  O289  1  0.26613643  0.60045624  0.78935013  1
  O  O290  1  0.70774805  0.13424354  0.26606426  1
  O  O291  1  0.79633543  0.07454764  0.76844119  1
  O  O292  1  0.76169714  0.53714563  0.24999849  1
  O  O293  1  0.72180364  0.64590746  0.79432665  1
  O  O294  1  0.36699611  0.21852190  0.44345740  1
  O  O295  1  0.36574259  0.11646169  0.83212536  1
  O  O296  1  0.33113816  0.65642101  0.34343652  1
  O  O297  1  0.39648043  0.58640323  0.86261861  1
  O  O298  1  0.68486725  0.09649820  0.31787518  1
  O  O299  1  0.94168313  0.11408730  0.85657748  1
  O  O300  1  0.86701426  0.62627906  0.36008162  1
  O  O301  1  0.88436063  0.53985776  0.98984770  1
  O  O302  1  0.12594117  0.37067849  0.08544136  1
  O  O303  1  0.17674570  0.46153147  0.76816458  1
  O  O304  1  -0.01009108  0.76433777  0.23609484  1
  O  O305  1  0.17416920  0.81240674  0.63367624  1
  O  O306  1  0.57144025  0.31858381  0.12765723  1
  O  O307  1  0.66896623  0.43641077  0.66109396  1
  O  O308  1  0.56016242  0.90957096  0.17298547  1
  O  O309  1  0.65558160  0.88113485  0.65476992  1
  O  O310  1  0.16667796  0.26758630  0.26912231  1
  O  O311  1  0.22987063  0.41809475  0.75455559  1
  O  O312  1  0.14541449  0.85771603  0.27719261  1
  O  O313  1  0.10831902  0.76586196  0.79866655  1
  O  O314  1  0.61564728  0.30298373  0.27065768  1
  O  O315  1  0.65484232  0.20574918  0.75842177  1
  O  O316  1  0.66473782  0.71231414  0.29196299  1
  O  O317  1  0.58211119  0.73711719  0.72160385  1
  O  O318  1  0.45660652  0.36605310  0.19152247  1
  O  O319  1  0.39197409  0.30747979  0.71452111  1
  O  O320  1  0.34002237  0.76025347  0.23578329  1
  O  O321  1  0.38305975  0.71188901  0.74323189  1
  O  O322  1  0.85823726  0.20041852  0.24549231  1
  O  O323  1  0.85221861  0.22154826  0.79637463  1
  O  O324  1  0.87180160  0.67222337  0.31083707  1
  O  O325  1  0.87299988  0.74804629  0.74460284  1
  O  O326  1  0.32148814  0.50539826  0.50831880  1
  O  O327  1  0.37298039  0.54381763  1.02700519  1
  O  O328  1  0.43582884  1.08241688  0.52322774  1
  O  O329  1  0.37945773  0.99850797  0.99151074  1
  O  O330  1  0.92394047  0.49868090  0.54423490  1
  O  O331  1  0.91740683  0.40386785  1.01473451  1
  O  O332  1  0.84380040  0.99936138  0.46720786  1
  O  O333  1  0.90647572  0.96291851  1.00032980  1
  O  O334  1  0.17063346  -0.02512855  0.05714375  1
  O  O335  1  0.10649359  0.02633560  0.51752957  1
  O  O336  1  0.12721791  0.46812667  -0.00402695  1
  O  O337  1  0.12445534  0.50467197  0.47650199  1
  O  O338  1  0.59101566  -0.02221156  -0.02158074  1
  O  O339  1  0.66762255  -0.01256868  0.54387411  1
  O  O340  1  0.62720027  0.47288042  0.03586053  1
  O  O341  1  0.64518046  0.51702967  0.50634840  1
  O  O342  1  0.39174193  0.34439637  0.05267573  1
  O  O343  1  0.37163067  0.38091088  0.58721594  1
  O  O344  1  0.38155282  0.86127364  0.14607850  1
  O  O345  1  0.36061423  0.90050093  0.57457774  1
  O  O346  1  0.97840539  0.28533705  0.14971992  1
  O  O347  1  0.85617166  0.41721513  0.66484036  1
  O  O348  1  0.88052188  0.88567761  0.13296054  1
  O  O349  1  0.86750093  0.84207593  0.62731627  1
  O  O350  1  0.11234975  0.14713377  0.35980216  1
  O  O351  1  0.14799854  0.12777186  0.83423960  1
  O  O352  1  0.10721474  0.64686349  0.38615787  1
  O  O353  1  0.13439974  0.59891580  0.87285766  1
  O  O354  1  0.59426071  0.19482887  0.37191468  1
  O  O355  1  0.64194208  0.06640615  0.86264801  1
  O  O356  1  0.68611091  0.64039883  0.41849292  1
  O  O357  1  0.62645241  0.62826751  0.91870222  1
