# generated using pymatgen
data_V51Zn51O256
_symmetry_space_group_name_H-M   'P 1'
_cell_length_a   17.21068906
_cell_length_b   17.34394527
_cell_length_c   17.25290055
_cell_angle_alpha   89.49749908
_cell_angle_beta   90.58018530
_cell_angle_gamma   89.91593623
_symmetry_Int_Tables_number   1
_chemical_formula_structural   V51Zn51O256
_chemical_formula_sum   'V51 Zn51 O256'
_cell_volume   5149.54404384
_cell_formula_units_Z   1
loop_
 _symmetry_equiv_pos_site_id
 _symmetry_equiv_pos_as_xyz
  1  'x, y, z'
loop_
 _atom_site_type_symbol
 _atom_site_label
 _atom_site_symmetry_multiplicity
 _atom_site_fract_x
 _atom_site_fract_y
 _atom_site_fract_z
 _atom_site_occupancy
  V  V0  1  0.86889429  0.26730530  0.61125291  1
  V  V1  1  -0.02897761  0.42089425  0.84313217  1
  V  V2  1  0.88896233  0.25474885  0.09889419  1
  V  V3  1  0.37948564  0.61494041  0.25589357  1
  V  V4  1  0.86539850  0.86839923  0.49613577  1
  V  V5  1  0.65501322  0.39837553  0.22570241  1
  V  V6  1  0.73991075  0.89381808  0.12682560  1
  V  V7  1  0.25587111  0.85619693  0.14341438  1
  V  V8  1  0.72543126  0.02766334  0.24249316  1
  V  V9  1  0.86937241  0.01412489  0.36775282  1
  V  V10  1  0.24401288  0.23798664  0.02898293  1
  V  V11  1  0.12291207  0.47571516  0.10402151  1
  V  V12  1  0.47699802  0.46654254  0.47365799  1
  V  V13  1  0.33341230  0.28641886  0.63348516  1
  V  V14  1  0.47734444  0.26833745  0.27882928  1
  V  V15  1  0.35015248  0.38520536  -0.01858628  1
  V  V16  1  -0.00808415  0.01072541  0.49444176  1
  V  V17  1  0.41682856  0.11914637  0.74212353  1
  V  V18  1  0.00028683  0.14438581  0.61721289  1
  V  V19  1  0.85264802  0.12203153  0.74242799  1
  V  V20  1  0.01105758  -0.01144999  -0.00195585  1
  V  V21  1  0.20275648  -0.01124845  0.79350821  1
  V  V22  1  0.87467054  0.15764761  0.25805546  1
  V  V23  1  0.01359973  0.27165560  0.25130733  1
  V  V24  1  0.12608914  0.00609010  0.62500811  1
  V  V25  1  0.12986339  0.37356299  0.75193102  1
  V  V26  1  0.11110956  0.12126090  0.03965859  1
  V  V27  1  0.22822403  0.49689756  0.24683383  1
  V  V28  1  0.11599570  0.50018622  0.61599166  1
  V  V29  1  0.74018592  0.72515873  0.02462874  1
  V  V30  1  0.67328401  0.86137076  0.78088384  1
  V  V31  1  0.49985177  0.87276302  0.86745768  1
  V  V32  1  0.21442153  0.12303615  0.88761323  1
  V  V33  1  0.87782373  0.42038638  -0.02260294  1
  V  V34  1  0.62051963  0.84565693  0.25396261  1
  V  V35  1  0.86749505  0.59955461  0.21091014  1
  V  V36  1  0.24363444  0.75081233  -0.00820286  1
  V  V37  1  0.60272863  0.72272713  0.89258698  1
  V  V38  1  0.28044400  0.11778989  0.35841726  1
  V  V39  1  0.02045738  0.74909176  0.26121235  1
  V  V40  1  0.75849884  0.38442327  0.09495385  1
  V  V41  1  0.38759899  0.72032367  0.10668246  1
  V  V42  1  0.02583522  0.63867559  0.12339562  1
  V  V43  1  0.11812756  0.61695886  -0.01913928  1
  V  V44  1  0.71305070  0.37816877  0.63491982  1
  V  V45  1  0.40110691  0.01274961  0.89140183  1
  V  V46  1  -0.01872144  0.38114884  0.38374050  1
  V  V47  1  0.76712655  0.62267471  0.84890972  1
  V  V48  1  0.76183734  0.13053814  0.90013640  1
  V  V49  1  -0.01614520  0.25216482  0.77157837  1
  V  V50  1  0.38578690  0.87968310  0.01383570  1
  Zn  Zn51  1  0.50528834  0.37353731  0.65030085  1
  Zn  Zn52  1  0.30194903  0.28697983  0.80943671  1
  Zn  Zn53  1  0.39096760  0.72667924  0.89547150  1
  Zn  Zn54  1  0.83212752  0.46299883  0.57465144  1
  Zn  Zn55  1  0.69288916  0.71469094  0.70332586  1
  Zn  Zn56  1  0.57518566  0.40429198  0.03733732  1
  Zn  Zn57  1  0.77276612  0.44689421  0.79623993  1
  Zn  Zn58  1  0.17244343  0.18906418  0.71608854  1
  Zn  Zn59  1  0.90830421  0.96809358  0.64989019  1
  Zn  Zn60  1  0.10991443  0.68921843  0.65904019  1
  Zn  Zn61  1  0.28926929  0.55757919  0.04869476  1
  Zn  Zn62  1  0.17855423  1.00728785  0.43763891  1
  Zn  Zn63  1  0.71478974  0.90535002  0.38776410  1
  Zn  Zn64  1  0.29736670  0.11976602  0.57106592  1
  Zn  Zn65  1  0.37869670  0.42310977  0.19319121  1
  Zn  Zn66  1  0.82251093  0.11539687  0.53471659  1
  Zn  Zn67  1  0.45452134  0.65164384  0.40105076  1
  Zn  Zn68  1  0.91333912  0.70018241  0.40614644  1
  Zn  Zn69  1  1.01177937  0.36917632  0.59213489  1
  Zn  Zn70  1  0.80722453  0.34299354  0.31541406  1
  Zn  Zn71  1  0.28516588  0.32731553  0.33956554  1
  Zn  Zn72  1  0.69486397  0.33630567  0.90633615  1
  Zn  Zn73  1  0.89724153  0.63257671  0.99595162  1
  Zn  Zn74  1  0.14900704  0.45368926  0.41726173  1
  Zn  Zn75  1  0.95011369  0.43647054  0.16169652  1
  Zn  Zn76  1  0.76308727  0.25897659  0.76808353  1
  Zn  Zn77  1  0.69430561  0.84381302  0.57676864  1
  Zn  Zn78  1  0.17189523  0.19884061  0.19320424  1
  Zn  Zn79  1  0.27354675  0.42034603  0.51685403  1
  Zn  Zn80  1  0.93779787  0.92860373  0.19529635  1
  Zn  Zn81  1  0.42356901  0.79716202  0.29307973  1
  Zn  Zn82  1  0.50612390  -0.04579236  0.36618333  1
  Zn  Zn83  1  0.07367299  0.81641474  0.07051175  1
  Zn  Zn84  1  0.40160647  0.21828277  0.91594152  1
  Zn  Zn85  1  0.52643469  0.53064987  0.26522627  1
  Zn  Zn86  1  0.09396811  0.53125290  0.81829654  1
  Zn  Zn87  1  0.62300250  0.51613945  0.91681025  1
  Zn  Zn88  1  0.67703907  0.39484149  0.43480356  1
  Zn  Zn89  1  0.69825131  0.92917303  0.92735550  1
  Zn  Zn90  1  0.84132414  0.81422529  0.25797506  1
  Zn  Zn91  1  0.82969357  0.07520626  0.08543068  1
  Zn  Zn92  1  0.93729047  0.20230337  0.43192236  1
  Zn  Zn93  1  0.83154962  0.79198889  0.89062982  1
  Zn  Zn94  1  0.27822429  0.85866379  0.84464615  1
  Zn  Zn95  1  0.20033701  0.95425932  0.97237078  1
  Zn  Zn96  1  0.56374424  0.81055168  0.06772642  1
  Zn  Zn97  1  0.58134346  1.03598680  0.80088441  1
  Zn  Zn98  1  0.33921529  0.08964435  0.03711169  1
  Zn  Zn99  1  0.03570798  0.06767914  0.81586764  1
  Zn  Zn100  1  0.03236856  0.52662171  0.27527950  1
  Zn  Zn101  1  0.05366689  0.08685721  0.31498342  1
  O  O102  1  0.12023545  0.11765481  0.13874161  1
  O  O103  1  0.09789411  0.14643106  0.63915931  1
  O  O104  1  0.12313050  0.62940338  0.10067709  1
  O  O105  1  0.13286755  0.60137000  0.61097442  1
  O  O106  1  0.61346080  0.13938658  0.07843888  1
  O  O107  1  0.54976398  0.11677003  0.57671129  1
  O  O108  1  0.60027450  0.57983317  0.07680529  1
  O  O109  1  0.65663052  0.73253865  0.59865667  1
  O  O110  1  0.23665218  0.37645811  0.42191550  1
  O  O111  1  0.37400184  0.33291778  0.89529331  1
  O  O112  1  0.43393458  0.75527453  0.39811122  1
  O  O113  1  0.38762248  0.88854328  0.88787181  1
  O  O114  1  0.88541830  0.40204265  0.37786184  1
  O  O115  1  0.86324863  0.41770634  0.86467676  1
  O  O116  1  0.87206015  0.91289532  0.39499650  1
  O  O117  1  0.92699765  0.86488732  0.86104906  1
  O  O118  1  0.26648678  0.01476344  0.36227913  1
  O  O119  1  0.26653578  0.02482844  0.89071746  1
  O  O120  1  0.21046388  0.51543976  0.34072751  1
  O  O121  1  0.30160035  0.52907067  0.76844827  1
  O  O122  1  0.76335489  0.00826825  0.35071473  1
  O  O123  1  0.72656629  0.02672961  0.87179989  1
  O  O124  1  0.71791637  0.52036386  0.40435581  1
  O  O125  1  0.72477007  0.52997540  0.86289514  1
  O  O126  1  0.22865254  0.48776045  0.11311886  1
  O  O127  1  0.30575498  0.38041111  0.61316716  1
  O  O128  1  0.25517151  0.98014007  0.13759121  1
  O  O129  1  0.21508158  1.05052249  0.61669791  1
  O  O130  1  0.76338281  0.47803707  0.09623595  1
  O  O131  1  0.76813889  0.45301469  0.68040500  1
  O  O132  1  0.75473433  1.00890207  0.13992120  1
  O  O133  1  0.72357410  1.03601245  0.57774004  1
  O  O134  1  -0.01096672  0.37254627  0.26025837  1
  O  O135  1  -0.02837621  0.35991164  0.75772654  1
  O  O136  1  -0.04309898  0.83604806  0.25529694  1
  O  O137  1  -0.06401171  0.88262561  0.79074999  1
  O  O138  1  0.46272891  0.37210698  0.25715490  1
  O  O139  1  0.49640246  0.45105593  0.74624371  1
  O  O140  1  0.53531196  0.80013545  0.25016657  1
  O  O141  1  0.49286203  0.86734873  0.77381540  1
  O  O142  1  0.50626320  0.17334530  0.27867895  1
  O  O143  1  0.51618840  0.10369054  0.74309412  1
  O  O144  1  0.48772154  0.62966519  0.29286377  1
  O  O145  1  0.45055790  0.72145599  0.72092012  1
  O  O146  1  0.98814724  0.15980010  0.26267617  1
  O  O147  1  0.98271336  0.14100209  0.74322234  1
  O  O148  1  1.02595333  0.63433495  0.23067062  1
  O  O149  1  1.05985643  0.74143473  0.79799963  1
  O  O150  1  0.34596322  0.20326501  0.01562449  1
  O  O151  1  0.35629011  0.13993395  0.42431860  1
  O  O152  1  0.37085132  0.76327134  0.00198395  1
  O  O153  1  0.31615912  0.67958290  0.49928881  1
  O  O154  1  0.89885902  0.24084864  0.00695626  1
  O  O155  1  0.85752029  0.23370131  0.51585469  1
  O  O156  1  0.83960260  0.74219385  -0.01108641  1
  O  O157  1  0.88312742  0.77217605  0.48264628  1
  O  O158  1  0.16178740  0.26364901  0.53065275  1
  O  O159  1  0.13955874  0.22176824  1.01669690  1
  O  O160  1  0.17088356  0.74417602  0.41921649  1
  O  O161  1  0.14534994  0.76376781  0.99198046  1
  O  O162  1  0.58463744  0.17643264  0.59085129  1
  O  O163  1  0.58187628  0.25208920  0.97473892  1
  O  O164  1  0.63632832  0.66638834  0.53913311  1
  O  O165  1  0.63100359  0.75060874  0.99325526  1
  O  O166  1  0.41434005  0.23800946  0.20587273  1
  O  O167  1  0.54974384  0.29102634  0.79843371  1
  O  O168  1  0.48430309  0.73849566  0.10292457  1
  O  O169  1  0.43744655  0.81187092  0.52031380  1
  O  O170  1  0.98320046  0.27058522  0.15236575  1
  O  O171  1  0.98050456  0.25103325  0.62535180  1
  O  O172  1  1.01697675  0.74221742  0.13497748  1
  O  O173  1  0.89707030  0.79852832  0.73635780  1
  O  O174  1  -0.00646299  0.27361445  0.36424598  1
  O  O175  1  -0.02420517  0.24407384  0.86369239  1
  O  O176  1  0.00872414  0.71962114  0.35801058  1
  O  O177  1  0.06222814  0.79062778  0.85017978  1
  O  O178  1  0.52309610  0.27244210  0.36841068  1
  O  O179  1  0.53648856  0.21150059  0.93533938  1
  O  O180  1  0.65483727  0.68102756  0.47063359  1
  O  O181  1  0.50215016  0.75975431  0.88948271  1
  O  O182  1  0.24392302  0.10210581  0.46830371  1
  O  O183  1  0.22842716  0.11511580  1.00264212  1
  O  O184  1  0.26351193  0.63397822  0.51305908  1
  O  O185  1  0.23119835  0.64382551  0.99285506  1
  O  O186  1  0.71707090  0.12034237  0.47952637  1
  O  O187  1  0.78010322  0.11854770  0.99480464  1
  O  O188  1  0.77883613  0.57710072  0.57703011  1
  O  O189  1  0.74337636  0.63582917  1.05211510  1
  O  O190  1  0.25972867  0.33785183  0.00138737  1
  O  O191  1  0.32014202  0.23096734  0.55337005  1
  O  O192  1  0.26727313  0.86792351  -0.00136727  1
  O  O193  1  0.26767943  0.92525761  0.49596853  1
  O  O194  1  0.77525108  0.37312040  -0.01275889  1
  O  O195  1  0.72617168  0.41148443  0.53986534  1
  O  O196  1  0.73403177  0.91351710  0.02869154  1
  O  O197  1  0.75740058  0.87439667  0.48843137  1
  O  O198  1  0.12735460  0.48667089  0.21755073  1
  O  O199  1  0.13564829  0.49131194  0.72293739  1
  O  O200  1  0.10391495  0.96476537  0.28511091  1
  O  O201  1  0.11102487  1.00835560  0.74019881  1
  O  O202  1  0.61155343  0.48619518  0.21464707  1
  O  O203  1  0.54962099  0.50027567  0.75065308  1
  O  O204  1  0.63622162  1.05558970  0.24405209  1
  O  O205  1  0.63906374  0.95039245  0.75663846  1
  O  O206  1  0.31863820  0.01937109  0.14090829  1
  O  O207  1  0.38061452  0.03364731  0.79125428  1
  O  O208  1  0.42092990  0.52278222  0.21756035  1
  O  O209  1  0.42200967  0.57686865  0.67416868  1
  O  O210  1  0.90055841  0.00970901  0.27131334  1
  O  O211  1  0.86174191  0.02419906  0.73000530  1
  O  O212  1  0.91805688  0.51354861  0.24054227  1
  O  O213  1  0.97254191  0.64555304  0.70492939  1
  O  O214  1  0.11963786  0.25362197  0.47385844  1
  O  O215  1  0.08454240  0.41138096  0.83997286  1
  O  O216  1  0.13125677  0.93003893  0.34438495  1
  O  O217  1  0.16789698  0.92330855  0.86329151  1
  O  O218  1  0.64517608  0.38413715  0.32297726  1
  O  O219  1  0.61030339  0.40621521  0.93178509  1
  O  O220  1  0.60828757  0.90398789  0.34069884  1
  O  O221  1  0.60756212  0.87160070  0.88396770  1
  O  O222  1  0.47080663  0.10028933  0.09165631  1
  O  O223  1  0.37920338  0.11523966  0.65054018  1
  O  O224  1  0.37469136  0.62619757  0.08410634  1
  O  O225  1  0.37268651  0.60784266  0.63185377  1
  O  O226  1  0.88421233  0.15403299  0.14582825  1
  O  O227  1  0.88059941  0.14305944  0.63099831  1
  O  O228  1  0.90947476  0.62424546  0.11581630  1
  O  O229  1  0.91408350  0.63072987  0.66570836  1
  O  O230  1  0.24846627  0.24226062  0.12685730  1
  O  O231  1  0.27032600  0.24500004  0.70495048  1
  O  O232  1  0.27085081  0.75467224  0.10157630  1
  O  O233  1  0.22547006  0.75752899  0.61595306  1
  O  O234  1  0.79198251  0.27917271  0.11813118  1
  O  O235  1  0.76461159  0.28557645  0.63938584  1
  O  O236  1  0.73897476  0.78039946  0.10943804  1
  O  O237  1  0.80880661  0.63568345  0.54627927  1
  O  O238  1  0.25391772  0.21867209  0.36186792  1
  O  O239  1  0.24749171  0.21713559  0.88644166  1
  O  O240  1  0.18425168  0.80280471  0.46310119  1
  O  O241  1  0.27622697  0.75554140  0.88697872  1
  O  O242  1  0.74208292  0.31646309  0.40091756  1
  O  O243  1  0.72997938  0.22513442  0.88402286  1
  O  O244  1  0.75452889  0.80328001  0.33106557  1
  O  O245  1  0.72259969  0.70068342  0.90043068  1
  O  O246  1  0.01550516  0.11203677  0.01982098  1
  O  O247  1  -0.00605195  0.13907103  0.51457400  1
  O  O248  1  0.01670127  0.64213460  0.00423881  1
  O  O249  1  -0.10419431  0.59909261  0.49537434  1
  O  O250  1  0.50300433  0.16118066  0.07370541  1
  O  O251  1  0.49078523  -0.03895144  0.58272550  1
  O  O252  1  0.40123922  0.60595978  -0.10733952  1
  O  O253  1  0.48648366  0.57010090  0.47277838  1
  O  O254  1  0.44727010  0.37013385  0.46599286  1
  O  O255  1  0.45319271  0.38702804  1.03088628  1
  O  O256  1  0.59538065  0.89540548  0.53926681  1
  O  O257  1  0.48690685  0.87109021  1.00209122  1
  O  O258  1  1.00537939  0.36688817  0.47938865  1
  O  O259  1  0.97621037  0.40115670  0.94869634  1
  O  O260  1  0.97504729  0.91392638  0.50102360  1
  O  O261  1  1.02098736  0.89039804  1.00347466  1
  O  O262  1  0.48442009  0.47832289  0.36978726  1
  O  O263  1  0.43534300  0.56970437  0.84025103  1
  O  O264  1  0.42525645  0.90370936  0.31875162  1
  O  O265  1  0.50249507  0.98434315  0.87917867  1
  O  O266  1  1.04620119  0.46562886  0.36958713  1
  O  O267  1  0.97631872  0.51510273  0.81868378  1
  O  O268  1  0.99474728  1.02861549  0.39323676  1
  O  O269  1  0.99392189  1.00866157  0.90203747  1
  O  O270  1  -0.02759048  -0.00331772  0.11159894  1
  O  O271  1  -0.00034746  0.02826129  0.61564367  1
  O  O272  1  0.02308444  0.51831066  0.11842120  1
  O  O273  1  0.02029079  0.49029479  0.59775369  1
  O  O274  1  0.55769368  0.02912064  0.11281604  1
  O  O275  1  0.55483954  -0.07072572  0.60038810  1
  O  O276  1  0.55661047  0.60513237  0.12772639  1
  O  O277  1  0.49493925  0.46490471  0.57476521  1
  O  O278  1  0.28343070  0.40486470  0.25258084  1
  O  O279  1  0.22317136  0.36811878  0.77907925  1
  O  O280  1  0.27333175  0.84885466  0.23586725  1
  O  O281  1  0.26533240  0.92785111  0.74979604  1
  O  O282  1  0.75766551  0.39124419  0.21971973  1
  O  O283  1  0.71360054  0.35280802  0.79445892  1
  O  O284  1  0.71495389  0.91762604  0.23655113  1
  O  O285  1  0.75580733  0.86525692  0.84405801  1
  O  O286  1  0.23327894  0.13463833  0.26299875  1
  O  O287  1  0.21967189  0.10271384  0.78183416  1
  O  O288  1  0.28225873  0.57942807  0.21960683  1
  O  O289  1  0.27892354  0.59624206  0.76814273  1
  O  O290  1  0.77983248  0.11907456  0.24570633  1
  O  O291  1  0.75679457  0.14565982  0.73315567  1
  O  O292  1  0.77664460  0.58016989  0.20065588  1
  O  O293  1  0.76052868  0.64280101  0.75044084  1
  O  O294  1  0.35667261  0.09804383  0.29874860  1
  O  O295  1  0.41908704  0.10226808  0.92546643  1
  O  O296  1  0.35034523  0.61325076  0.34840166  1
  O  O297  1  0.39086933  0.72378611  0.76094844  1
  O  O298  1  0.87595937  0.12764231  0.36490275  1
  O  O299  1  0.85283873  0.12532013  0.85049419  1
  O  O300  1  0.85645859  0.65115936  0.31642915  1
  O  O301  1  0.86033583  0.62500809  0.87934115  1
  O  O302  1  0.10520699  0.38496701  0.09412538  1
  O  O303  1  0.11299583  0.37523236  0.64756025  1
  O  O304  1  0.15764351  0.86600206  0.12779155  1
  O  O305  1  0.14408699  0.91420726  0.62262137  1
  O  O306  1  0.65171646  0.36749551  0.11428278  1
  O  O307  1  0.61610335  0.36790743  0.64824996  1
  O  O308  1  0.62707705  0.86584830  0.14490625  1
  O  O309  1  0.71225111  0.83158258  0.69037426  1
  O  O310  1  0.11224761  0.26981267  0.25133620  1
  O  O311  1  0.09534853  0.26773217  0.75947409  1
  O  O312  1  0.10798816  0.78184305  0.26215630  1
  O  O313  1  0.09058592  0.77196637  0.72209764  1
  O  O314  1  0.55694065  0.29836510  0.22112013  1
  O  O315  1  0.58431522  0.24239868  0.76049928  1
  O  O316  1  0.68995383  0.77145392  0.28848348  1
  O  O317  1  0.62808473  0.75820083  0.79207187  1
  O  O318  1  0.38969779  0.28046906  0.33502164  1
  O  O319  1  0.39455932  0.19967815  0.79991224  1
  O  O320  1  0.37872471  0.71708006  0.21709882  1
  O  O321  1  0.28056513  0.73632720  0.65818782  1
  O  O322  1  0.86203817  0.25375579  0.26802119  1
  O  O323  1  0.87626322  0.24429808  0.73443890  1
  O  O324  1  0.87817107  0.70294380  0.25176526  1
  O  O325  1  0.88318840  0.75051436  0.79007448  1
  O  O326  1  0.37507004  0.48077218  0.48150438  1
  O  O327  1  0.32693128  0.47849669  0.96801217  1
  O  O328  1  0.32886372  0.95564011  0.52061623  1
  O  O329  1  0.37395232  0.98505738  0.99869662  1
  O  O330  1  0.88252833  0.52589244  0.48708694  1
  O  O331  1  0.87548724  0.51401747  0.99278812  1
  O  O332  1  0.87990650  1.03142200  0.48574443  1
  O  O333  1  0.91107933  0.99559855  1.05136315  1
  O  O334  1  0.11696585  0.01037804  0.01759266  1
  O  O335  1  0.09962499  0.01357382  0.51263281  1
  O  O336  1  0.12410183  0.51904425  -0.00195369  1
  O  O337  1  0.17080171  0.47366905  0.53158167  1
  O  O338  1  0.60539103  0.06509532  0.06751776  1
  O  O339  1  0.68507263  0.05821717  0.51457314  1
  O  O340  1  0.56490240  0.52288716  0.02317432  1
  O  O341  1  0.57815263  0.44271669  0.46693278  1
  O  O342  1  0.39029647  0.37534430  0.08669484  1
  O  O343  1  0.43270301  0.29446002  0.65943943  1
  O  O344  1  0.37168785  0.86904601  0.11245155  1
  O  O345  1  0.38508472  0.80544726  0.56761949  1
  O  O346  1  0.88953549  0.38112990  0.08388483  1
  O  O347  1  0.89111047  0.36637304  0.59916915  1
  O  O348  1  0.83658356  0.87570047  0.15920698  1
  O  O349  1  0.86560107  0.88513823  0.59601969  1
  O  O350  1  0.15382465  0.10124359  0.36407793  1
  O  O351  1  0.11568766  0.11751437  0.88951117  1
  O  O352  1  0.22282942  0.72445633  0.37059151  1
  O  O353  1  0.11721386  0.61678070  0.88073282  1
  O  O354  1  0.51278186  0.04039818  0.42403334  1
  O  O355  1  0.65955999  0.08037862  0.88007204  1
  O  O356  1  0.67824862  0.56078131  0.35888934  1
  O  O357  1  0.58658739  0.62711159  0.88925694  1
