# generated using pymatgen
data_V51Zn51O256
_symmetry_space_group_name_H-M   'P 1'
_cell_length_a   17.30121527
_cell_length_b   17.44732339
_cell_length_c   17.00934846
_cell_angle_alpha   90.54934113
_cell_angle_beta   90.43058542
_cell_angle_gamma   90.04972635
_symmetry_Int_Tables_number   1
_chemical_formula_structural   V51Zn51O256
_chemical_formula_sum   'V51 Zn51 O256'
_cell_volume   5134.05694312
_cell_formula_units_Z   1
loop_
 _symmetry_equiv_pos_site_id
 _symmetry_equiv_pos_as_xyz
  1  'x, y, z'
loop_
 _atom_site_type_symbol
 _atom_site_label
 _atom_site_symmetry_multiplicity
 _atom_site_fract_x
 _atom_site_fract_y
 _atom_site_fract_z
 _atom_site_occupancy
  V  V0  1  0.88156032  -0.01348460  0.38127399  1
  V  V1  1  0.24580967  0.10623428  0.37409532  1
  V  V2  1  0.49183575  0.38312251  0.37270025  1
  V  V3  1  0.29595414  0.35142695  0.60175378  1
  V  V4  1  0.39599301  0.12434881  0.71893779  1
  V  V5  1  0.25182816  0.91192791  0.13116838  1
  V  V6  1  0.00329101  0.76293058  0.27985572  1
  V  V7  1  0.74725374  -0.00180099  0.76749363  1
  V  V8  1  0.35012393  0.74843116  0.13344701  1
  V  V9  1  0.04304979  0.65516615  0.61527227  1
  V  V10  1  0.15376041  0.77224190  0.84987692  1
  V  V11  1  0.31953455  0.35439486  0.02834658  1
  V  V12  1  0.13218842  0.37036982  0.27633116  1
  V  V13  1  0.74928979  0.87034449  0.11399865  1
  V  V14  1  0.76208153  0.74598551  0.49180533  1
  V  V15  1  0.60471347  0.16058972  0.02328150  1
  V  V16  1  0.62451598  0.49387405  0.60968164  1
  V  V17  1  0.37277495  0.08316869  0.21167093  1
  V  V18  1  -0.02077494  0.48644866  0.57045431  1
  V  V19  1  0.27123156  0.63427142  0.86574605  1
  V  V20  1  0.13170245  0.13212044  0.53419146  1
  V  V21  1  0.60046970  0.51898057  0.13964847  1
  V  V22  1  0.01907992  -0.00869563  0.48588345  1
  V  V23  1  0.60812026  0.87534033  0.69932775  1
  V  V24  1  0.88991321  0.10361945  0.75533410  1
  V  V25  1  0.50280379  0.65849875  0.11350574  1
  V  V26  1  -0.00938431  0.85200769  0.88345552  1
  V  V27  1  0.37338992  0.63888852  0.71563331  1
  V  V28  1  0.09318986  0.11435104  -0.02196421  1
  V  V29  1  0.76571542  0.86968399  0.61982390  1
  V  V30  1  0.75704317  0.36737621  0.14686322  1
  V  V31  1  0.78272135  0.51936852  0.26296597  1
  V  V32  1  0.62156844  0.28775916  0.89310787  1
  V  V33  1  0.26110877  0.12778203  0.87926592  1
  V  V34  1  0.10246506  0.63992097  -0.03309862  1
  V  V35  1  0.26755944  0.48668689  0.76078798  1
  V  V36  1  0.84170300  0.50586645  0.87644269  1
  V  V37  1  0.24947230  -0.00051111  0.72564280  1
  V  V38  1  0.40159218  0.01298262  0.41753250  1
  V  V39  1  0.38246169  0.85963018  -0.01202488  1
  V  V40  1  0.88713094  0.12498975  0.26249436  1
  V  V41  1  0.49661403  0.26029058  0.76194735  1
  V  V42  1  0.50687681  0.77038921  0.26076996  1
  V  V43  1  0.64323689  0.03250462  0.61019954  1
  V  V44  1  0.94966721  0.69056522  0.12371828  1
  V  V45  1  -0.00263491  0.08492477  0.12738282  1
  V  V46  1  0.65811004  0.79105617  0.37051205  1
  V  V47  1  0.90812479  0.24449853  0.13267997  1
  V  V48  1  0.24204671  0.75584053  0.45200252  1
  V  V49  1  -0.01902516  0.27470914  0.78619753  1
  V  V50  1  0.14468936  0.45001219  0.62002575  1
  Zn  Zn51  1  0.67499572  0.46953479  0.40807667  1
  Zn  Zn52  1  0.52999173  0.02613892  0.74998972  1
  Zn  Zn53  1  0.65988372  0.70140372  0.65666121  1
  Zn  Zn54  1  0.22780934  0.70669505  0.67428288  1
  Zn  Zn55  1  0.86755352  0.42534823  0.70933276  1
  Zn  Zn56  1  0.96388294  0.79767083  0.48551449  1
  Zn  Zn57  1  0.41200463  0.20054907  0.34542739  1
  Zn  Zn58  1  0.31841662  0.08684784  0.56195530  1
  Zn  Zn59  1  0.32929108  0.57397050  0.21443754  1
  Zn  Zn60  1  0.34092028  0.59560770  0.40281118  1
  Zn  Zn61  1  0.44961324  0.45118259  0.71559851  1
  Zn  Zn62  1  0.90410249  0.70122420  0.93835424  1
  Zn  Zn63  1  0.21630689  0.54735879  1.03862884  1
  Zn  Zn64  1  0.45815904  0.90974002  0.13908231  1
  Zn  Zn65  1  0.06824361  0.32586551  0.48510968  1
  Zn  Zn66  1  0.60328156  0.31645490  0.11075642  1
  Zn  Zn67  1  0.45349220  0.97476028  0.61253730  1
  Zn  Zn68  1  0.33856043  0.85694588  0.29476753  1
  Zn  Zn69  1  0.29932426  0.30797659  0.39220880  1
  Zn  Zn70  1  0.18512506  0.96077205  0.92891634  1
  Zn  Zn71  1  0.69375326  0.17905031  0.21621783  1
  Zn  Zn72  1  0.51013392  0.57361605  0.29678045  1
  Zn  Zn73  1  0.66125793  0.16575668  0.74682591  1
  Zn  Zn74  1  0.80341594  0.87306377  0.90844068  1
  Zn  Zn75  1  0.38922521  0.65680077  0.96923033  1
  Zn  Zn76  1  0.80257933  0.29381974  0.81409689  1
  Zn  Zn77  1  0.49273206  0.33081371  0.58462761  1
  Zn  Zn78  1  0.33004154  0.81708728  0.79571983  1
  Zn  Zn79  1  0.83600499  0.04497832  0.57598258  1
  Zn  Zn80  1  0.22463920  0.96104643  0.51333025  1
  Zn  Zn81  1  0.43769719  0.41146051  0.16110455  1
  Zn  Zn82  1  0.97422142  0.16596874  0.43526116  1
  Zn  Zn83  1  0.92711303  0.19306950  0.94859582  1
  Zn  Zn84  1  0.63556771  0.49028374  0.92862741  1
  Zn  Zn85  1  0.56096188  0.60103978  0.78401235  1
  Zn  Zn86  1  0.25617671  0.47514874  0.48232772  1
  Zn  Zn87  1  0.09453735  0.81062784  0.04250083  1
  Zn  Zn88  1  0.44386737  0.19405757  0.94848104  1
  Zn  Zn89  1  0.24013922  0.11400385  0.08992927  1
  Zn  Zn90  1  0.68300641  0.68540146  0.19934426  1
  Zn  Zn91  1  0.17177139  0.21942818  0.71495551  1
  Zn  Zn92  1  0.06064418  0.02844313  0.79946659  1
  Zn  Zn93  1  0.70242973  0.94944183  0.44349231  1
  Zn  Zn94  1  0.11314406  0.23666353  0.13638177  1
  Zn  Zn95  1  0.30952456  0.28994145  0.81095779  1
  Zn  Zn96  1  0.16011938  0.67506571  0.17836359  1
  Zn  Zn97  1  -0.06940983  0.41534873  0.22160700  1
  Zn  Zn98  1  0.11122022  0.59174482  0.76137992  1
  Zn  Zn99  1  0.88348757  0.51703999  0.08476081  1
  Zn  Zn100  1  0.54391280  0.08913119  0.31325907  1
  Zn  Zn101  1  0.93233262  0.93007955  0.20117352  1
  O  O102  1  0.09772680  0.11572807  0.11516348  1
  O  O103  1  0.14743081  0.14308712  0.63212487  1
  O  O104  1  0.13820701  0.63494455  0.07172900  1
  O  O105  1  0.14375369  0.65161812  0.62069415  1
  O  O106  1  0.64498312  0.14670080  0.11284212  1
  O  O107  1  0.67015649  0.12446107  0.64102693  1
  O  O108  1  0.60685447  0.62920756  0.12349164  1
  O  O109  1  0.63252668  0.59601003  0.60658285  1
  O  O110  1  0.39150290  0.39286629  0.38458189  1
  O  O111  1  0.32420990  0.34562473  0.92227784  1
  O  O112  1  0.38188038  0.92537375  0.36865023  1
  O  O113  1  0.39158482  0.83920996  0.89038560  1
  O  O114  1  0.82855839  0.40084329  0.45346060  1
  O  O115  1  0.83027322  0.40146430  0.86104642  1
  O  O116  1  0.88898511  0.89290688  0.38178415  1
  O  O117  1  0.89313900  0.80694202  0.89260356  1
  O  O118  1  0.27498810  0.00235719  0.41880070  1
  O  O119  1  0.23723995  0.03143864  0.85657932  1
  O  O120  1  0.25448374  0.52653292  0.38345283  1
  O  O121  1  0.25494495  0.52171238  0.85547179  1
  O  O122  1  0.78524567  0.00572625  0.39460558  1
  O  O123  1  0.74343635  -0.05242645  0.85432974  1
  O  O124  1  0.74000682  0.53427515  0.35600661  1
  O  O125  1  0.74088120  0.51603583  0.89361852  1
  O  O126  1  0.24997394  0.53535892  0.14297883  1
  O  O127  1  0.25643623  0.43820742  0.63715434  1
  O  O128  1  0.24456180  1.00839843  0.11954749  1
  O  O129  1  0.26456963  0.99746563  0.62049894  1
  O  O130  1  0.79457710  0.47681330  0.14820575  1
  O  O131  1  0.71538647  0.45657989  0.59049172  1
  O  O132  1  0.73320846  0.95389517  0.06004186  1
  O  O133  1  0.75488566  0.98487051  0.63588817  1
  O  O134  1  0.02765277  0.38625094  0.27407473  1
  O  O135  1  -0.04565657  0.36225163  0.74745914  1
  O  O136  1  -0.00106123  0.85542723  0.24614956  1
  O  O137  1  0.00305918  0.93676719  0.83368015  1
  O  O138  1  0.48786866  0.39199447  0.26894462  1
  O  O139  1  0.47050614  0.35449792  0.77137979  1
  O  O140  1  0.52197968  0.85880563  0.21659646  1
  O  O141  1  0.53236146  0.91235656  0.75648126  1
  O  O142  1  0.44906143  0.13706132  0.26065277  1
  O  O143  1  0.49612289  0.13433367  0.76189856  1
  O  O144  1  0.50109247  0.66463167  0.23045484  1
  O  O145  1  0.47262622  0.64501708  0.73387571  1
  O  O146  1  0.99826707  0.09875044  0.22904046  1
  O  O147  1  0.98448177  0.08792898  0.74074356  1
  O  O148  1  1.04292843  0.56011631  0.38991497  1
  O  O149  1  1.02000119  0.63646092  0.71244878  1
  O  O150  1  0.38600242  0.27707997  0.01230745  1
  O  O151  1  0.38627659  0.25114406  0.44462166  1
  O  O152  1  0.36555020  0.75637528  0.02172084  1
  O  O153  1  0.33500428  0.70464955  0.44030470  1
  O  O154  1  0.87703833  0.24692282  0.03662715  1
  O  O155  1  0.77182239  0.21762985  0.40712044  1
  O  O156  1  0.88145070  0.71291150  0.05012398  1
  O  O157  1  0.85999157  0.76040548  0.49723808  1
  O  O158  1  0.12365183  0.22181638  0.49655930  1
  O  O159  1  0.11223094  0.21911684  1.01852076  1
  O  O160  1  0.14903361  0.79237678  0.43725472  1
  O  O161  1  0.13962328  0.74038614  0.96220699  1
  O  O162  1  0.71595721  0.28866827  0.52814526  1
  O  O163  1  0.61404040  0.26363307  1.00491874  1
  O  O164  1  0.64102438  0.75835083  0.46367638  1
  O  O165  1  0.57415232  0.73764977  0.93678952  1
  O  O166  1  0.49791164  0.32417337  0.13585421  1
  O  O167  1  0.51441875  0.25552175  0.65990560  1
  O  O168  1  0.50505999  0.75267961  0.10502608  1
  O  O169  1  0.42488940  0.86573816  0.62825196  1
  O  O170  1  1.00357556  0.26422893  0.12665690  1
  O  O171  1  0.87213880  0.26376641  0.61296971  1
  O  O172  1  1.02983402  0.74272966  0.10314567  1
  O  O173  1  1.01246871  0.74046367  0.57837346  1
  O  O174  1  -0.01618715  0.27167856  0.43746080  1
  O  O175  1  -0.01916860  0.27356017  0.88717525  1
  O  O176  1  -0.00861711  0.75710265  0.37973088  1
  O  O177  1  0.04432490  0.77748277  0.84154188  1
  O  O178  1  0.50116154  0.28412377  0.34967379  1
  O  O179  1  0.51395978  0.25169725  0.88356439  1
  O  O180  1  0.49192300  0.78502090  0.35458057  1
  O  O181  1  0.56552433  0.74769850  0.86623719  1
  O  O182  1  0.23241940  0.11432687  0.49478406  1
  O  O183  1  0.21830624  0.13544201  0.97438577  1
  O  O184  1  0.19350645  0.66737092  0.44065233  1
  O  O185  1  0.27955129  0.61446434  0.96970208  1
  O  O186  1  0.81185545  0.15029030  0.50851868  1
  O  O187  1  0.66830812  0.09338460  0.96136613  1
  O  O188  1  0.75410251  0.65243693  0.48697929  1
  O  O189  1  0.81300899  0.59035021  1.04812766  1
  O  O190  1  0.23495237  0.30363036  0.03728613  1
  O  O191  1  0.27520197  0.36323804  0.49508145  1
  O  O192  1  0.27622724  0.91401296  -0.00448778  1
  O  O193  1  0.27204848  0.85227592  0.48345286  1
  O  O194  1  0.75953007  0.36189613  0.05127731  1
  O  O195  1  0.76786104  0.38525530  0.41736300  1
  O  O196  1  0.77820603  0.83982583  0.01623080  1
  O  O197  1  0.75375564  0.87748582  0.51654756  1
  O  O198  1  0.13450854  0.46763211  0.25905746  1
  O  O199  1  0.16462971  0.49873436  0.72489174  1
  O  O200  1  0.13378592  0.99134483  0.24368914  1
  O  O201  1  0.15074412  1.00030493  0.73453778  1
  O  O202  1  0.60491515  0.53550455  0.24434009  1
  O  O203  1  0.65206664  0.49870212  0.70727279  1
  O  O204  1  0.58737964  1.02321110  0.19513455  1
  O  O205  1  0.64343117  0.99932393  0.72847169  1
  O  O206  1  0.40961356  -0.00685913  0.19611486  1
  O  O207  1  0.41584326  0.02141844  0.71277303  1
  O  O208  1  0.36500205  0.46925217  0.22071080  1
  O  O209  1  0.36453830  0.51992395  0.73296266  1
  O  O210  1  0.88861943  0.00459303  0.27139862  1
  O  O211  1  0.85185239  0.00452715  0.76165528  1
  O  O212  1  0.88027902  0.49691243  0.27905547  1
  O  O213  1  0.81941131  0.51407809  0.76792174  1
  O  O214  1  0.12008011  0.36360609  0.38131631  1
  O  O215  1  0.11131890  0.38664806  0.88345975  1
  O  O216  1  0.11416935  0.94078195  0.28689293  1
  O  O217  1  0.16814491  0.86603812  0.87491766  1
  O  O218  1  0.59849988  0.39157414  0.38250579  1
  O  O219  1  0.61411412  0.38423609  0.89638489  1
  O  O220  1  0.64511054  0.88901972  0.36897270  1
  O  O221  1  0.72850375  0.77575548  0.86569988  1
  O  O222  1  0.35145596  0.12582995  0.12388300  1
  O  O223  1  0.38943372  0.14937627  0.62273672  1
  O  O224  1  0.38568254  0.65056764  0.13800631  1
  O  O225  1  0.36324372  0.62315517  0.62031739  1
  O  O226  1  0.90015033  0.13571931  0.13252461  1
  O  O227  1  0.85350959  0.11916732  0.66111929  1
  O  O228  1  0.96402062  0.59418398  0.11633469  1
  O  O229  1  0.87026384  0.69713302  0.68169377  1
  O  O230  1  0.21734740  0.20503571  0.15066181  1
  O  O231  1  0.25796408  0.27582598  0.65214192  1
  O  O232  1  0.25596492  0.73720362  0.14740087  1
  O  O233  1  0.24865929  0.74408826  0.55527036  1
  O  O234  1  0.69680094  0.28590656  0.17492283  1
  O  O235  1  0.69820528  0.26184289  0.59214525  1
  O  O236  1  0.74263433  0.77054089  0.14593096  1
  O  O237  1  0.73512987  0.76107320  0.60306297  1
  O  O238  1  0.24759686  0.20888240  0.37784592  1
  O  O239  1  0.22768419  0.21122036  0.82378249  1
  O  O240  1  0.26731643  0.77965110  0.35317712  1
  O  O241  1  0.25990075  0.73892399  0.86455698  1
  O  O242  1  0.76745428  0.15519621  0.44410334  1
  O  O243  1  0.72032225  0.26683832  0.88232376  1
  O  O244  1  0.75598744  0.77412086  0.37744688  1
  O  O245  1  0.73181129  0.71712966  0.90688267  1
  O  O246  1  -0.00707219  0.11802686  0.01013378  1
  O  O247  1  0.02796737  0.10541454  0.51238987  1
  O  O248  1  0.00554401  0.64934587  -0.04678617  1
  O  O249  1  -0.00170885  0.58595064  0.54828358  1
  O  O250  1  0.50780621  0.14124318  0.02546358  1
  O  O251  1  0.55485729  0.18170086  0.50642451  1
  O  O252  1  0.48037567  0.62219069  0.02003341  1
  O  O253  1  0.48941146  0.63846098  0.45805439  1
  O  O254  1  0.49375837  0.36215990  0.47740126  1
  O  O255  1  0.39490047  0.42978950  1.04133818  1
  O  O256  1  0.45570312  0.74908108  0.58556464  1
  O  O257  1  0.47027659  0.88942886  1.02419412  1
  O  O258  1  1.00154991  0.42371365  0.49738633  1
  O  O259  1  1.07301728  0.39247056  0.94322466  1
  O  O260  1  1.01144460  0.89590624  0.51109989  1
  O  O261  1  1.02143871  0.86665059  0.97687601  1
  O  O262  1  0.49810539  0.48800418  0.37694217  1
  O  O263  1  0.52893339  0.49618918  0.78549985  1
  O  O264  1  0.49620625  1.02815672  0.38887126  1
  O  O265  1  0.58186030  0.96666239  0.92990053  1
  O  O266  1  0.89012057  0.60058605  0.42777788  1
  O  O267  1  0.93871503  0.50982903  0.83997462  1
  O  O268  1  1.00935642  0.99383893  0.38797342  1
  O  O269  1  0.88168326  0.97337418  0.95245298  1
  O  O270  1  -0.01699723  -0.01152988  0.11812032  1
  O  O271  1  0.07017632  -0.15602995  0.67366110  1
  O  O272  1  -0.04533954  0.44157184  0.11576206  1
  O  O273  1  0.04387083  0.47264965  0.64897461  1
  O  O274  1  0.55764434  0.01095073  0.12960829  1
  O  O275  1  0.54282591  0.04197950  0.61585885  1
  O  O276  1  0.50349853  0.50502077  0.13091300  1
  O  O277  1  0.51766179  0.50255291  0.62394055  1
  O  O278  1  0.22992078  0.36452945  0.30834547  1
  O  O279  1  0.28317664  0.39139058  0.78086538  1
  O  O280  1  0.25687925  0.89694647  0.23127995  1
  O  O281  1  0.28597453  0.91381380  0.75588264  1
  O  O282  1  0.73878670  0.42414122  0.25124138  1
  O  O283  1  0.78515553  0.35440927  0.72208189  1
  O  O284  1  0.74890475  0.92313288  0.20199937  1
  O  O285  1  0.71473506  0.86923039  0.72002092  1
  O  O286  1  0.28798889  0.08700903  0.27197726  1
  O  O287  1  0.29594646  0.09877363  0.74523361  1
  O  O288  1  0.23175681  0.61765867  0.24655774  1
  O  O289  1  0.26154129  0.61684389  0.75003635  1
  O  O290  1  0.78875411  0.12536839  0.24452812  1
  O  O291  1  0.73747358  0.09524043  0.79101057  1
  O  O292  1  0.76016918  0.60875759  0.21903962  1
  O  O293  1  0.65590374  0.64572393  0.75133436  1
  O  O294  1  0.36708889  0.10978740  0.40015042  1
  O  O295  1  0.35662227  0.14065174  0.90276111  1
  O  O296  1  0.39522461  0.58936805  0.30848419  1
  O  O297  1  0.37147784  0.63830519  0.85240761  1
  O  O298  1  0.90354072  0.11547114  0.36644277  1
  O  O299  1  0.88101163  0.12867034  0.86587814  1
  O  O300  1  0.87812629  0.63612876  0.36828203  1
  O  O301  1  0.85077797  0.60464041  0.89694964  1
  O  O302  1  0.15493639  0.35377521  0.17300080  1
  O  O303  1  0.12708659  0.35936992  0.58437348  1
  O  O304  1  0.16859733  0.86907942  0.09825800  1
  O  O305  1  0.10212997  0.89177761  0.63388869  1
  O  O306  1  0.64316223  0.42010715  0.13776256  1
  O  O307  1  0.58654454  0.39668624  0.60912253  1
  O  O308  1  0.64966970  0.85339135  0.11315047  1
  O  O309  1  0.61089024  0.91197798  0.60576356  1
  O  O310  1  0.10702979  0.26828868  0.25916613  1
  O  O311  1  0.06749897  0.24809880  0.74699249  1
  O  O312  1  0.09059181  0.72104645  0.25360212  1
  O  O313  1  0.16738527  0.76793421  0.74860100  1
  O  O314  1  0.62174179  0.15746390  0.29685772  1
  O  O315  1  0.60979063  0.25642577  0.78157907  1
  O  O316  1  0.62066220  0.74328664  0.27908096  1
  O  O317  1  0.58665869  0.77940749  0.68707035  1
  O  O318  1  0.35400593  0.27799802  0.28935801  1
  O  O319  1  0.39191596  0.22654770  0.76823748  1
  O  O320  1  0.39155980  0.77720528  0.23138471  1
  O  O321  1  0.33394356  0.73907943  0.71402696  1
  O  O322  1  0.90927117  0.22122427  0.25142685  1
  O  O323  1  0.88783382  0.22225473  0.77032340  1
  O  O324  1  0.92629128  0.71409724  0.22453268  1
  O  O325  1  0.86103971  0.72755886  0.74608798  1
  O  O326  1  0.34995516  0.53444594  0.49308180  1
  O  O327  1  0.26101371  0.43745501  1.01763982  1
  O  O328  1  0.39801058  1.00704249  0.52100452  1
  O  O329  1  0.34150268  0.96098369  0.98285099  1
  O  O330  1  0.88943706  0.46677285  0.60952107  1
  O  O331  1  0.87160841  0.47502916  0.96982016  1
  O  O332  1  0.90883663  1.01029175  0.49687983  1
  O  O333  1  0.85267670  1.03850793  0.95322395  1
  O  O334  1  0.12166122  0.02056291  -0.00367906  1
  O  O335  1  0.12262708  0.00456178  0.51716772  1
  O  O336  1  0.12962924  0.54052879  -0.03467216  1
  O  O337  1  0.16059841  0.50138149  0.53707273  1
  O  O338  1  0.58889985  -0.10161668  -0.08538139  1
  O  O339  1  0.66459442  0.03031080  0.51184254  1
  O  O340  1  0.64139289  0.50740504  0.03925934  1
  O  O341  1  0.62212900  0.50475078  0.50158242  1
  O  O342  1  0.33306452  0.34281129  0.13126448  1
  O  O343  1  0.39456794  0.37005609  0.62214092  1
  O  O344  1  0.34883760  0.86232551  0.11103374  1
  O  O345  1  0.45448898  0.81965709  0.57076277  1
  O  O346  1  0.85681644  0.33261835  0.17622966  1
  O  O347  1  0.88139779  0.29595144  0.55065461  1
  O  O348  1  0.85233811  0.87409490  0.13998056  1
  O  O349  1  0.85736549  0.86260033  0.63962705  1
  O  O350  1  0.15313309  0.09127563  0.35977660  1
  O  O351  1  0.08429406  0.11305052  0.87799044  1
  O  O352  1  0.03355471  0.58789377  0.32433003  1
  O  O353  1  0.14664681  0.64458803  0.85744839  1
  O  O354  1  0.61530770  0.17801188  0.46911818  1
  O  O355  1  0.62130453  0.13063708  0.90999701  1
  O  O356  1  0.53671615  0.64289665  0.40344101  1
  O  O357  1  0.57967094  0.57407512  0.88973418  1
