# generated using pymatgen
data_V51Zn51O256
_symmetry_space_group_name_H-M   'P 1'
_cell_length_a   17.33794339
_cell_length_b   17.48350085
_cell_length_c   17.55427855
_cell_angle_alpha   88.94579821
_cell_angle_beta   89.38729394
_cell_angle_gamma   89.23374508
_symmetry_Int_Tables_number   1
_chemical_formula_structural   V51Zn51O256
_chemical_formula_sum   'V51 Zn51 O256'
_cell_volume   5319.52549740
_cell_formula_units_Z   1
loop_
 _symmetry_equiv_pos_site_id
 _symmetry_equiv_pos_as_xyz
  1  'x, y, z'
loop_
 _atom_site_type_symbol
 _atom_site_label
 _atom_site_symmetry_multiplicity
 _atom_site_fract_x
 _atom_site_fract_y
 _atom_site_fract_z
 _atom_site_occupancy
  V  V0  1  -0.02764683  0.49642699  0.53139873  1
  V  V1  1  -0.01184542  0.36597598  0.41421461  1
  V  V2  1  0.12580489  0.55785341  -0.00864641  1
  V  V3  1  0.52670427  0.15317872  0.61629950  1
  V  V4  1  0.61408473  0.62365471  0.45700598  1
  V  V5  1  0.63217544  0.12263575  0.47919199  1
  V  V6  1  0.47143700  0.64381607  0.58848527  1
  V  V7  1  0.18555701  0.56081930  0.80496722  1
  V  V8  1  0.39386843  0.24929759  0.61614634  1
  V  V9  1  0.25374217  0.37144698  0.15480851  1
  V  V10  1  -0.01767040  -0.03394362  0.48507067  1
  V  V11  1  0.14846042  0.50644275  0.62741680  1
  V  V12  1  0.76273909  0.64388581  0.34237630  1
  V  V13  1  0.49199151  0.48499630  0.03087665  1
  V  V14  1  0.80288450  0.39068551  0.55098520  1
  V  V15  1  0.23709268  0.48494359  0.29067150  1
  V  V16  1  -0.00320778  0.72424620  0.23903271  1
  V  V17  1  0.04731079  0.35490958  0.87704610  1
  V  V18  1  0.13450998  0.26372652  0.39419752  1
  V  V19  1  0.52347440  0.18766173  0.23347256  1
  V  V20  1  0.35746566  0.38098979  0.49733104  1
  V  V21  1  0.25589142  0.23747436  0.51702031  1
  V  V22  1  0.70537324  0.00245501  0.71658245  1
  V  V23  1  0.48836256  0.34854873  0.36933806  1
  V  V24  1  0.10027056  0.14929745  0.53425011  1
  V  V25  1  -0.04292708  0.60541737  0.65725726  1
  V  V26  1  -0.05078515  0.24952524  0.74029654  1
  V  V27  1  0.89255068  0.02898094  0.93620876  1
  V  V28  1  -0.00255730  0.83084753  0.38704790  1
  V  V29  1  0.26658732  0.11257928  0.83445460  1
  V  V30  1  0.48778867  0.25986171  0.78945682  1
  V  V31  1  0.35315845  0.20857510  0.15286869  1
  V  V32  1  0.16841648  0.27614727  0.79305459  1
  V  V33  1  0.86400920  0.49468299  0.37233690  1
  V  V34  1  0.77876467  0.89237348  0.15550055  1
  V  V35  1  0.77647526  0.52487342  0.87809342  1
  V  V36  1  0.49481162  0.00795683  0.51720544  1
  V  V37  1  0.13190898  0.88740024  0.73528805  1
  V  V38  1  0.16771871  0.01186537  0.61158560  1
  V  V39  1  0.55815187  0.72730893  0.18470169  1
  V  V40  1  0.29442453  0.65218229  0.22895515  1
  V  V41  1  0.49040153  0.49497075  0.47102496  1
  V  V42  1  0.09629790  0.38148304  0.25862608  1
  V  V43  1  0.35967088  0.02364239  0.42554902  1
  V  V44  1  0.11894489  0.63246175  0.50331225  1
  V  V45  1  -0.02010994  0.56718773  0.06740351  1
  V  V46  1  0.84875767  0.86948789  0.52635003  1
  V  V47  1  0.71807543  0.77584213  0.50122292  1
  V  V48  1  0.63842192  0.25184720  0.36928724  1
  V  V49  1  0.11889572  -0.07613239  0.06854911  1
  V  V50  1  0.63783970  0.24559909  0.90521672  1
  Zn  Zn51  1  0.11720925  0.57728286  0.19594305  1
  Zn  Zn52  1  0.09012209  0.09856355  0.74262857  1
  Zn  Zn53  1  0.66876851  0.43414814  0.98298798  1
  Zn  Zn54  1  0.98689398  0.89807047  0.19548749  1
  Zn  Zn55  1  0.51431194  0.68727849  0.98822277  1
  Zn  Zn56  1  0.89940145  0.05216880  0.14645085  1
  Zn  Zn57  1  0.29312397  0.54493121  0.07632412  1
  Zn  Zn58  1  0.61196317  0.70810812  0.63532367  1
  Zn  Zn59  1  0.81796799  0.29838769  0.41154809  1
  Zn  Zn60  1  0.82139257  0.67403689  0.15679753  1
  Zn  Zn61  1  0.30585262  0.96677606  0.74340562  1
  Zn  Zn62  1  0.46604490  0.40349713  0.67577353  1
  Zn  Zn63  1  0.45822613  0.63685773  0.33960666  1
  Zn  Zn64  1  0.53690446  0.81083948  0.51726591  1
  Zn  Zn65  1  0.07449968  0.32115565  0.61219893  1
  Zn  Zn66  1  -0.00370066  0.55450055  0.85654053  1
  Zn  Zn67  1  0.78868797  0.31785876  0.81703887  1
  Zn  Zn68  1  0.82000753  0.71475545  0.97194935  1
  Zn  Zn69  1  0.27872910  0.81842786  0.14028751  1
  Zn  Zn70  1  0.65848190  0.92741801  0.43305501  1
  Zn  Zn71  1  0.30792698  0.57582886  0.52655712  1
  Zn  Zn72  1  0.18028187  0.18633647  0.23251279  1
  Zn  Zn73  1  0.71804485  0.99819167  1.00451698  1
  Zn  Zn74  1  0.34625668  0.36263211  0.82020743  1
  Zn  Zn75  1  0.91032765  0.22086850  0.56946040  1
  Zn  Zn76  1  0.01502178  0.78245498  0.57673556  1
  Zn  Zn77  1  0.59890786  0.32827070  0.53938447  1
  Zn  Zn78  1  0.79862947  0.87410812  0.84676192  1
  Zn  Zn79  1  0.67104063  0.43841321  0.41620770  1
  Zn  Zn80  1  0.06348683  0.09037310  0.34598559  1
  Zn  Zn81  1  0.10541201  0.36422030  0.05374133  1
  Zn  Zn82  1  0.89819679  0.67440165  0.46984147  1
  Zn  Zn83  1  0.52596816  -0.01038653  0.30738357  1
  Zn  Zn84  1  0.49882479  0.98633846  0.71403397  1
  Zn  Zn85  1  0.08944579  0.67024090  0.71367432  1
  Zn  Zn86  1  0.00321074  0.77120006  0.04127719  1
  Zn  Zn87  1  0.46441152  0.87968809  0.14482096  1
  Zn  Zn88  1  1.05108663  0.15081116  0.90039275  1
  Zn  Zn89  1  0.61229287  0.11408439  0.78306922  1
  Zn  Zn90  1  0.36278653  0.24875687  0.95483859  1
  Zn  Zn91  1  0.50534836  0.27090159  0.06090443  1
  Zn  Zn92  1  0.27050878  0.14600822  0.68124762  1
  Zn  Zn93  1  0.61597375  0.14259550  0.05912751  1
  Zn  Zn94  1  0.43180655  0.18239793  0.44024912  1
  Zn  Zn95  1  0.78783767  0.17089700  0.69323889  1
  Zn  Zn96  1  0.17294915  0.94716202  0.45695209  1
  Zn  Zn97  1  0.16394632  0.43482696  0.47880687  1
  Zn  Zn98  1  0.41296197  0.43599437  0.21335016  1
  Zn  Zn99  1  0.84456085  0.80230846  0.31875814  1
  Zn  Zn100  1  0.80564216  0.05385598  0.55464034  1
  Zn  Zn101  1  0.04154681  0.55467091  0.34572360  1
  O  O102  1  0.12607241  0.01775781  0.09534798  1
  O  O103  1  0.12362325  0.12255611  0.63107554  1
  O  O104  1  0.08331304  0.58512444  0.09232404  1
  O  O105  1  0.10364162  0.60362504  0.61974948  1
  O  O106  1  0.76283840  0.16680368  0.10677652  1
  O  O107  1  0.62290225  0.14593352  0.59246239  1
  O  O108  1  0.66645198  0.50041412  0.20169522  1
  O  O109  1  0.58840850  0.63045737  0.55864098  1
  O  O110  1  0.38915262  0.36376267  0.39846057  1
  O  O111  1  0.34130078  0.35060024  0.92653032  1
  O  O112  1  0.28182509  0.90981678  0.23418606  1
  O  O113  1  0.46172179  0.90633655  0.92655094  1
  O  O114  1  0.88533761  0.38359281  0.38964096  1
  O  O115  1  0.78403277  0.42797914  0.84147139  1
  O  O116  1  0.91095766  0.87624621  0.36719528  1
  O  O117  1  0.84173093  0.93848947  0.93254475  1
  O  O118  1  0.27335169  -0.02637319  0.41432098  1
  O  O119  1  0.25680766  0.01685729  0.83734025  1
  O  O120  1  0.22266661  0.48138202  0.38563960  1
  O  O121  1  0.27087556  0.53836283  0.83759874  1
  O  O122  1  0.77330379  0.09174654  0.29479157  1
  O  O123  1  0.79340092  0.06526648  0.96020797  1
  O  O124  1  0.76557025  0.47391923  0.37196609  1
  O  O125  1  0.67110226  0.52495754  0.90024849  1
  O  O126  1  0.23953273  0.47117920  0.14244954  1
  O  O127  1  0.24130279  0.52018432  0.60109981  1
  O  O128  1  0.21179273  0.89157940  0.08283679  1
  O  O129  1  0.25680703  1.03663248  0.65097419  1
  O  O130  1  0.81122148  0.48047455  0.15150119  1
  O  O131  1  0.61336752  0.46062606  0.65246521  1
  O  O132  1  0.80721421  0.99173374  0.14893036  1
  O  O133  1  0.73167790  0.99623649  0.62396961  1
  O  O134  1  0.00838047  0.37723326  0.30452060  1
  O  O135  1  0.01088609  0.44436704  0.86433455  1
  O  O136  1  0.02381743  0.81769413  0.28291725  1
  O  O137  1  0.05615007  0.83782502  0.66931865  1
  O  O138  1  0.48569145  0.38672463  0.27999580  1
  O  O139  1  0.46108261  0.36050536  0.78288168  1
  O  O140  1  0.56391467  0.81561878  0.12394597  1
  O  O141  1  0.55241820  0.81544274  0.80960969  1
  O  O142  1  0.52283745  0.09711024  0.26490754  1
  O  O143  1  0.53029986  0.16821470  0.72161136  1
  O  O144  1  0.51795298  0.64910670  0.23544789  1
  O  O145  1  0.45712323  0.62435043  0.67846799  1
  O  O146  1  0.93756915  0.14199674  0.30875177  1
  O  O147  1  0.99221008  0.16231023  0.74959367  1
  O  O148  1  1.03828204  0.63374226  0.25902895  1
  O  O149  1  1.00168791  0.60265575  0.75364421  1
  O  O150  1  0.39704578  0.23780548  0.06048245  1
  O  O151  1  0.36356137  0.25728178  0.50074673  1
  O  O152  1  0.41689807  0.74620498  -0.01844978  1
  O  O153  1  0.26575920  0.77394526  0.56530637  1
  O  O154  1  1.08023753  0.16391875  0.01796859  1
  O  O155  1  0.84241920  0.29872352  0.51968113  1
  O  O156  1  0.78477727  0.78355285  -0.10179559  1
  O  O157  1  0.82986693  0.76298446  0.50251031  1
  O  O158  1  0.14217894  0.24913573  0.53435203  1
  O  O159  1  0.09868446  0.23974630  0.86425813  1
  O  O160  1  0.09567152  0.72604233  0.52689322  1
  O  O161  1  0.25005298  0.76287601  0.97094902  1
  O  O162  1  0.62885677  0.24095864  0.47542897  1
  O  O163  1  0.59666522  0.23503597  1.00114695  1
  O  O164  1  0.62910524  0.81607173  0.45767643  1
  O  O165  1  0.64870663  0.71122829  0.92630536  1
  O  O166  1  0.54896966  0.19070232  0.13661163  1
  O  O167  1  0.50679159  0.25330556  0.58990301  1
  O  O168  1  0.55041772  0.68866475  0.08977515  1
  O  O169  1  0.50497535  0.74473586  0.59551873  1
  O  O170  1  1.11046734  0.19966034  0.07040853  1
  O  O171  1  0.97111996  0.28365475  0.64597760  1
  O  O172  1  1.01762145  0.74554736  0.14656571  1
  O  O173  1  0.96913124  0.70479110  0.64307784  1
  O  O174  1  -0.01480470  0.27175864  0.41968488  1
  O  O175  1  -0.02778000  0.30847333  0.81498116  1
  O  O176  1  -0.02581782  0.73842898  0.40858810  1
  O  O177  1  -0.04560849  0.79884778  0.81324060  1
  O  O178  1  0.49149257  0.24937397  0.36896539  1
  O  O179  1  0.44743800  0.22781156  0.87065868  1
  O  O180  1  0.58945309  0.78088315  0.25943394  1
  O  O181  1  0.58767443  0.75275773  0.93469026  1
  O  O182  1  0.25488808  0.14563499  0.50897935  1
  O  O183  1  0.23118842  0.16360453  0.92553710  1
  O  O184  1  0.21687006  0.63011729  0.49235131  1
  O  O185  1  0.21813676  0.58760009  1.00624281  1
  O  O186  1  0.72708728  0.09955481  0.48398143  1
  O  O187  1  0.82027406  0.14750065  1.14568348  1
  O  O188  1  0.70208845  0.67733009  0.48109531  1
  O  O189  1  0.76857741  0.67880436  1.05957282  1
  O  O190  1  0.21454379  0.33729307  0.07337976  1
  O  O191  1  0.25983809  0.36871073  0.50582526  1
  O  O192  1  0.39771538  0.77679657  -0.08145916  1
  O  O193  1  0.29188049  0.80941242  0.50571159  1
  O  O194  1  0.70625252  0.36919641  0.07668092  1
  O  O195  1  0.70478999  0.39020892  0.51634434  1
  O  O196  1  0.74989962  0.89947927  0.05780977  1
  O  O197  1  0.75403796  0.88189398  0.47844527  1
  O  O198  1  0.10854092  0.48620133  0.27255000  1
  O  O199  1  0.15033270  0.49838501  0.72879535  1
  O  O200  1  0.10066244  0.90167742  0.17298197  1
  O  O201  1  0.11015817  0.98882362  0.69611148  1
  O  O202  1  0.63533079  0.47618106  0.26053885  1
  O  O203  1  0.57432236  0.50071222  0.69815151  1
  O  O204  1  0.71375796  1.10755951  0.26012411  1
  O  O205  1  0.60382824  1.00254837  0.74307717  1
  O  O206  1  0.28735023  -0.02081656  0.21773512  1
  O  O207  1  0.41185755  -0.05903376  0.75092099  1
  O  O208  1  0.33406386  0.48692087  0.27458486  1
  O  O209  1  0.38203791  0.48412679  0.70757048  1
  O  O210  1  0.94739698  -0.00566230  0.22599381  1
  O  O211  1  0.87593929  0.05642387  0.84225694  1
  O  O212  1  0.89093039  0.50577245  0.28427913  1
  O  O213  1  0.75095692  0.55595354  0.78900684  1
  O  O214  1  0.10594822  0.36261020  0.41374203  1
  O  O215  1  0.14141178  0.36972101  0.83658082  1
  O  O216  1  0.06837248  0.89854973  0.42806604  1
  O  O217  1  0.09733773  0.88725068  0.82118127  1
  O  O218  1  0.60558664  0.35360492  0.37382724  1
  O  O219  1  0.62431891  0.36057596  0.92470863  1
  O  O220  1  0.62637138  0.95840250  0.33619697  1
  O  O221  1  0.65486599  0.95988867  0.91865175  1
  O  O222  1  0.34344364  0.11689360  0.14830954  1
  O  O223  1  0.40849732  0.15191427  0.61136189  1
  O  O224  1  0.33378349  0.61993987  0.14515098  1
  O  O225  1  0.38546842  0.65126487  0.53985473  1
  O  O226  1  0.97790954  0.11841022  0.14991537  1
  O  O227  1  0.84339847  0.14169059  0.60612309  1
  O  O228  1  0.91196101  0.62348119  0.11285338  1
  O  O229  1  0.86560484  0.59170938  0.67031087  1
  O  O230  1  0.25928489  0.24349740  0.18600154  1
  O  O231  1  0.28215093  0.24191645  0.62063279  1
  O  O232  1  0.25891923  0.73997978  0.03775213  1
  O  O233  1  0.30093867  0.78088766  0.62818404  1
  O  O234  1  0.84283644  0.28444406  0.04998180  1
  O  O235  1  0.69636731  0.26807279  0.68793406  1
  O  O236  1  0.77327277  0.79115963  0.15117826  1
  O  O237  1  0.69249836  0.77580845  0.59513363  1
  O  O238  1  0.23139190  0.25971764  0.40800240  1
  O  O239  1  0.26716686  0.28917797  0.79531711  1
  O  O240  1  0.25141664  0.73962145  0.20795361  1
  O  O241  1  0.42445407  0.61779064  0.84689127  1
  O  O242  1  0.73591859  0.26058184  0.35696526  1
  O  O243  1  0.73565155  0.26473507  0.89890122  1
  O  O244  1  0.76162655  0.74252731  0.35499370  1
  O  O245  1  0.66128851  0.88847892  0.90529730  1
  O  O246  1  0.08787038  0.06545182  -0.15041575  1
  O  O247  1  0.00482622  0.16096293  0.53817706  1
  O  O248  1  0.00335076  0.58586066  -0.03086102  1
  O  O249  1  -0.04605046  0.60039508  0.53488587  1
  O  O250  1  0.50239595  0.07186061  -0.01438837  1
  O  O251  1  0.51118786  0.12674824  0.50054104  1
  O  O252  1  0.49593776  0.58223121  0.00034170  1
  O  O253  1  0.53501870  0.67022037  0.41865881  1
  O  O254  1  0.50728267  0.39236262  0.47231592  1
  O  O255  1  0.49677251  0.38449522  1.05485327  1
  O  O256  1  0.49958610  0.91228077  0.53441395  1
  O  O257  1  0.50364585  0.90159429  0.98561774  1
  O  O258  1  0.99699051  0.39099461  0.51405334  1
  O  O259  1  1.04091707  0.33417334  0.97344096  1
  O  O260  1  0.95720724  0.85366653  0.50871108  1
  O  O261  1  0.92195809  0.74904434  0.98417818  1
  O  O262  1  0.46278909  0.53569634  0.38668828  1
  O  O263  1  0.49324377  0.45332154  0.93768968  1
  O  O264  1  0.45679892  0.99019449  0.40272327  1
  O  O265  1  0.49818565  1.05868851  0.91734619  1
  O  O266  1  0.97168017  0.49660472  0.41294773  1
  O  O267  1  0.87752920  0.53203699  0.86935179  1
  O  O268  1  1.00156852  1.03556848  0.41647747  1
  O  O269  1  0.97006183  0.96908456  0.92311999  1
  O  O270  1  0.01035729  -0.08019596  0.07585585  1
  O  O271  1  0.01980462  -0.01089987  0.56579468  1
  O  O272  1  -0.03811947  0.47621316  0.08121639  1
  O  O273  1  -0.01544719  0.49487624  0.62878066  1
  O  O274  1  0.47814543  -0.07198566  0.23516175  1
  O  O275  1  0.50919342  0.04098100  0.61596367  1
  O  O276  1  0.47359212  0.49686606  0.13374455  1
  O  O277  1  0.48395215  0.53584602  0.55865195  1
  O  O278  1  0.21213543  0.38463011  0.25917494  1
  O  O279  1  0.32555778  0.44843752  0.73855371  1
  O  O280  1  0.26443015  0.80069082  0.35827369  1
  O  O281  1  0.23110942  0.88640278  0.73489019  1
  O  O282  1  0.82507966  0.41375695  0.16822942  1
  O  O283  1  0.70052247  0.32499044  0.73129699  1
  O  O284  1  0.79816048  0.88876682  0.25616857  1
  O  O285  1  0.75462830  0.93520600  0.77052159  1
  O  O286  1  0.12364426  0.10258587  0.25967874  1
  O  O287  1  0.34244848  0.12645052  0.77288998  1
  O  O288  1  0.21504116  0.58671136  0.25376725  1
  O  O289  1  0.18796285  0.65058500  0.76462868  1
  O  O290  1  0.85349361  0.26818643  0.23279588  1
  O  O291  1  0.72482466  0.09769425  0.74654150  1
  O  O292  1  0.77777262  0.62731810  0.24842346  1
  O  O293  1  0.82356237  0.72149883  0.74031343  1
  O  O294  1  0.35820389  0.11589784  0.39124902  1
  O  O295  1  0.31180417  0.14734308  0.93058037  1
  O  O296  1  0.35826480  0.65953007  0.30336974  1
  O  O297  1  0.48375091  0.65489392  0.85683815  1
  O  O298  1  0.88932268  0.15918904  0.35815179  1
  O  O299  1  0.94729117  0.11617055  0.93431516  1
  O  O300  1  0.84376041  0.60328290  0.39811134  1
  O  O301  1  0.78487933  0.61579054  0.91935606  1
  O  O302  1  0.08015672  0.36921914  0.16565209  1
  O  O303  1  0.13464577  0.41105703  0.59648050  1
  O  O304  1  0.09799857  0.82808342  0.03316510  1
  O  O305  1  0.18110917  0.92423874  0.57151198  1
  O  O306  1  0.66917010  0.33971706  0.13118294  1
  O  O307  1  0.57146921  0.38728527  0.63326511  1
  O  O308  1  0.68661856  0.91336905  0.18674373  1
  O  O309  1  0.60203733  0.78879482  0.76369515  1
  O  O310  1  0.12166204  0.27218107  0.29371940  1
  O  O311  1  0.12821568  0.28603070  0.70606233  1
  O  O312  1  0.20728135  0.76122787  0.36608819  1
  O  O313  1  0.11026492  0.78373445  0.70259925  1
  O  O314  1  0.60312355  0.24003587  0.27089863  1
  O  O315  1  0.58467570  0.27357341  0.81691038  1
  O  O316  1  0.64940546  0.68616742  0.18345481  1
  O  O317  1  0.59339372  0.71065361  0.74569388  1
  O  O318  1  0.42631528  0.22459070  0.22465501  1
  O  O319  1  0.40708513  0.25856120  0.71194240  1
  O  O320  1  0.45454086  0.75396690  0.19437027  1
  O  O321  1  0.39187827  0.77953792  0.76230575  1
  O  O322  1  0.92078680  0.26507429  0.21104881  1
  O  O323  1  0.84599487  0.24359347  0.75564898  1
  O  O324  1  0.89751956  0.72793762  0.24777296  1
  O  O325  1  0.91311877  0.85122282  0.78650954  1
  O  O326  1  0.36862353  0.48009670  0.49201643  1
  O  O327  1  0.38820011  0.49654004  1.02912278  1
  O  O328  1  0.38643281  1.02620656  0.52194258  1
  O  O329  1  0.48748254  0.94647362  1.04728830  1
  O  O330  1  0.86547703  0.47030353  0.52237810  1
  O  O331  1  0.77575294  0.46970547  0.97217763  1
  O  O332  1  0.87481247  0.97536826  0.50461249  1
  O  O333  1  0.90362056  1.03842528  1.03749648  1
  O  O334  1  0.12279850  -0.04091651  -0.02270003  1
  O  O335  1  0.14308406  0.05337075  0.51200047  1
  O  O336  1  0.12927397  0.46385529  0.00249215  1
  O  O337  1  0.08985473  0.51904654  0.51362747  1
  O  O338  1  0.65094854  0.04469854  0.07006000  1
  O  O339  1  0.59881692  0.01752074  0.48133516  1
  O  O340  1  0.59369804  0.49280737  0.04625956  1
  O  O341  1  0.59707962  0.51874358  0.45651926  1
  O  O342  1  0.35269171  0.36287192  0.15538477  1
  O  O343  1  0.39737257  0.36274953  0.59315902  1
  O  O344  1  0.37309428  0.84853431  0.10124830  1
  O  O345  1  0.41972912  0.82455158  0.71651274  1
  O  O346  1  0.91032232  0.26515453  0.05984447  1
  O  O347  1  0.80340113  0.38806982  0.64315598  1
  O  O348  1  0.88422823  0.87287058  0.14330588  1
  O  O349  1  0.83738499  0.86685852  0.61754021  1
  O  O350  1  0.10403653  0.16926142  0.41918332  1
  O  O351  1  0.19109360  0.15746992  0.77095531  1
  O  O352  1  0.08631329  0.62717946  0.41155538  1
  O  O353  1  0.11898355  0.56942161  0.88542033  1
  O  O354  1  0.62316499  0.14419125  0.38114709  1
  O  O355  1  0.63292719  0.14907466  0.88330456  1
  O  O356  1  0.66898710  0.60923951  0.36320868  1
  O  O357  1  0.75477134  0.73746061  0.74645242  1
