# generated using pymatgen
data_V51Zn51O256
_symmetry_space_group_name_H-M   'P 1'
_cell_length_a   17.20494844
_cell_length_b   17.43721327
_cell_length_c   17.44465115
_cell_angle_alpha   88.60898438
_cell_angle_beta   89.74970628
_cell_angle_gamma   88.72650130
_symmetry_Int_Tables_number   1
_chemical_formula_structural   V51Zn51O256
_chemical_formula_sum   'V51 Zn51 O256'
_cell_volume   5230.63324128
_cell_formula_units_Z   1
loop_
 _symmetry_equiv_pos_site_id
 _symmetry_equiv_pos_as_xyz
  1  'x, y, z'
loop_
 _atom_site_type_symbol
 _atom_site_label
 _atom_site_symmetry_multiplicity
 _atom_site_fract_x
 _atom_site_fract_y
 _atom_site_fract_z
 _atom_site_occupancy
  V  V0  1  0.26890369  0.63034259  0.86019962  1
  V  V1  1  0.49583982  0.51468144  -0.04981896  1
  V  V2  1  0.49290379  0.51140980  0.50433041  1
  V  V3  1  0.10309002  0.84353216  0.21565525  1
  V  V4  1  -0.00237611  0.72901169  0.26755480  1
  V  V5  1  0.23031917  0.26786505  0.47429184  1
  V  V6  1  0.38551336  0.14591785  0.26306423  1
  V  V7  1  0.74123995  -0.05421773  0.25116546  1
  V  V8  1  0.83205878  0.51606148  0.43575211  1
  V  V9  1  0.69767786  0.61681601  0.36950920  1
  V  V10  1  0.24458672  0.49986770  0.27545606  1
  V  V11  1  0.24919061  0.49200289  0.73043556  1
  V  V12  1  0.71371845  0.82488789  0.12408229  1
  V  V13  1  0.77691886  0.86351433  0.61727977  1
  V  V14  1  0.36464338  0.71815925  0.11428579  1
  V  V15  1  0.27115917  0.06349397  0.80261569  1
  V  V16  1  -0.05565709  0.64254437  0.63068209  1
  V  V17  1  0.86179675  -0.01543408  0.91263396  1
  V  V18  1  -0.00337360  0.39780716  0.42579498  1
  V  V19  1  0.46488710  0.37105062  0.38635446  1
  V  V20  1  -0.00754850  0.12951416  0.60648194  1
  V  V21  1  0.13144876  0.61356383  -0.03127393  1
  V  V22  1  0.62138279  0.01151808  0.13013641  1
  V  V23  1  0.11000831  0.38386387  0.74007002  1
  V  V24  1  0.55854544  -0.04557425  -0.04684577  1
  V  V25  1  0.49334608  0.27664409  0.22509551  1
  V  V26  1  0.13426804  0.49412416  0.12104556  1
  V  V27  1  0.25200226  0.75098177  -0.01372874  1
  V  V28  1  0.35419555  0.63826467  0.71534505  1
  V  V29  1  0.88172718  0.74110629  0.10788920  1
  V  V30  1  0.23995078  0.26354579  0.01395668  1
  V  V31  1  -0.01046950  0.74458934  0.75579522  1
  V  V32  1  0.88110143  0.09149983  0.76552062  1
  V  V33  1  0.09902324  0.88613263  0.73392505  1
  V  V34  1  0.00580986  0.86406349  0.88907264  1
  V  V35  1  0.88164614  0.27843293  0.64367307  1
  V  V36  1  0.61254365  0.24046454  0.40692063  1
  V  V37  1  0.52278560  0.59493970  0.12915223  1
  V  V38  1  0.86395372  0.17088562  0.25462800  1
  V  V39  1  0.00833090  0.62009466  0.09810226  1
  V  V40  1  -0.00046965  0.22292558  0.80815579  1
  V  V41  1  0.65662012  0.36464493  0.27664646  1
  V  V42  1  0.73232272  0.24284552  0.53766294  1
  V  V43  1  0.03048835  -0.01638402  0.01427339  1
  V  V44  1  0.12423746  0.13712589  0.48205050  1
  V  V45  1  0.74846540  0.25618800  -0.01443435  1
  V  V46  1  0.48227774  0.77771815  0.72790493  1
  V  V47  1  0.01427823  0.12036273  0.12619754  1
  V  V48  1  0.87661508  0.49219367  0.87488431  1
  V  V49  1  0.73095283  0.76268268  0.48492112  1
  V  V50  1  0.88601925  0.59459803  0.24700343  1
  Zn  Zn51  1  0.73359771  0.95189055  0.99493667  1
  Zn  Zn52  1  0.35735608  0.52933316  0.59236235  1
  Zn  Zn53  1  0.43023941  0.07149649  0.85124088  1
  Zn  Zn54  1  0.56490413  0.34494587  0.54397219  1
  Zn  Zn55  1  0.04339929  0.51792996  0.28504982  1
  Zn  Zn56  1  0.67402905  0.92767964  0.43948260  1
  Zn  Zn57  1  0.54139477  0.52826311  0.29828621  1
  Zn  Zn58  1  0.27383932  0.12733419  0.60656858  1
  Zn  Zn59  1  0.07087277  0.96352168  0.55407943  1
  Zn  Zn60  1  0.92698619  0.14919091  0.95702141  1
  Zn  Zn61  1  0.57350590  0.08716524  0.28279884  1
  Zn  Zn62  1  0.03957285  0.31896620  0.06834031  1
  Zn  Zn63  1  0.90483945  0.68170872  0.43941020  1
  Zn  Zn64  1  0.33186971  0.52108134  0.05441662  1
  Zn  Zn65  1  0.36631013  0.61557192  0.23780515  1
  Zn  Zn66  1  0.55770693  0.69231582  0.43272222  1
  Zn  Zn67  1  0.02210955  0.78602911  0.56734939  1
  Zn  Zn68  1  0.93105696  0.46285082  0.68339245  1
  Zn  Zn69  1  0.25547485  0.34762913  0.85073441  1
  Zn  Zn70  1  0.92549977  0.92166863  0.17725437  1
  Zn  Zn71  1  0.79930509  0.76396562  0.30107803  1
  Zn  Zn72  1  0.68263456  0.41639009  0.46500056  1
  Zn  Zn73  1  0.65243932  0.40936886  0.95997659  1
  Zn  Zn74  1  0.67602485  0.19970407  0.17795634  1
  Zn  Zn75  1  0.14650387  0.15985080  0.73690036  1
  Zn  Zn76  1  0.71514976  0.17866986  0.70267826  1
  Zn  Zn77  1  0.06967304  0.31345947  0.57511007  1
  Zn  Zn78  1  0.36917191  0.92804857  0.78474178  1
  Zn  Zn79  1  0.30292974  0.44275243  0.44361507  1
  Zn  Zn80  1  0.51898279  0.79051086  0.06531530  1
  Zn  Zn81  1  0.07355289  0.78835010  0.05232177  1
  Zn  Zn82  1  0.95053963  0.20140317  0.41882058  1
  Zn  Zn83  1  0.06198632  0.03317251  0.83177474  1
  Zn  Zn84  1  0.30283836  0.31517638  0.29856850  1
  Zn  Zn85  1  0.81478220  0.31197335  0.79507084  1
  Zn  Zn86  1  0.41114402  0.44818195  0.20064939  1
  Zn  Zn87  1  0.94197318  0.44023399  0.16015634  1
  Zn  Zn88  1  0.21822011  0.09912689  0.14995506  1
  Zn  Zn89  1  0.71176928  0.64725009  0.18374349  1
  Zn  Zn90  1  0.45014838  0.89732304  0.17772822  1
  Zn  Zn91  1  0.06317323  0.55857586  0.78621394  1
  Zn  Zn92  1  0.19696460  0.93067891  0.91627162  1
  Zn  Zn93  1  0.69007471  0.73998932  0.69086835  1
  Zn  Zn94  1  0.54010410  0.62572716  0.80054904  1
  Zn  Zn95  1  0.93155825  0.68990582  0.92299303  1
  Zn  Zn96  1  0.47993833  0.39317961  0.06833740  1
  Zn  Zn97  1  0.12389120  0.41968023  0.94253341  1
  Zn  Zn98  1  0.84767006  0.83171382  0.79686528  1
  Zn  Zn99  1  0.18837348  0.67335286  0.17859558  1
  Zn  Zn100  1  0.18367062  0.73065025  0.68991159  1
  Zn  Zn101  1  0.95442493  0.94333529  0.67227344  1
  O  O102  1  0.10870956  0.09759395  0.15198924  1
  O  O103  1  0.08169662  0.13553940  0.64591956  1
  O  O104  1  0.11497187  0.61667914  0.11170275  1
  O  O105  1  0.11185266  0.70698104  0.60163484  1
  O  O106  1  0.62249974  0.11117739  0.13259319  1
  O  O107  1  0.63251017  0.17712678  0.78663630  1
  O  O108  1  0.62003732  0.60582822  0.14365358  1
  O  O109  1  0.65073291  0.62741923  0.65497219  1
  O  O110  1  0.36475579  0.37057795  0.37513535  1
  O  O111  1  0.35815357  0.32739467  0.87309782  1
  O  O112  1  0.47263559  0.81525680  0.33272182  1
  O  O113  1  0.30995069  0.99184657  0.98583983  1
  O  O114  1  0.77905337  0.45711569  0.49488460  1
  O  O115  1  0.86521295  0.39275067  0.84668887  1
  O  O116  1  1.05018891  0.94708693  0.38167077  1
  O  O117  1  0.89434426  0.88218539  0.88642242  1
  O  O118  1  0.35738977  -0.04767911  0.41501179  1
  O  O119  1  0.27166519  -0.03895068  0.83560156  1
  O  O120  1  0.23092905  0.49684700  0.37195849  1
  O  O121  1  0.24182389  0.53558989  0.82537635  1
  O  O122  1  0.73379599  -0.05644230  0.34960176  1
  O  O123  1  0.76849596  -0.02838811  0.88558175  1
  O  O124  1  0.74478131  0.52728191  0.36669156  1
  O  O125  1  0.77993152  0.51032570  0.89462498  1
  O  O126  1  0.23147078  0.50194464  0.10287038  1
  O  O127  1  0.25461930  0.50949960  0.63225630  1
  O  O128  1  0.25201068  1.00007971  0.10185237  1
  O  O129  1  0.32495921  0.96637569  0.61488304  1
  O  O130  1  0.74075191  0.45405225  0.12129687  1
  O  O131  1  0.74751934  0.50009981  0.63675189  1
  O  O132  1  0.70583400  0.93792924  0.13894691  1
  O  O133  1  0.73859482  0.96221072  0.64313288  1
  O  O134  1  0.04289798  0.29559169  0.25472836  1
  O  O135  1  0.01329305  0.39780207  0.73494059  1
  O  O136  1  -0.00266270  0.84191972  0.23792648  1
  O  O137  1  -0.02005711  0.85530631  0.77439306  1
  O  O138  1  0.47377193  0.37226836  0.26034135  1
  O  O139  1  0.49323352  0.36377920  0.82077122  1
  O  O140  1  0.51285964  0.83945168  0.27202697  1
  O  O141  1  0.46588285  0.86819903  0.76459819  1
  O  O142  1  0.49662214  0.16757374  0.24241053  1
  O  O143  1  0.56077229  0.15058204  0.77660649  1
  O  O144  1  0.48602101  0.60013630  0.22871532  1
  O  O145  1  0.47813115  0.67110040  0.70539675  1
  O  O146  1  0.96218404  0.10633313  0.22398939  1
  O  O147  1  0.99188452  0.12317165  0.79181326  1
  O  O148  1  1.00815698  0.62737695  0.24940588  1
  O  O149  1  1.01046073  0.64316064  0.73015451  1
  O  O150  1  0.33945978  0.24907411  -0.00087284  1
  O  O151  1  0.38787045  0.19006157  0.51407447  1
  O  O152  1  0.35115210  0.73798219  -0.00162966  1
  O  O153  1  0.47254091  0.79622607  0.52119793  1
  O  O154  1  0.84464025  0.22631729  0.00377541  1
  O  O155  1  0.83524169  0.25137025  0.55306012  1
  O  O156  1  0.87717290  0.73037191  0.01169761  1
  O  O157  1  1.03975789  0.87978379  0.40523282  1
  O  O158  1  0.12695330  0.25474230  0.49636577  1
  O  O159  1  0.13623268  0.26411888  1.02940128  1
  O  O160  1  0.22568838  0.83330757  0.56858635  1
  O  O161  1  0.14171855  0.71574929  0.99781310  1
  O  O162  1  0.57343769  0.23366712  0.49575481  1
  O  O163  1  0.65047894  0.29443985  0.95668170  1
  O  O164  1  0.63555273  0.77258986  0.45387562  1
  O  O165  1  0.66994286  0.65748718  0.98754722  1
  O  O166  1  0.49149585  0.29432904  0.12932076  1
  O  O167  1  0.54738360  0.35095093  0.66600506  1
  O  O168  1  0.48391053  0.68936322  0.09796607  1
  O  O169  1  0.46236052  0.80312059  0.63297294  1
  O  O170  1  1.01480730  0.21528963  0.11141058  1
  O  O171  1  0.97926060  0.24967760  0.61369513  1
  O  O172  1  0.99669246  0.73037989  0.11743684  1
  O  O173  1  0.95245875  0.75951156  0.66571047  1
  O  O174  1  -0.01889336  0.30386458  0.40359382  1
  O  O175  1  -0.01577626  0.22927346  0.90409134  1
  O  O176  1  -0.01355600  0.73073388  0.36243709  1
  O  O177  1  0.01714588  0.76666338  0.89498936  1
  O  O178  1  0.51959323  0.28303656  0.35987051  1
  O  O179  1  0.51373175  0.29615669  0.82214020  1
  O  O180  1  0.48272245  0.74082727  0.35314339  1
  O  O181  1  0.51899661  0.73583786  0.82020807  1
  O  O182  1  0.22941830  0.15750864  0.51148296  1
  O  O183  1  0.23406217  0.16897470  1.04814958  1
  O  O184  1  0.28918245  0.69302898  0.46723134  1
  O  O185  1  0.23970017  0.60640268  0.96233054  1
  O  O186  1  0.69514385  0.17164618  0.59622417  1
  O  O187  1  0.70630890  0.16687988  0.97597369  1
  O  O188  1  0.71566378  0.65120869  0.45983869  1
  O  O189  1  0.74018715  0.66345065  0.97942995  1
  O  O190  1  0.22945797  0.36507258  -0.02531211  1
  O  O191  1  0.24516796  0.36052710  0.49832754  1
  O  O192  1  0.23366784  0.84650107  -0.01844127  1
  O  O193  1  0.26351071  0.86230991  0.51279058  1
  O  O194  1  0.76083554  0.36201710  -0.01100634  1
  O  O195  1  0.68190224  0.33015484  0.55235066  1
  O  O196  1  0.73471845  0.84483555  0.02996824  1
  O  O197  1  0.74317096  0.86796425  0.50721237  1
  O  O198  1  0.13931745  0.50552434  0.22678248  1
  O  O199  1  0.13525253  0.48846633  0.72979814  1
  O  O200  1  0.15501678  0.89822179  0.26953711  1
  O  O201  1  0.05895403  0.98076777  0.73346000  1
  O  O202  1  0.62013076  0.45590849  0.25989854  1
  O  O203  1  0.60853228  0.58330132  0.69548168  1
  O  O204  1  0.65225981  1.01286231  0.23983172  1
  O  O205  1  0.50095153  0.97907599  0.63073280  1
  O  O206  1  0.39644378  -0.02205735  0.24566172  1
  O  O207  1  0.37587454  0.03555685  0.75970485  1
  O  O208  1  0.35424322  0.50989022  0.27096559  1
  O  O209  1  0.35862141  0.53941845  0.72993801  1
  O  O210  1  0.83562501  -0.02985028  0.23131643  1
  O  O211  1  0.88724839  -0.00419502  0.75045804  1
  O  O212  1  0.93126766  0.50021608  0.24723771  1
  O  O213  1  0.85959518  0.49835371  0.76808608  1
  O  O214  1  0.06185031  0.44207336  0.36443349  1
  O  O215  1  0.14741666  0.38061089  0.84091793  1
  O  O216  1  0.24606038  0.81409206  0.37041970  1
  O  O217  1  0.10138447  0.89474231  0.85182198  1
  O  O218  1  0.65584140  0.34430838  0.38155034  1
  O  O219  1  0.65217910  0.40196688  0.82809283  1
  O  O220  1  0.56273900  0.90160949  0.42784312  1
  O  O221  1  0.65135992  0.79385835  0.89588021  1
  O  O222  1  0.43846508  0.04117451  0.24418011  1
  O  O223  1  0.38321869  0.13154610  0.56436538  1
  O  O224  1  0.36427050  0.61424505  0.11053993  1
  O  O225  1  0.34813759  0.64679287  0.61969735  1
  O  O226  1  0.90240091  0.10967670  0.16327742  1
  O  O227  1  0.90568039  0.13725663  0.66845450  1
  O  O228  1  0.90620394  0.62535974  0.13115682  1
  O  O229  1  0.85318700  0.64373512  0.65632336  1
  O  O230  1  0.25934744  0.30986233  0.09738940  1
  O  O231  1  0.34023091  0.25163437  0.52925272  1
  O  O232  1  0.25544060  0.72976576  0.10120749  1
  O  O233  1  0.26040771  0.77267689  0.60713681  1
  O  O234  1  0.72659091  0.25349574  0.08404888  1
  O  O235  1  0.78727853  0.26813927  0.69835699  1
  O  O236  1  0.77131191  0.73020631  0.13281238  1
  O  O237  1  0.74262115  0.75264769  0.58745565  1
  O  O238  1  0.24104513  0.26257078  0.37835108  1
  O  O239  1  0.22592828  0.24633415  0.91197776  1
  O  O240  1  0.40757443  0.82508531  0.52177908  1
  O  O241  1  0.24425312  0.72980559  0.88227388  1
  O  O242  1  0.71981067  0.22000960  0.44342348  1
  O  O243  1  0.77778882  0.25685883  0.88689958  1
  O  O244  1  0.81163999  0.75888342  0.41651933  1
  O  O245  1  0.71796315  0.79912378  0.87207962  1
  O  O246  1  -0.00296301  0.09080379  0.02374047  1
  O  O247  1  0.01068763  0.15132680  0.50315883  1
  O  O248  1  0.01086845  0.62973397  -0.00253238  1
  O  O249  1  -0.04036295  0.69549666  0.53690774  1
  O  O250  1  0.47496208  0.00888502  -0.06922375  1
  O  O251  1  0.59028404  0.06726499  0.52218163  1
  O  O252  1  0.53176476  0.58065029  0.01146649  1
  O  O253  1  0.51233139  0.60705109  0.48913355  1
  O  O254  1  0.46982147  0.35714870  0.48466296  1
  O  O255  1  0.53903919  0.41894160  0.97723381  1
  O  O256  1  0.51630755  0.95760508  0.39809137  1
  O  O257  1  0.54082182  0.86141621  0.98604935  1
  O  O258  1  1.02539354  0.40139673  0.51907443  1
  O  O259  1  1.03662807  0.36134859  0.96718971  1
  O  O260  1  1.05026531  0.87089442  0.49040341  1
  O  O261  1  1.01962739  0.87451372  0.99366106  1
  O  O262  1  0.49725387  0.46749374  0.38426984  1
  O  O263  1  0.52063995  0.53784958  0.85594320  1
  O  O264  1  0.55086366  1.02454435  0.38569446  1
  O  O265  1  0.61002794  0.94463822  0.87476713  1
  O  O266  1  0.90840805  0.45393166  0.40869350  1
  O  O267  1  0.97841525  0.50569171  0.84596330  1
  O  O268  1  0.91094206  0.99305530  0.39325109  1
  O  O269  1  0.98935612  0.98783738  0.91213677  1
  O  O270  1  0.00391104  -0.02739360  0.11215105  1
  O  O271  1  -0.01933639  0.02948664  0.59494146  1
  O  O272  1  0.01497418  0.51851093  0.11742107  1
  O  O273  1  -0.03126120  0.54591365  0.62348948  1
  O  O274  1  0.53291110  -0.02927480  0.14286893  1
  O  O275  1  0.49661431  -0.05214551  0.56860608  1
  O  O276  1  0.50150410  0.49321543  0.12983582  1
  O  O277  1  0.47245029  0.50452292  0.60093920  1
  O  O278  1  0.25505406  0.40341310  0.24870837  1
  O  O279  1  0.27147081  0.39754626  0.74794912  1
  O  O280  1  0.31532668  0.81600312  0.35494260  1
  O  O281  1  0.19188147  0.88964390  0.71364348  1
  O  O282  1  0.74669554  0.36277368  0.24904172  1
  O  O283  1  0.69754092  0.36342639  0.78527861  1
  O  O284  1  0.74347892  0.84138749  0.23627314  1
  O  O285  1  0.77383337  0.81900174  0.71406248  1
  O  O286  1  0.30315892  0.12731916  0.20962530  1
  O  O287  1  0.25240432  0.12324726  0.71023016  1
  O  O288  1  0.24677315  0.60572309  0.24554651  1
  O  O289  1  0.25439770  0.66248708  0.74626381  1
  O  O290  1  0.76453126  0.16490256  0.23414822  1
  O  O291  1  0.78549296  0.11466499  0.76190229  1
  O  O292  1  0.79653104  0.57489113  0.21451734  1
  O  O293  1  0.71375594  0.67713095  0.79050493  1
  O  O294  1  0.36730760  0.13288995  0.35412421  1
  O  O295  1  0.31704929  0.11534446  0.86819165  1
  O  O296  1  0.35272187  0.69140710  0.43569647  1
  O  O297  1  0.36439108  0.63070418  0.84814183  1
  O  O298  1  0.88209523  0.15514889  0.35393557  1
  O  O299  1  0.87537457  0.08710847  0.87916527  1
  O  O300  1  0.87474752  0.60657728  0.34638587  1
  O  O301  1  0.88434921  0.59163484  0.88969494  1
  O  O302  1  0.10755832  0.40019511  0.11759505  1
  O  O303  1  0.14069952  0.33939772  0.65808940  1
  O  O304  1  0.12930776  0.85310597  0.12165496  1
  O  O305  1  0.05252400  0.87990149  0.63129426  1
  O  O306  1  0.67346386  0.44116931  0.10183025  1
  O  O307  1  0.69640282  0.45640613  0.65711769  1
  O  O308  1  0.62170900  0.79540044  0.12747296  1
  O  O309  1  0.67563973  0.91752211  0.63718806  1
  O  O310  1  0.11096490  0.27528574  0.26315283  1
  O  O311  1  0.09170282  0.25176547  0.77659182  1
  O  O312  1  0.10990368  0.74068418  0.24325759  1
  O  O313  1  0.09573156  0.77235739  0.74739332  1
  O  O314  1  0.61074085  0.28213184  0.22650343  1
  O  O315  1  0.56910522  0.28822211  0.69639790  1
  O  O316  1  0.71896883  0.68293293  0.29506625  1
  O  O317  1  0.58278785  0.78374960  0.70288982  1
  O  O318  1  0.38434335  0.25416829  0.24707304  1
  O  O319  1  0.42228467  0.23767617  0.69916397  1
  O  O320  1  0.36112724  0.72507287  0.21300706  1
  O  O321  1  0.38062365  0.75730973  0.74505214  1
  O  O322  1  0.89047919  0.25743810  0.23168111  1
  O  O323  1  0.91892854  0.26621402  0.76045304  1
  O  O324  1  0.89111533  0.72113338  0.24006877  1
  O  O325  1  0.90320138  0.72900699  0.81434713  1
  O  O326  1  0.38202097  0.50704358  0.48481678  1
  O  O327  1  0.39738423  0.50939134  0.96381302  1
  O  O328  1  0.37569822  0.98680383  0.47220503  1
  O  O329  1  0.31528944  1.01169873  1.05540677  1
  O  O330  1  0.86257720  0.58420407  0.49410521  1
  O  O331  1  0.90233960  0.45693132  0.96229771  1
  O  O332  1  0.88426262  0.93809043  0.42862488  1
  O  O333  1  0.85032255  0.98828897  1.00915368  1
  O  O334  1  0.12599880  -0.01025899  -0.00561941  1
  O  O335  1  0.13367451  0.04215200  0.51532269  1
  O  O336  1  0.12124348  0.51379031  -0.00161333  1
  O  O337  1  0.14703944  0.66994365  0.53307570  1
  O  O338  1  0.63181414  -0.00134748  0.02190164  1
  O  O339  1  0.65007270  0.02618798  0.52119204  1
  O  O340  1  0.66969101  0.51223991  -0.05619857  1
  O  O341  1  0.58592861  0.45789427  0.50963800  1
  O  O342  1  0.37562081  0.42084891  0.10031779  1
  O  O343  1  0.39636576  0.30368691  0.69774437  1
  O  O344  1  0.41544948  0.82063406  0.11094183  1
  O  O345  1  0.35074125  0.90997647  0.65185598  1
  O  O346  1  0.94182845  0.35594166  0.10232508  1
  O  O347  1  0.88393154  0.37446632  0.63837077  1
  O  O348  1  0.87873516  0.83753948  0.12167554  1
  O  O349  1  0.87051587  0.88957680  0.61052561  1
  O  O350  1  0.12182684  0.13605580  0.38927864  1
  O  O351  1  0.16569862  0.07839440  0.82349530  1
  O  O352  1  0.13164222  0.70510225  0.47152268  1
  O  O353  1  0.10918830  0.61419071  0.87385454  1
  O  O354  1  0.61285041  0.15733100  0.35926371  1
  O  O355  1  0.52074617  0.14806063  0.84203524  1
  O  O356  1  0.59814657  0.60737361  0.36053461  1
  O  O357  1  0.66138217  0.64065708  0.82766556  1
