# generated using pymatgen
data_V51Zn51O256
_symmetry_space_group_name_H-M   'P 1'
_cell_length_a   17.44752995
_cell_length_b   17.56057863
_cell_length_c   17.49037517
_cell_angle_alpha   90.26225987
_cell_angle_beta   89.43591160
_cell_angle_gamma   88.69379588
_symmetry_Int_Tables_number   1
_chemical_formula_structural   V51Zn51O256
_chemical_formula_sum   'V51 Zn51 O256'
_cell_volume   5357.13973524
_cell_formula_units_Z   1
loop_
 _symmetry_equiv_pos_site_id
 _symmetry_equiv_pos_as_xyz
  1  'x, y, z'
loop_
 _atom_site_type_symbol
 _atom_site_label
 _atom_site_symmetry_multiplicity
 _atom_site_fract_x
 _atom_site_fract_y
 _atom_site_fract_z
 _atom_site_occupancy
  V  V0  1  0.63193134  0.52298222  0.60589956  1
  V  V1  1  0.87549176  0.74617260  0.59082042  1
  V  V2  1  0.87584022  0.24824350  0.19367983  1
  V  V3  1  0.14571441  0.11296339  0.49976280  1
  V  V4  1  0.40759510  0.11056065  0.74840261  1
  V  V5  1  0.52848811  0.87301845  0.85755865  1
  V  V6  1  0.25746952  0.60805919  0.85074380  1
  V  V7  1  0.49413126  -0.00846435  0.00573601  1
  V  V8  1  0.41625333  0.69846609  0.23552784  1
  V  V9  1  0.35384497  0.88812727  0.52283107  1
  V  V10  1  0.53084920  0.72760839  0.73886310  1
  V  V11  1  0.51797769  0.24999097  0.27726807  1
  V  V12  1  0.34826508  0.12870256  0.26706305  1
  V  V13  1  -0.03300010  0.27860248  0.71455695  1
  V  V14  1  0.69911927  0.28260049  -0.04496155  1
  V  V15  1  0.00293852  0.62109906  0.57741580  1
  V  V16  1  0.36986956  0.62221723  0.72740105  1
  V  V17  1  0.56945780  -0.03514473  0.51620052  1
  V  V18  1  0.36603688  0.39077756  0.52894253  1
  V  V19  1  0.50805325  0.38396864  0.39179287  1
  V  V20  1  0.89945788  0.64294764  0.73515079  1
  V  V21  1  0.77118514  0.61082148  0.86664537  1
  V  V22  1  0.59912690  0.59655941  -0.05352477  1
  V  V23  1  -0.05466491  -0.00768190  0.47900027  1
  V  V24  1  0.37813220  0.85381346  -0.02706806  1
  V  V25  1  0.88003664  0.71373250  0.10508756  1
  V  V26  1  0.71272062  0.02274814  0.73722605  1
  V  V27  1  0.75443447  0.37396945  0.62279130  1
  V  V28  1  0.14056596  0.82074150  0.72146020  1
  V  V29  1  0.26217368  0.63233055  0.42396811  1
  V  V30  1  0.61885343  0.17600344  0.50339101  1
  V  V31  1  0.15553272  0.37970721  0.23966257  1
  V  V32  1  0.86093659  0.09989340  0.69746101  1
  V  V33  1  0.75679059  0.76856982  -0.04243505  1
  V  V34  1  0.24481321  0.27033957  0.52156110  1
  V  V35  1  0.15453233  0.87903039  0.28321383  1
  V  V36  1  0.77306098  0.51577057  0.72063682  1
  V  V37  1  -0.01371417  0.86313738  0.36843891  1
  V  V38  1  0.65281844  0.90564203  0.26167819  1
  V  V39  1  0.11783078  0.72153530  0.87793914  1
  V  V40  1  0.29456452  0.89760686  0.15601486  1
  V  V41  1  0.77372280  0.25010168  0.47349234  1
  V  V42  1  0.49654017  0.18567980  0.62062886  1
  V  V43  1  0.84357199  0.37639727  -0.00252791  1
  V  V44  1  0.65222796  0.62114936  0.46809704  1
  V  V45  1  0.61858277  0.12375895  0.01193940  1
  V  V46  1  0.35493376  0.00942251  0.40612778  1
  V  V47  1  0.20573125  0.21160170  0.03420383  1
  V  V48  1  0.35967359  0.49713143  0.37264749  1
  V  V49  1  0.13095714  0.75142238  0.40319773  1
  V  V50  1  0.37120349  0.75936457  0.63013165  1
  Zn  Zn51  1  0.06028343  0.05096637  0.33406826  1
  Zn  Zn52  1  0.68164389  0.19571104  0.68424479  1
  Zn  Zn53  1  0.51875619  0.58241333  0.35433272  1
  Zn  Zn54  1  0.93408242  0.44891718  0.64598983  1
  Zn  Zn55  1  0.09640383  0.23082605  0.85783632  1
  Zn  Zn56  1  0.80890177  0.19187777  0.05226553  1
  Zn  Zn57  1  0.45302567  0.94291945  0.67687015  1
  Zn  Zn58  1  0.56215531  0.35168612  0.56530030  1
  Zn  Zn59  1  0.70165440  0.42846991  0.44334060  1
  Zn  Zn60  1  0.21556243  0.70185808  0.21412473  1
  Zn  Zn61  1  0.32660036  0.82740717  0.33947779  1
  Zn  Zn62  1  0.76137564  0.05255859  0.55049699  1
  Zn  Zn63  1  0.90708098  0.24344440  0.88412042  1
  Zn  Zn64  1  0.10229397  0.62929361  0.72310641  1
  Zn  Zn65  1  0.42297120  0.41320929  0.22678841  1
  Zn  Zn66  1  0.48706092  0.15660234  0.13298590  1
  Zn  Zn67  1  0.70951968  0.68399281  0.66338388  1
  Zn  Zn68  1  0.33959177  0.10183125  0.54984887  1
  Zn  Zn69  1  0.42721641  0.55014467  0.58658404  1
  Zn  Zn70  1  0.29421522  0.80704752  0.80349060  1
  Zn  Zn71  1  0.76353839  0.55295589  0.06410345  1
  Zn  Zn72  1  0.01234154  0.83786338  0.57715315  1
  Zn  Zn73  1  0.66646200  1.02807566  0.39239755  1
  Zn  Zn74  1  0.43694753  0.69040135  0.89999487  1
  Zn  Zn75  1  -0.04770503  0.16734022  0.54277770  1
  Zn  Zn76  1  0.25971386  0.72156947  0.97252644  1
  Zn  Zn77  1  0.89899417  0.16629383  0.37657667  1
  Zn  Zn78  1  0.29227150  0.29941354  0.35711026  1
  Zn  Zn79  1  0.50751630  0.09481742  0.38825154  1
  Zn  Zn80  1  0.84440965  0.93473306  0.63102705  1
  Zn  Zn81  1  0.57598319  0.55780934  0.79220387  1
  Zn  Zn82  1  0.18130656  0.69204808  0.58225871  1
  Zn  Zn83  1  0.20970348  0.43149372  0.43315080  1
  Zn  Zn84  1  0.27970733  0.28780213  0.85417697  1
  Zn  Zn85  1  0.41901912  0.21451611  0.43887902  1
  Zn  Zn86  1  0.80057015  0.35863498  0.81282723  1
  Zn  Zn87  1  0.91668881  0.43026605  0.13162776  1
  Zn  Zn88  1  0.40343352  0.71458551  0.42657895  1
  Zn  Zn89  1  0.15200033  0.28971217  0.70607557  1
  Zn  Zn90  1  0.52474264  0.78059636  0.54390107  1
  Zn  Zn91  1  0.66993263  0.21675838  0.17372978  1
  Zn  Zn92  1  0.92493032  0.67222006  0.93009716  1
  Zn  Zn93  1  0.15180921  0.16526051  0.22579468  1
  Zn  Zn94  1  0.18544337  0.93877952  0.46359129  1
  Zn  Zn95  1  0.55291946  0.06355865  0.84488637  1
  Zn  Zn96  1  0.81726893  0.79272051  0.28016825  1
  Zn  Zn97  1  1.05473113  0.76092612  0.20689624  1
  Zn  Zn98  1  0.01067628  0.28023272  0.02544191  1
  Zn  Zn99  1  0.48918330  0.88312442  0.15800042  1
  Zn  Zn100  1  0.07861074  0.68249247  0.06391082  1
  Zn  Zn101  1  0.55925337  0.76528590  0.01558981  1
  O  O102  1  0.05960229  0.12666793  0.25628708  1
  O  O103  1  0.10193594  0.05872385  0.68220783  1
  O  O104  1  0.12349986  0.68212119  0.16323424  1
  O  O105  1  0.10334757  0.61476608  0.61141248  1
  O  O106  1  0.59744983  0.16835031  0.10969798  1
  O  O107  1  0.60762145  0.15510169  0.60915294  1
  O  O108  1  0.65066901  0.56602370  0.02357762  1
  O  O109  1  0.64773075  0.62551114  0.58796212  1
  O  O110  1  0.34711614  0.39448701  0.39206936  1
  O  O111  1  0.33397003  0.37733482  0.88348793  1
  O  O112  1  0.37380242  0.90247944  0.41247808  1
  O  O113  1  0.33826781  0.87109694  0.88649370  1
  O  O114  1  0.93827239  0.36901157  0.38776485  1
  O  O115  1  0.84864912  0.40557891  0.90611735  1
  O  O116  1  0.89834057  0.83991886  0.33862576  1
  O  O117  1  0.94691776  0.92688239  0.93949843  1
  O  O118  1  0.25997128  0.01044105  0.40337385  1
  O  O119  1  0.17254048  0.05246952  0.83701259  1
  O  O120  1  0.25641931  0.52436250  0.39451589  1
  O  O121  1  0.25153803  0.51700109  0.83285602  1
  O  O122  1  0.78352830  0.04376750  0.37854497  1
  O  O123  1  0.86511746  0.08129875  0.98199546  1
  O  O124  1  0.75775732  0.45344670  0.34255537  1
  O  O125  1  0.75008450  0.51843345  0.82788237  1
  O  O126  1  0.33241955  0.47055091  0.03155964  1
  O  O127  1  0.26669758  0.38681169  0.71743919  1
  O  O128  1  0.26170354  0.98350357  0.14537322  1
  O  O129  1  0.14884522  1.00698600  0.68992767  1
  O  O130  1  0.72465872  0.50528758  0.17111855  1
  O  O131  1  0.75296481  0.50352545  0.62272437  1
  O  O132  1  0.78616659  1.05833783  0.11763907  1
  O  O133  1  0.74113912  0.98356597  0.64371566  1
  O  O134  1  0.05785158  0.37766028  0.23215020  1
  O  O135  1  -0.00856704  0.37134985  0.69919080  1
  O  O136  1  0.04245971  0.85217161  0.27549819  1
  O  O137  1  0.04711730  0.96063128  0.83224555  1
  O  O138  1  0.50002226  0.36957475  0.28463390  1
  O  O139  1  0.39000215  0.40105412  0.83054263  1
  O  O140  1  0.55204100  0.91016692  0.24814499  1
  O  O141  1  0.49118150  0.91009041  0.77485699  1
  O  O142  1  0.49786842  0.15207502  0.29610090  1
  O  O143  1  0.50171489  0.14897520  0.71713402  1
  O  O144  1  0.46909702  0.62066340  0.26221214  1
  O  O145  1  0.49940684  0.63427621  0.74886942  1
  O  O146  1  0.97572070  0.03609876  0.17294911  1
  O  O147  1  0.92267378  0.15010200  0.74894641  1
  O  O148  1  0.97916715  0.52306876  0.34415039  1
  O  O149  1  0.99419748  0.61306760  0.74085320  1
  O  O150  1  0.25134448  0.12711911  0.01319970  1
  O  O151  1  0.34904108  0.27306413  0.50703940  1
  O  O152  1  0.36688343  0.74817556  -0.02823983  1
  O  O153  1  0.41054110  0.78751836  0.51487865  1
  O  O154  1  0.85144297  0.26425099  -0.02029738  1
  O  O155  1  0.87246827  0.22611622  0.47159368  1
  O  O156  1  0.85612482  0.73939701  0.00398058  1
  O  O157  1  0.87049444  0.73699975  0.49793803  1
  O  O158  1  0.06727550  0.15584775  0.54297845  1
  O  O159  1  0.12013639  0.27526347  1.05047105  1
  O  O160  1  0.14175388  0.76024155  0.50022632  1
  O  O161  1  0.14345253  0.72419964  0.97966824  1
  O  O162  1  0.62234975  0.27075399  0.49506813  1
  O  O163  1  0.60682228  0.30269418  0.95472987  1
  O  O164  1  0.55926483  0.68831977  0.48325976  1
  O  O165  1  0.66997799  0.75596678  1.00628033  1
  O  O166  1  0.47511724  0.25826750  0.18939547  1
  O  O167  1  0.50448730  0.28096469  0.63072286  1
  O  O168  1  0.51820614  0.77567990  0.12819881  1
  O  O169  1  0.50008941  0.77053116  0.65253407  1
  O  O170  1  0.96654136  0.22926644  0.12628907  1
  O  O171  1  0.94736937  0.24509131  0.62589384  1
  O  O172  1  0.98008229  0.72626703  0.12240766  1
  O  O173  1  0.99110105  0.72899005  0.59853197  1
  O  O174  1  0.04912511  0.46674893  0.47030653  1
  O  O175  1  0.00934715  0.23809888  0.92387486  1
  O  O176  1  0.03301610  0.76261238  0.39132416  1
  O  O177  1  0.02198434  0.70967624  0.89096600  1
  O  O178  1  0.49229776  0.27682009  0.38299162  1
  O  O179  1  0.56329434  0.25492625  0.79964954  1
  O  O180  1  0.41993131  0.76309620  0.31224905  1
  O  O181  1  0.49745186  0.76712302  0.82946538  1
  O  O182  1  0.24103986  0.15775045  0.52435264  1
  O  O183  1  0.14794469  0.18406008  0.95014067  1
  O  O184  1  0.25570442  0.62677161  0.51897245  1
  O  O185  1  0.25775742  0.61015471  0.94883826  1
  O  O186  1  0.72822841  0.16087612  0.51515018  1
  O  O187  1  0.70835807  0.18726792  1.00308545  1
  O  O188  1  0.72909088  0.66978792  0.45402893  1
  O  O189  1  0.78644604  0.59477768  0.95965816  1
  O  O190  1  0.27598779  0.25147080  0.08974274  1
  O  O191  1  0.25721113  0.38472221  0.52262431  1
  O  O192  1  0.31795745  0.86030349  0.05505159  1
  O  O193  1  0.26042036  0.87308443  0.51919505  1
  O  O194  1  0.73993824  0.35383091  0.01569351  1
  O  O195  1  0.75644165  0.34930453  0.50090080  1
  O  O196  1  0.76365309  0.85832466  -0.06245554  1
  O  O197  1  0.77242866  0.85655604  0.47132951  1
  O  O198  1  0.16679545  0.47828725  0.24944351  1
  O  O199  1  0.09882598  0.43857310  0.85911893  1
  O  O200  1  0.13639736  0.97276198  0.28556496  1
  O  O201  1  0.00756029  1.01447132  0.81067568  1
  O  O202  1  0.61776909  0.57795633  0.18270921  1
  O  O203  1  0.64109445  0.53071090  0.70927079  1
  O  O204  1  0.64755372  1.01124980  0.27919019  1
  O  O205  1  0.61681283  1.03808803  0.75749756  1
  O  O206  1  0.38023968  0.03552407  0.31078565  1
  O  O207  1  0.38339224  0.02938068  0.70221011  1
  O  O208  1  0.35900964  0.49266310  0.27512072  1
  O  O209  1  0.39590309  0.53276456  0.70015517  1
  O  O210  1  0.99771211  -0.03007686  0.17793809  1
  O  O211  1  0.88725185  0.00592424  0.70748348  1
  O  O212  1  1.00218428  0.57490841  0.30410200  1
  O  O213  1  0.87117401  0.50736454  0.72409039  1
  O  O214  1  0.15071996  0.39296153  0.34555030  1
  O  O215  1  0.13881207  0.44738076  0.91550874  1
  O  O216  1  0.15150996  0.86394403  0.39086271  1
  O  O217  1  0.10472943  0.80628276  0.81851638  1
  O  O218  1  0.60193244  0.39522206  0.40100091  1
  O  O219  1  0.51414043  0.30670337  0.81523348  1
  O  O220  1  0.65619241  0.91746080  0.36765513  1
  O  O221  1  0.61897598  0.85693241  0.84463753  1
  O  O222  1  0.39008080  0.12850527  0.17790590  1
  O  O223  1  0.39824283  0.15907235  0.62208476  1
  O  O224  1  0.36552617  0.47307147  0.09461560  1
  O  O225  1  0.39956384  0.65702381  0.62239694  1
  O  O226  1  0.91238108  0.17051746  0.11859578  1
  O  O227  1  0.86147560  0.11716428  0.59982299  1
  O  O228  1  0.84315367  0.62565115  0.11481006  1
  O  O229  1  0.89338152  0.64017231  0.62598629  1
  O  O230  1  0.15945207  0.16564560  0.11287884  1
  O  O231  1  0.18931657  0.27887001  0.60401334  1
  O  O232  1  0.20519815  0.82968377  0.13346367  1
  O  O233  1  0.28115185  0.75305421  0.60379824  1
  O  O234  1  0.77897865  0.22314762  0.16183871  1
  O  O235  1  0.73877690  0.27971372  0.63995076  1
  O  O236  1  0.81840234  0.92029925  0.06002169  1
  O  O237  1  0.77864298  0.75395175  0.62142477  1
  O  O238  1  0.20523313  0.27741283  0.43168393  1
  O  O239  1  0.24954735  0.27605339  0.96653755  1
  O  O240  1  0.29024126  0.73110898  0.40221991  1
  O  O241  1  0.23415499  0.73351416  0.85907373  1
  O  O242  1  0.75195354  0.24639102  0.38359330  1
  O  O243  1  0.73296700  0.28766942  0.86251484  1
  O  O244  1  0.74718912  0.72439757  0.31713309  1
  O  O245  1  0.76306274  0.72056429  0.86887611  1
  O  O246  1  0.03566936  0.05263074  -0.04018118  1
  O  O247  1  -0.05511645  0.09160313  0.44413510  1
  O  O248  1  -0.00282559  0.61806266  0.01306740  1
  O  O249  1  0.00843675  0.62501934  0.48425831  1
  O  O250  1  0.50336835  0.08913544  0.03358999  1
  O  O251  1  0.50865495  0.16914026  0.51369005  1
  O  O252  1  0.52536151  0.66822898  -0.03304499  1
  O  O253  1  0.49346874  0.64913988  0.45394900  1
  O  O254  1  0.47519068  0.37362592  0.49276866  1
  O  O255  1  0.45191761  0.26959259  1.00368432  1
  O  O256  1  0.57631195  0.86707229  0.50911536  1
  O  O257  1  0.48509382  0.83826247  0.95996916  1
  O  O258  1  1.11153487  0.49890037  0.46985279  1
  O  O259  1  0.94375977  0.36676154  1.03599135  1
  O  O260  1  0.98126270  0.88023123  0.47320794  1
  O  O261  1  1.10439719  0.89981888  0.99249579  1
  O  O262  1  0.46966166  0.48473679  0.38286148  1
  O  O263  1  0.43494195  0.44898512  0.85600004  1
  O  O264  1  0.51657138  0.99679970  0.43662615  1
  O  O265  1  0.53659946  0.97103234  0.91272801  1
  O  O266  1  0.88183243  0.47099422  0.43982715  1
  O  O267  1  0.97609122  0.51071491  0.94228258  1
  O  O268  1  0.98946552  0.96957639  0.36882688  1
  O  O269  1  0.89011630  0.93808614  0.90049952  1
  O  O270  1  0.05960465  -0.08552687  0.04980464  1
  O  O271  1  -0.00393339  0.00311556  0.55580620  1
  O  O272  1  -0.01587983  0.50240872  0.16114176  1
  O  O273  1  -0.01879483  0.52295738  0.58765931  1
  O  O274  1  0.53491026  -0.06242928  0.07623282  1
  O  O275  1  0.52318922  -0.01500443  0.60023040  1
  O  O276  1  0.53259095  0.45558429  0.07614693  1
  O  O277  1  0.53559892  0.51904806  0.59083076  1
  O  O278  1  0.25532549  0.34647405  0.26077248  1
  O  O279  1  0.18249656  0.28069599  0.81272615  1
  O  O280  1  0.25967546  0.87361596  0.26310547  1
  O  O281  1  0.22787585  0.86211939  0.73097687  1
  O  O282  1  0.65453714  0.51737169  0.20048151  1
  O  O283  1  0.75191718  0.40635822  0.72662205  1
  O  O284  1  0.75468269  0.89116331  0.27070051  1
  O  O285  1  0.75588260  0.97835049  0.80639859  1
  O  O286  1  0.25166845  0.12529706  0.25204646  1
  O  O287  1  0.30584423  0.15070540  0.76883334  1
  O  O288  1  0.32143016  0.67939439  0.21754085  1
  O  O289  1  0.27254191  0.62266728  0.72716221  1
  O  O290  1  0.82647543  0.04102717  0.17302781  1
  O  O291  1  0.75660837  0.12034904  0.72841691  1
  O  O292  1  0.82610070  0.54813641  0.29188461  1
  O  O293  1  0.77772448  0.62305306  0.73328395  1
  O  O294  1  0.38864539  0.10350531  0.44189504  1
  O  O295  1  0.44020505  0.08272294  0.83480759  1
  O  O296  1  0.36644838  0.60309681  0.39618974  1
  O  O297  1  0.36818307  0.62901254  0.83565560  1
  O  O298  1  0.80303422  0.09409155  0.32977389  1
  O  O299  1  0.89082099  0.09888771  0.91803607  1
  O  O300  1  0.77722800  0.52974236  0.34129629  1
  O  O301  1  0.87549300  0.61952832  0.84454403  1
  O  O302  1  0.17803679  0.39390805  0.14516880  1
  O  O303  1  0.14237641  0.41359545  0.70758003  1
  O  O304  1  0.14006305  0.85493754  0.17343314  1
  O  O305  1  0.08311882  0.86810936  0.65654805  1
  O  O306  1  0.58826041  0.41298062  0.06692299  1
  O  O307  1  0.64791870  0.41073401  0.59860469  1
  O  O308  1  0.67676218  0.92048499  0.16826971  1
  O  O309  1  0.72311661  0.81601961  0.49733128  1
  O  O310  1  0.14740296  0.27505339  0.24039833  1
  O  O311  1  0.05592613  0.24017287  0.74843144  1
  O  O312  1  0.16238852  0.76171250  0.29629360  1
  O  O313  1  0.15379509  0.72789886  0.69012106  1
  O  O314  1  0.61550399  0.25122317  0.26183088  1
  O  O315  1  0.62218575  0.27421003  0.75336628  1
  O  O316  1  0.63622525  0.80946352  0.26901774  1
  O  O317  1  0.62671817  0.72112910  0.73302622  1
  O  O318  1  0.35380500  0.21386727  0.32415906  1
  O  O319  1  0.34813812  0.21051835  0.79690422  1
  O  O320  1  0.45157903  0.73213673  0.14108358  1
  O  O321  1  0.36754217  0.74979120  0.73175733  1
  O  O322  1  0.89921881  0.21704026  0.28229115  1
  O  O323  1  0.89076344  0.29066206  0.78740443  1
  O  O324  1  0.83749862  0.77247086  0.17127119  1
  O  O325  1  0.89711406  0.73547652  0.74485028  1
  O  O326  1  0.37176080  0.49030948  0.51325783  1
  O  O327  1  0.44023603  0.33661098  0.98761738  1
  O  O328  1  0.35959330  0.98966166  0.52543823  1
  O  O329  1  0.40105915  0.96246789  0.99749332  1
  O  O330  1  0.91671070  0.40666598  0.44757178  1
  O  O331  1  0.83092787  0.45960153  1.05910482  1
  O  O332  1  0.85015344  0.98171282  0.51389273  1
  O  O333  1  1.02538556  1.05645672  1.02935134  1
  O  O334  1  0.15430618  -0.05079427  -0.02807000  1
  O  O335  1  0.15464120  0.01923386  0.52970281  1
  O  O336  1  0.02299279  0.54177578  -0.01490985  1
  O  O337  1  0.21411336  0.43774570  0.70990115  1
  O  O338  1  0.65943311  0.04052225  0.02182644  1
  O  O339  1  0.66318948  0.00636692  0.50410893  1
  O  O340  1  0.55505387  0.52483118  -0.10387287  1
  O  O341  1  0.67085841  0.52031261  0.49817752  1
  O  O342  1  0.39147993  0.40083973  0.12358503  1
  O  O343  1  0.38216577  0.38012020  0.61925751  1
  O  O344  1  0.38814148  0.89764458  0.18926401  1
  O  O345  1  0.38148246  0.87157648  0.62390882  1
  O  O346  1  0.87859363  0.34441460  0.19155630  1
  O  O347  1  0.84993816  0.38509594  0.60797566  1
  O  O348  1  0.88045317  0.92387899  0.09160493  1
  O  O349  1  0.90164971  0.84593184  0.61231076  1
  O  O350  1  0.12664871  0.10768419  0.40488063  1
  O  O351  1  0.12984360  0.10481944  0.81477670  1
  O  O352  1  0.16468253  0.65151158  0.39203243  1
  O  O353  1  0.14264911  0.63092641  0.83013088  1
  O  O354  1  0.61692528  0.12767346  0.41202233  1
  O  O355  1  0.59261279  0.13577575  0.91695590  1
  O  O356  1  0.62350186  0.59630039  0.37617947  1
  O  O357  1  0.65761573  0.62919557  0.87183806  1
