# generated using pymatgen
data_V51Zn51O256
_symmetry_space_group_name_H-M   'P 1'
_cell_length_a   17.33008011
_cell_length_b   17.35899863
_cell_length_c   17.42436834
_cell_angle_alpha   90.03131973
_cell_angle_beta   89.18382934
_cell_angle_gamma   90.07812527
_symmetry_Int_Tables_number   1
_chemical_formula_structural   V51Zn51O256
_chemical_formula_sum   'V51 Zn51 O256'
_cell_volume   5241.28474024
_cell_formula_units_Z   1
loop_
 _symmetry_equiv_pos_site_id
 _symmetry_equiv_pos_as_xyz
  1  'x, y, z'
loop_
 _atom_site_type_symbol
 _atom_site_label
 _atom_site_symmetry_multiplicity
 _atom_site_fract_x
 _atom_site_fract_y
 _atom_site_fract_z
 _atom_site_occupancy
  V  V0  1  0.47824464  0.24737737  0.75552347  1
  V  V1  1  0.39965204  -0.00702166  0.86893096  1
  V  V2  1  0.25291377  0.38221223  0.61240655  1
  V  V3  1  0.30496283  0.24989459  -0.00574946  1
  V  V4  1  0.38267735  0.86352802  0.48956070  1
  V  V5  1  0.59518313  0.21718096  0.42959305  1
  V  V6  1  0.55347709  0.10942217  0.08234118  1
  V  V7  1  0.58293746  0.73999665  0.87081092  1
  V  V8  1  0.25870307  -0.00745444  0.74793133  1
  V  V9  1  0.37336417  0.23815479  0.61004865  1
  V  V10  1  0.23948412  0.53449134  0.26407601  1
  V  V11  1  0.12732541  0.22776652  0.85730796  1
  V  V12  1  0.50313876  0.38237092  0.87062746  1
  V  V13  1  0.38261770  0.85828760  -0.00206602  1
  V  V14  1  0.37735185  0.72242308  0.61381713  1
  V  V15  1  0.49081558  0.27899343  0.27802887  1
  V  V16  1  0.11314435  0.49964173  0.59910858  1
  V  V17  1  0.26078655  0.35858940  0.13709194  1
  V  V18  1  0.35420686  0.64245657  0.78590575  1
  V  V19  1  0.61325188  0.61930384  0.48819941  1
  V  V20  1  0.87787233  0.35110776  0.54836294  1
  V  V21  1  0.26946291  0.85932704  0.62453009  1
  V  V22  1  0.59979524  0.51000954  0.63233356  1
  V  V23  1  0.11751960  0.46632545  0.15369203  1
  V  V24  1  0.26122332  0.85314466  0.13494819  1
  V  V25  1  0.43110611  0.75556780  0.13341038  1
  V  V26  1  0.88637788  0.42175820  0.90034390  1
  V  V27  1  0.16223469  0.12423040  -0.02179495  1
  V  V28  1  0.74948975  0.71239750  0.52993865  1
  V  V29  1  0.59020972  0.01986608  0.65464343  1
  V  V30  1  0.05613297  -0.00714080  -0.03679526  1
  V  V31  1  0.63132361  0.86017632  0.76113017  1
  V  V32  1  0.62289344  0.59511535  -0.01562563  1
  V  V33  1  0.12801354  0.37871844  0.76433246  1
  V  V34  1  0.56084338  0.85656107  0.32219827  1
  V  V35  1  0.01914400  0.12239088  0.11067951  1
  V  V36  1  0.07926041  0.87267505  0.21437802  1
  V  V37  1  0.07885150  0.75429868  0.41961059  1
  V  V38  1  0.12355473  0.85486799  0.72126846  1
  V  V39  1  0.73114860  0.21733305  0.52816243  1
  V  V40  1  0.89740283  0.55225071  0.35728281  1
  V  V41  1  0.76345168  0.89398611  0.04880045  1
  V  V42  1  0.11764463  0.01199646  0.62034156  1
  V  V43  1  0.50707666  0.58311423  0.12347509  1
  V  V44  1  0.10986719  0.23469378  0.36973803  1
  V  V45  1  0.74456943  0.39878684  0.65131419  1
  V  V46  1  0.75576840  0.13892362  0.88653411  1
  V  V47  1  0.10066125  0.62157911  0.00681477  1
  V  V48  1  0.39699358  0.42685740  0.04301764  1
  V  V49  1  0.16781085  0.02094361  0.13533418  1
  V  V50  1  0.39977505  0.07150388  0.30554672  1
  Zn  Zn51  1  0.60294950  0.13531394  0.26438252  1
  Zn  Zn52  1  0.66270581  0.68926566  0.68169042  1
  Zn  Zn53  1  0.56870059  0.83765564  0.03614627  1
  Zn  Zn54  1  0.86955357  0.06594073  0.00528311  1
  Zn  Zn55  1  0.55233427  0.77685049  0.55854141  1
  Zn  Zn56  1  0.68511719  0.40531008  0.92956753  1
  Zn  Zn57  1  0.79507096  0.96650991  0.78196451  1
  Zn  Zn58  1  0.87637467  0.75685469  0.37621857  1
  Zn  Zn59  1  0.14834979  0.87453090  0.50345729  1
  Zn  Zn60  1  0.43430429  0.66933262  0.95847740  1
  Zn  Zn61  1  0.93300569  0.22022205  0.46715209  1
  Zn  Zn62  1  0.03297425  0.51364346  0.85465408  1
  Zn  Zn63  1  0.07335426  0.31712290  0.55970297  1
  Zn  Zn64  1  0.99650486  0.50361733  0.25011823  1
  Zn  Zn65  1  0.96360933  0.41623240  0.70192622  1
  Zn  Zn66  1  0.45551509  0.72213748  0.43245337  1
  Zn  Zn67  1  0.74858526  0.50047953  0.48772257  1
  Zn  Zn68  1  0.26516919  0.44502694  0.42107375  1
  Zn  Zn69  1  0.15936061  0.70026662  0.19389242  1
  Zn  Zn70  1  0.33544679  0.06203609  0.04010150  1
  Zn  Zn71  1  0.68786166  0.62125502  0.17068684  1
  Zn  Zn72  1  0.30488956  0.27915719  0.32096936  1
  Zn  Zn73  1  0.55979623  1.04034427  0.39380903  1
  Zn  Zn74  1  0.24955453  0.84567797  0.34485369  1
  Zn  Zn75  1  0.24306125  0.94526312  0.95274192  1
  Zn  Zn76  1  0.42431062  0.19235318  0.43870585  1
  Zn  Zn77  1  0.24253871  0.59317453  0.65967047  1
  Zn  Zn78  1  0.08608575  0.70031179  0.61316245  1
  Zn  Zn79  1  0.44544663  0.91356403  0.68853376  1
  Zn  Zn80  1  0.43110977  0.44348095  0.69021449  1
  Zn  Zn81  1  0.82769866  0.28633821  0.77449075  1
  Zn  Zn82  1  0.66907337  0.20619594  0.70450178  1
  Zn  Zn83  1  0.97778532  0.91683022  0.07024275  1
  Zn  Zn84  1  0.09620821  0.54949413  0.40269379  1
  Zn  Zn85  1  0.57643395  0.66799707  0.30054872  1
  Zn  Zn86  1  0.11643332  0.28476795  0.06178489  1
  Zn  Zn87  1  0.06991862  0.05225586  0.28644692  1
  Zn  Zn88  1  0.33344271  0.82975485  0.79610943  1
  Zn  Zn89  1  0.55075752  0.55712792  0.81631978  1
  Zn  Zn90  1  0.73551792  0.78454259  0.23442741  1
  Zn  Zn91  1  0.41482557  0.45010437  0.23192223  1
  Zn  Zn92  1  0.38284096  0.03108584  0.59327739  1
  Zn  Zn93  1  0.21901380  0.17212389  0.67473941  1
  Zn  Zn94  1  0.20143139  0.19293363  0.18305323  1
  Zn  Zn95  1  0.79799455  0.69030765  0.04257905  1
  Zn  Zn96  1  0.95389537  0.97847075  0.72585013  1
  Zn  Zn97  1  0.91649995  0.60376752  0.97280187  1
  Zn  Zn98  1  0.78356153  0.05083248  0.61084840  1
  Zn  Zn99  1  0.57790232  0.30519704  0.61294373  1
  Zn  Zn100  1  0.28489800  0.28381875  0.78800570  1
  Zn  Zn101  1  0.39342266  0.87716508  0.25320548  1
  O  O102  1  0.15385481  0.12434199  0.10624945  1
  O  O103  1  0.15268169  0.10466486  0.61650523  1
  O  O104  1  0.10290930  0.66375624  0.10029778  1
  O  O105  1  0.13562530  0.60178758  0.61832862  1
  O  O106  1  0.55100258  0.19046827  0.02907231  1
  O  O107  1  0.62620649  0.10815895  0.67319930  1
  O  O108  1  0.61218056  0.58651292  0.09593608  1
  O  O109  1  0.61626593  0.61438130  0.61692976  1
  O  O110  1  0.32043961  0.38278082  0.35154635  1
  O  O111  1  0.23404182  0.43833006  0.91970696  1
  O  O112  1  0.35141226  0.84821454  0.39503811  1
  O  O113  1  0.36430534  0.84291211  0.90181346  1
  O  O114  1  0.91303746  0.39184148  0.44870742  1
  O  O115  1  0.90316409  0.34151288  0.83381534  1
  O  O116  1  0.88414443  1.00764080  0.22157727  1
  O  O117  1  0.89649034  0.96443774  0.81894930  1
  O  O118  1  0.23436873  0.01011962  0.38717860  1
  O  O119  1  0.25231865  -0.02754079  0.84680894  1
  O  O120  1  0.19550697  0.50880682  0.35455043  1
  O  O121  1  0.26696423  0.48706956  0.88117818  1
  O  O122  1  0.75224361  0.01545186  0.34785476  1
  O  O123  1  0.73723342  0.03995854  0.86420939  1
  O  O124  1  0.82248649  0.50415433  0.40450341  1
  O  O125  1  0.78686058  0.42216492  0.87546239  1
  O  O126  1  0.22222698  0.46265528  0.18506548  1
  O  O127  1  0.21810556  0.48631916  0.63076614  1
  O  O128  1  0.26622003  1.00837801  0.11334916  1
  O  O129  1  0.29857200  0.96915120  0.64598240  1
  O  O130  1  0.79781176  0.42511159  0.10338330  1
  O  O131  1  0.75699964  0.48958009  0.67413902  1
  O  O132  1  0.78809170  0.99445951  0.05757401  1
  O  O133  1  0.68446891  0.97736522  0.60298278  1
  O  O134  1  -0.11007874  0.34829639  0.26296589  1
  O  O135  1  0.04227527  0.34012381  0.72642031  1
  O  O136  1  -0.00273584  0.86254331  0.16107954  1
  O  O137  1  0.03299384  0.88944211  0.73182348  1
  O  O138  1  0.48725148  0.37936996  0.26995288  1
  O  O139  1  0.47418889  0.38285818  0.76953473  1
  O  O140  1  0.50541367  0.89001384  0.24917289  1
  O  O141  1  0.53071820  0.83679674  0.70681151  1
  O  O142  1  0.49911297  0.07784674  0.29536315  1
  O  O143  1  0.49058232  0.15427390  0.75811826  1
  O  O144  1  0.52975108  0.59956832  0.21887907  1
  O  O145  1  0.45678980  0.60107399  0.75314794  1
  O  O146  1  1.01016258  0.10730840  0.21078635  1
  O  O147  1  1.01009468  0.13655913  0.71930879  1
  O  O148  1  0.94578890  0.70275134  0.21808335  1
  O  O149  1  0.96882274  0.60074062  0.87466940  1
  O  O150  1  0.39332986  0.22756858  0.01107402  1
  O  O151  1  0.37955371  0.26033804  0.51356248  1
  O  O152  1  0.39686885  0.75548687  0.02384601  1
  O  O153  1  0.36683220  0.74194816  0.51298576  1
  O  O154  1  0.91950940  0.30502525  0.21563859  1
  O  O155  1  0.83396151  0.26150274  0.50835043  1
  O  O156  1  0.87561598  0.70348075  -0.03612229  1
  O  O157  1  0.81388549  0.76486029  0.47593523  1
  O  O158  1  0.10913345  0.24849996  0.47164943  1
  O  O159  1  0.14351704  0.23257129  0.96814297  1
  O  O160  1  0.08145039  0.76327234  0.52144004  1
  O  O161  1  0.04002432  0.69541179  0.97619404  1
  O  O162  1  0.62344358  0.22336047  0.54089808  1
  O  O163  1  0.72671687  0.32984883  0.98914571  1
  O  O164  1  0.64527985  0.72833187  0.50993344  1
  O  O165  1  0.60392187  0.75930684  0.96587244  1
  O  O166  1  0.47955885  0.24021998  0.19286565  1
  O  O167  1  0.47079262  0.27264369  0.63283599  1
  O  O168  1  0.52686773  0.77831575  0.12384886  1
  O  O169  1  0.47565257  0.71846382  0.62113527  1
  O  O170  1  1.03881126  0.22283785  0.10730352  1
  O  O171  1  0.99679903  0.19335496  0.68104062  1
  O  O172  1  0.92308619  0.72002734  0.15429179  1
  O  O173  1  0.98311400  0.66971860  0.67790632  1
  O  O174  1  0.00413354  0.23366649  0.37877908  1
  O  O175  1  0.03784654  0.20789527  0.84374890  1
  O  O176  1  -0.01050596  0.78265440  0.39156489  1
  O  O177  1  -0.04604973  0.81439613  0.85045826  1
  O  O178  1  0.54211855  0.29583632  0.44055932  1
  O  O179  1  0.47654360  0.27489108  0.85547819  1
  O  O180  1  0.52729777  0.75820572  0.34966694  1
  O  O181  1  0.48750783  0.73372639  0.86577513  1
  O  O182  1  0.23526935  0.04588916  0.44776025  1
  O  O183  1  0.26700562  0.14279536  1.00077003  1
  O  O184  1  0.37814621  0.63781201  0.38531402  1
  O  O185  1  0.18635808  0.66402473  0.98361402  1
  O  O186  1  0.75627446  0.12124541  0.53600736  1
  O  O187  1  0.77014387  0.13483634  0.98969715  1
  O  O188  1  0.75010903  0.61691019  0.50577468  1
  O  O189  1  0.70781859  0.64337705  0.99274063  1
  O  O190  1  0.30919231  0.35957196  0.02760145  1
  O  O191  1  0.25051501  0.38751788  0.51412121  1
  O  O192  1  0.26737299  0.86725427  0.02787940  1
  O  O193  1  0.26793437  0.87374714  0.52216661  1
  O  O194  1  0.86483292  0.42696961  0.12463503  1
  O  O195  1  0.78171472  0.40268785  0.54337282  1
  O  O196  1  0.76168808  0.90467919  -0.05160149  1
  O  O197  1  0.76303550  0.90901884  0.47904431  1
  O  O198  1  0.10486156  0.54144141  0.22132348  1
  O  O199  1  0.10692368  0.47479308  0.78546564  1
  O  O200  1  0.17024285  1.04327395  0.23029354  1
  O  O201  1  0.15793155  0.98592065  0.71955075  1
  O  O202  1  0.69341810  0.50647197  0.19521538  1
  O  O203  1  0.60865903  0.51735062  0.73005075  1
  O  O204  1  0.61718288  1.11813032  0.15930047  1
  O  O205  1  0.60707779  0.96566095  0.73745461  1
  O  O206  1  0.37042932  -0.02029464  0.29354543  1
  O  O207  1  0.37585100  -0.05882813  0.77279131  1
  O  O208  1  0.33683880  0.52011497  0.27154800  1
  O  O209  1  0.39958156  0.54240673  0.75779564  1
  O  O210  1  0.83101321  0.05389566  0.21534033  1
  O  O211  1  0.83977173  0.00920630  0.68783524  1
  O  O212  1  0.89009937  0.53899514  0.25784084  1
  O  O213  1  0.92954690  0.46873788  0.80805538  1
  O  O214  1  0.10271877  0.33262300  0.34632028  1
  O  O215  1  0.12654903  0.33680643  0.85707586  1
  O  O216  1  0.06161697  0.94027559  0.28557465  1
  O  O217  1  0.12799738  0.83413359  0.84511552  1
  O  O218  1  0.61747003  0.45170756  0.34600935  1
  O  O219  1  0.60074852  0.36820887  0.87353420  1
  O  O220  1  0.65220981  0.84806773  0.28428349  1
  O  O221  1  0.59439794  0.85470690  0.85252054  1
  O  O222  1  0.34507775  0.13000583  0.22948194  1
  O  O223  1  0.36846263  0.13937454  0.60678203  1
  O  O224  1  0.42793236  0.65071075  0.12362610  1
  O  O225  1  0.34419854  0.62957247  0.62384881  1
  O  O226  1  0.92384827  0.11915271  0.08249175  1
  O  O227  1  0.92841519  0.07834779  0.54416049  1
  O  O228  1  0.85460146  0.60013352  0.06543805  1
  O  O229  1  0.92979209  0.62690329  0.64424631  1
  O  O230  1  0.24391209  0.25845226  0.09640351  1
  O  O231  1  0.26543195  0.26752067  0.62101247  1
  O  O232  1  0.23773764  0.76007991  0.13334789  1
  O  O233  1  0.26233505  0.76076903  0.62800525  1
  O  O234  1  0.72944587  0.29535962  0.14943459  1
  O  O235  1  0.73263581  0.25983134  0.62314833  1
  O  O236  1  0.76333811  0.79461498  0.02530195  1
  O  O237  1  0.75731633  0.72463554  0.62794526  1
  O  O238  1  0.21092747  0.23135719  0.38020891  1
  O  O239  1  0.29303817  0.27225728  0.89828972  1
  O  O240  1  0.15555635  0.82765322  0.39944844  1
  O  O241  1  0.17985227  0.78753823  0.86291843  1
  O  O242  1  0.70464788  0.23505229  0.43038418  1
  O  O243  1  0.79144083  0.23566396  0.87692220  1
  O  O244  1  0.70225394  0.89626863  0.44655091  1
  O  O245  1  0.83113687  0.63895894  0.77281540  1
  O  O246  1  0.05682756  0.10640581  -0.00410723  1
  O  O247  1  -0.02022621  0.11762466  0.51002903  1
  O  O248  1  0.00474413  0.56910337  0.03093282  1
  O  O249  1  -0.07207345  0.62767884  0.57088675  1
  O  O250  1  0.43981308  0.09530888  0.08218785  1
  O  O251  1  0.52569559  0.14077954  0.45205377  1
  O  O252  1  0.51272562  0.60944157  0.00852431  1
  O  O253  1  0.51705934  0.63906338  0.49132922  1
  O  O254  1  0.56227066  0.44508538  0.39518882  1
  O  O255  1  0.45808324  0.38272706  0.97574579  1
  O  O256  1  0.48050388  0.82937591  0.48912024  1
  O  O257  1  0.47650320  0.88884017  1.00707018  1
  O  O258  1  0.96891435  0.28976431  0.55146294  1
  O  O259  1  0.92180014  0.27807826  1.04618298  1
  O  O260  1  0.95322356  0.94612361  0.41730460  1
  O  O261  1  1.06080919  0.89624936  0.99240270  1
  O  O262  1  0.50417478  0.48985132  0.39103319  1
  O  O263  1  0.49478054  0.48323730  0.87569772  1
  O  O264  1  0.56066538  0.93114469  0.39130680  1
  O  O265  1  0.49376489  0.98313934  0.87458740  1
  O  O266  1  0.99600347  0.51514089  0.36580560  1
  O  O267  1  0.98567918  0.43579122  0.93532303  1
  O  O268  1  0.90554804  1.09856864  0.35749915  1
  O  O269  1  1.06096970  0.99679504  0.86975900  1
  O  O270  1  0.05991299  0.01214866  0.10810450  1
  O  O271  1  0.02130909  0.01658016  0.64602327  1
  O  O272  1  0.02936584  0.42472050  0.17052084  1
  O  O273  1  0.02242382  0.48999266  0.64126429  1
  O  O274  1  0.47456165  0.03935924  0.12634085  1
  O  O275  1  0.48813313  0.00757935  0.63914022  1
  O  O276  1  0.46735370  0.48874486  0.11895704  1
  O  O277  1  0.50564910  0.49108161  0.61854610  1
  O  O278  1  0.25135561  0.31667940  0.22554428  1
  O  O279  1  0.22722624  0.36950822  0.73453660  1
  O  O280  1  0.27658185  0.86599411  0.23954137  1
  O  O281  1  0.24050273  0.86454169  0.73592002  1
  O  O282  1  0.73864678  0.48403805  0.25410405  1
  O  O283  1  0.74563733  0.34800333  0.74047280  1
  O  O284  1  0.74766277  0.87277549  0.15106043  1
  O  O285  1  0.72782361  0.88254749  0.76532490  1
  O  O286  1  0.28438946  0.17070151  0.25948719  1
  O  O287  1  0.27217903  0.08793391  0.73699772  1
  O  O288  1  0.22752945  0.62875145  0.24094629  1
  O  O289  1  0.26144748  0.61469458  0.76732106  1
  O  O290  1  0.80782831  0.21057550  0.20190421  1
  O  O291  1  0.74074199  0.15187092  0.78554657  1
  O  O292  1  0.75880995  0.70493088  0.14384951  1
  O  O293  1  0.78558425  0.64062585  0.82748210  1
  O  O294  1  0.37248068  0.10018206  0.39571322  1
  O  O295  1  0.38230832  0.08577194  0.86014899  1
  O  O296  1  0.37917341  0.57606194  0.43033086  1
  O  O297  1  0.35610712  0.64958131  0.88284212  1
  O  O298  1  0.86552893  0.15019536  0.38867870  1
  O  O299  1  0.85917549  0.10767891  0.88888010  1
  O  O300  1  0.89511435  0.64721010  0.37873030  1
  O  O301  1  0.85807914  0.51192362  0.94128274  1
  O  O302  1  0.15762788  0.38048428  0.09772097  1
  O  O303  1  0.13376206  0.38289949  0.61656490  1
  O  O304  1  0.15898570  0.90333508  0.14692063  1
  O  O305  1  0.15600963  0.88296535  0.62153844  1
  O  O306  1  0.74707664  0.41253985  0.26175352  1
  O  O307  1  0.64117803  0.40353819  0.62311070  1
  O  O308  1  0.66081357  0.90606576  0.05596017  1
  O  O309  1  0.59323061  0.83868118  0.64993203  1
  O  O310  1  0.11884404  0.22152854  0.26665708  1
  O  O311  1  0.17996789  0.22409954  0.76784238  1
  O  O312  1  0.10428666  0.78125594  0.24648568  1
  O  O313  1  0.11189638  0.75945932  0.70551962  1
  O  O314  1  0.58065817  0.23822722  0.31477530  1
  O  O315  1  0.58380323  0.27218887  0.72475394  1
  O  O316  1  0.67675371  0.68966817  0.25544326  1
  O  O317  1  0.63907294  0.74601684  0.77251147  1
  O  O318  1  0.41048830  0.24494485  0.33626436  1
  O  O319  1  0.37175411  0.25215690  0.72767127  1
  O  O320  1  0.40484985  0.76225194  0.22796516  1
  O  O321  1  0.36613990  0.73633887  0.74113720  1
  O  O322  1  0.74852585  0.25431642  0.20735233  1
  O  O323  1  0.86551581  0.21178378  0.71239416  1
  O  O324  1  0.82609545  0.80472986  0.29188875  1
  O  O325  1  0.93037999  0.76232954  0.80972368  1
  O  O326  1  0.31247754  0.55302326  0.45887084  1
  O  O327  1  0.36007986  0.50408985  1.00709912  1
  O  O328  1  0.39438554  0.95999386  0.50443449  1
  O  O329  1  0.35842101  0.97589061  0.97176733  1
  O  O330  1  0.94009716  0.43364579  0.50767367  1
  O  O331  1  0.87964791  0.36114107  0.97491558  1
  O  O332  1  0.81193735  0.98191137  0.36368385  1
  O  O333  1  0.94780292  0.99172416  0.98914932  1
  O  O334  1  0.16670046  0.01584408  -0.00591942  1
  O  O335  1  0.11718677  -0.01963493  0.52461665  1
  O  O336  1  0.13683941  0.53585873  0.05645523  1
  O  O337  1  0.10651861  0.49605735  0.50170634  1
  O  O338  1  0.59127068  0.04972558  0.01578986  1
  O  O339  1  0.62497525  -0.00199177  0.55270193  1
  O  O340  1  0.64838425  0.50216148  -0.03470174  1
  O  O341  1  0.63630442  0.51756639  0.51602753  1
  O  O342  1  0.35789069  0.39737948  0.14749605  1
  O  O343  1  0.34711555  0.40250720  0.63407394  1
  O  O344  1  0.37122182  0.85474362  0.12089595  1
  O  O345  1  0.37973634  0.84680537  0.61763281  1
  O  O346  1  0.85592032  0.28057368  0.06867907  1
  O  O347  1  0.87389197  0.37397576  0.64924020  1
  O  O348  1  0.86421355  0.88238646  0.06519839  1
  O  O349  1  0.92381812  0.94291117  0.48172120  1
  O  O350  1  0.09663169  0.13015523  0.36807442  1
  O  O351  1  0.16566365  0.12298691  0.88066541  1
  O  O352  1  0.09941251  0.66214652  0.39358619  1
  O  O353  1  0.10805216  0.57340447  0.91584733  1
  O  O354  1  0.64050460  0.11329895  0.36565984  1
  O  O355  1  0.66210083  0.16047323  0.91206746  1
  O  O356  1  0.62834493  0.61453826  0.39182623  1
  O  O357  1  0.60356231  0.63253373  0.88016497  1
