# generated using pymatgen
data_V51Zn51O256
_symmetry_space_group_name_H-M   'P 1'
_cell_length_a   17.29016631
_cell_length_b   17.32193658
_cell_length_c   17.12524098
_cell_angle_alpha   88.68216715
_cell_angle_beta   90.88135437
_cell_angle_gamma   90.35702721
_symmetry_Int_Tables_number   1
_chemical_formula_structural   V51Zn51O256
_chemical_formula_sum   'V51 Zn51 O256'
_cell_volume   5126.94347013
_cell_formula_units_Z   1
loop_
 _symmetry_equiv_pos_site_id
 _symmetry_equiv_pos_as_xyz
  1  'x, y, z'
loop_
 _atom_site_type_symbol
 _atom_site_label
 _atom_site_symmetry_multiplicity
 _atom_site_fract_x
 _atom_site_fract_y
 _atom_site_fract_z
 _atom_site_occupancy
  V  V0  1  0.89065272  0.37493518  0.02065833  1
  V  V1  1  0.64501766  0.24212984  0.84958130  1
  V  V2  1  0.38672626  0.85676193  0.51953357  1
  V  V3  1  0.37221037  0.23470989  0.64501971  1
  V  V4  1  0.26316916  0.86725422  0.66214122  1
  V  V5  1  -0.00420228  0.24474746  0.73290969  1
  V  V6  1  -0.02483678  0.23891048  0.26961732  1
  V  V7  1  0.13384966  0.24308880  0.88211819  1
  V  V8  1  -0.00785918  0.52284102  0.50205768  1
  V  V9  1  0.48303259  0.90679919  0.89540869  1
  V  V10  1  0.12378486  0.75498876  0.40133735  1
  V  V11  1  0.85014413  0.50138363  0.36157448  1
  V  V12  1  -0.04991138  0.10118089  0.12015499  1
  V  V13  1  0.47145615  0.02764542  0.48371460  1
  V  V14  1  0.32880326  0.14099902  0.28098710  1
  V  V15  1  0.12038746  0.63676162  -0.00027326  1
  V  V16  1  0.25005576  0.36302408  0.12221346  1
  V  V17  1  0.91110137  0.60406029  0.72621688  1
  V  V18  1  0.13285515  0.36187983  0.73426968  1
  V  V19  1  0.52546772  0.11021362  0.63633885  1
  V  V20  1  0.00631326  -0.00417497  -0.01622445  1
  V  V21  1  0.46784816  0.59958828  0.63622443  1
  V  V22  1  0.47882599  0.88211516  0.29398338  1
  V  V23  1  0.87595815  0.48965939  0.85797948  1
  V  V24  1  0.26395319  0.48192613  0.75958972  1
  V  V25  1  0.63174022  0.22641660  0.35899568  1
  V  V26  1  0.74033062  0.71018225  0.48254371  1
  V  V27  1  0.85849143  0.14541901  0.76315130  1
  V  V28  1  0.36239825  0.65689332  0.75208921  1
  V  V29  1  0.13311217  0.13625820  0.01345636  1
  V  V30  1  0.52599942  0.12334314  0.09877258  1
  V  V31  1  0.12071244  0.38160908  0.24675337  1
  V  V32  1  0.01281381  0.38213478  0.39962348  1
  V  V33  1  0.11132190  0.73983006  0.82923813  1
  V  V34  1  0.52982978  0.27774032  0.72471312  1
  V  V35  1  0.58301759  0.58411830  0.46157127  1
  V  V36  1  0.12870229  0.23762898  0.38374043  1
  V  V37  1  0.75873076  0.41051504  0.61761910  1
  V  V38  1  0.00391796  0.36861014  0.87179538  1
  V  V39  1  0.23797989  0.62685529  0.86622309  1
  V  V40  1  -0.03175289  0.84418749  0.87529888  1
  V  V41  1  0.83320025  0.89873556  0.52691216  1
  V  V42  1  0.64146743  0.08938822  0.49104207  1
  V  V43  1  0.39045170  0.33606392  0.49248376  1
  V  V44  1  0.14529963  0.51029153  0.61441075  1
  V  V45  1  0.23752599  0.51924791  0.26065950  1
  V  V46  1  0.19413909  -0.02376271  0.81275383  1
  V  V47  1  0.00297614  0.00215453  0.49538998  1
  V  V48  1  0.77590204  0.23810149  0.50112875  1
  V  V49  1  0.12372386  0.11966984  0.53846333  1
  V  V50  1  0.46527890  0.67094552  0.09289804  1
  Zn  Zn51  1  0.95259737  0.98409123  0.29239035  1
  Zn  Zn52  1  0.46142901  0.92474437  0.67657968  1
  Zn  Zn53  1  1.01137885  0.50908162  -0.02227089  1
  Zn  Zn54  1  0.30548710  0.30720224  0.30950779  1
  Zn  Zn55  1  0.07582458  0.54420501  0.79654463  1
  Zn  Zn56  1  0.20193500  0.43617635  0.42933880  1
  Zn  Zn57  1  0.67264090  0.41029638  0.43766799  1
  Zn  Zn58  1  0.31328309  0.14021168  0.48119453  1
  Zn  Zn59  1  0.59792330  0.78725376  0.56422225  1
  Zn  Zn60  1  0.40648396  0.46781696  0.10943091  1
  Zn  Zn61  1  0.83859447  0.07952221  0.54935352  1
  Zn  Zn62  1  0.39317092  0.99740447  0.15355872  1
  Zn  Zn63  1  0.81326080  0.32734136  0.78169908  1
  Zn  Zn64  1  0.07347070  0.56559854  0.32396363  1
  Zn  Zn65  1  0.07214461  0.30162350  0.56286152  1
  Zn  Zn66  1  0.83777046  0.82935617  0.37113654  1
  Zn  Zn67  1  0.50524157  0.74346030  0.41211756  1
  Zn  Zn68  1  0.61240761  0.05590167  0.82133482  1
  Zn  Zn69  1  0.12054813  0.72045958  0.61604508  1
  Zn  Zn70  1  0.15024442  0.85393590  -0.04800249  1
  Zn  Zn71  1  0.69449255  0.15046752  0.18042148  1
  Zn  Zn72  1  0.82464025  0.56467505  0.55023099  1
  Zn  Zn73  1  0.29731547  0.85040628  0.36051996  1
  Zn  Zn74  1  0.73751194  0.38988508  0.92909238  1
  Zn  Zn75  1  0.45722954  0.19051639  0.42829825  1
  Zn  Zn76  1  0.19684555  0.15609088  0.72973106  1
  Zn  Zn77  1  0.56263145  0.04640637  0.31151933  1
  Zn  Zn78  1  0.03963020  0.07073096  0.82558538  1
  Zn  Zn79  1  0.18153559  0.44398626  0.94287536  1
  Zn  Zn80  1  0.71473070  0.72663992  0.68609993  1
  Zn  Zn81  1  0.57337841  0.34837659  0.58163079  1
  Zn  Zn82  1  0.66337696  0.88747236  0.98832945  1
  Zn  Zn83  1  0.94485198  0.72440771  0.51230376  1
  Zn  Zn84  1  0.38157691  0.72897425  0.93888412  1
  Zn  Zn85  1  0.93804593  0.19417273  0.94313481  1
  Zn  Zn86  1  0.79123307  0.34192069  0.33485009  1
  Zn  Zn87  1  0.34016517  0.11698512  -0.00137162  1
  Zn  Zn88  1  0.69227525  0.18927670  0.66243043  1
  Zn  Zn89  1  0.52420805  0.87899492  0.10685116  1
  Zn  Zn90  1  0.19244062  0.93421577  0.49492881  1
  Zn  Zn91  1  0.93922379  0.66774473  0.91946568  1
  Zn  Zn92  1  0.46279393  0.20734131  0.90600972  1
  Zn  Zn93  1  0.62557375  0.90241653  0.43323367  1
  Zn  Zn94  1  0.91439561  0.39977875  0.22089979  1
  Zn  Zn95  1  0.95004144  0.43256191  0.66943384  1
  Zn  Zn96  1  0.35787561  0.44397138  0.63421409  1
  Zn  Zn97  1  0.67016346  0.67910166  0.12721926  1
  Zn  Zn98  1  0.91142661  0.93165809  0.69522931  1
  Zn  Zn99  1  0.16626306  0.19940916  0.19602680  1
  Zn  Zn100  1  0.56542798  0.67820625  0.76714155  1
  Zn  Zn101  1  0.95636306  0.18005244  0.43607933  1
  O  O102  1  0.12254976  0.13954048  0.11290031  1
  O  O103  1  0.12787142  0.12699194  0.63600116  1
  O  O104  1  0.13768456  0.64471711  0.09235202  1
  O  O105  1  0.14366578  0.60590770  0.62173497  1
  O  O106  1  0.62858176  0.11366295  0.08807659  1
  O  O107  1  0.63074599  0.11704709  0.59907035  1
  O  O108  1  0.56442352  0.64879896  0.11401132  1
  O  O109  1  0.63604099  0.52890241  0.76938498  1
  O  O110  1  0.38127861  0.32640292  0.39378489  1
  O  O111  1  0.45491317  0.42191348  0.97199516  1
  O  O112  1  0.39314160  0.89909536  0.33830693  1
  O  O113  1  0.39486202  0.94808485  0.90406834  1
  O  O114  1  0.91754533  0.40592209  0.37938886  1
  O  O115  1  0.89544353  0.37893125  0.84767863  1
  O  O116  1  0.88480510  0.82504338  0.47814148  1
  O  O117  1  0.88342241  0.83266023  0.91500144  1
  O  O118  1  0.20214678  -0.01013684  0.37742476  1
  O  O119  1  0.20456059  -0.05126782  0.90968240  1
  O  O120  1  0.26853373  0.48902667  0.35386334  1
  O  O121  1  0.23231126  0.50782913  0.85759965  1
  O  O122  1  0.82505870  -0.00319690  0.31371699  1
  O  O123  1  0.72744725  -0.02533248  0.94614179  1
  O  O124  1  0.76044219  0.45504304  0.37640096  1
  O  O125  1  0.77806439  0.47719665  0.86573323  1
  O  O126  1  0.24823742  0.48985474  0.14944201  1
  O  O127  1  0.24998050  0.48787987  0.65015997  1
  O  O128  1  0.21126259  0.99567630  0.16291732  1
  O  O129  1  0.32578388  1.03580461  0.67860802  1
  O  O130  1  0.74872448  0.52716703  0.13227036  1
  O  O131  1  0.74477485  0.50921716  0.60319745  1
  O  O132  1  0.77793707  0.87300572  0.15187198  1
  O  O133  1  0.65417607  0.97764134  0.73121719  1
  O  O134  1  0.01843377  0.38339607  0.27262679  1
  O  O135  1  0.01567344  0.36057513  0.74081685  1
  O  O136  1  -0.08650138  0.86843169  0.29606644  1
  O  O137  1  -0.04547799  0.89400917  0.78848416  1
  O  O138  1  0.50651684  0.45931679  0.19958845  1
  O  O139  1  0.53980272  0.37082919  0.69566842  1
  O  O140  1  0.46118386  0.90778126  0.19136398  1
  O  O141  1  0.48115237  0.91057434  0.79101069  1
  O  O142  1  0.53980083  0.09367502  0.20257203  1
  O  O143  1  0.55112330  0.10101467  0.73389009  1
  O  O144  1  0.42634801  0.66943158  0.18168052  1
  O  O145  1  0.47290485  0.62713100  0.74600934  1
  O  O146  1  0.95123500  0.15760149  0.32225256  1
  O  O147  1  0.98774458  0.14577497  0.75585183  1
  O  O148  1  0.98761748  0.62231234  0.27046822  1
  O  O149  1  1.00730234  0.61253673  0.73610368  1
  O  O150  1  0.38096153  0.22557870  -0.02520835  1
  O  O151  1  0.37431318  0.23088983  0.52291189  1
  O  O152  1  0.31005318  0.80719727  -0.05333101  1
  O  O153  1  0.41628154  0.76988796  0.48597625  1
  O  O154  1  0.88664003  0.27919378  -0.00466920  1
  O  O155  1  0.85438853  0.17313107  0.48522928  1
  O  O156  1  0.84448530  0.67700835  -0.01147121  1
  O  O157  1  0.83100301  0.67530800  0.50817430  1
  O  O158  1  0.11391348  0.22212670  0.49879702  1
  O  O159  1  0.12627835  0.24310726  0.98569229  1
  O  O160  1  0.15247828  0.72311405  0.50129734  1
  O  O161  1  0.12690862  0.73558169  0.95991399  1
  O  O162  1  0.68232512  0.20609090  0.46547598  1
  O  O163  1  0.61330346  0.28849790  0.95749196  1
  O  O164  1  0.59590151  0.79757652  0.45572379  1
  O  O165  1  0.67445159  0.73547733  1.02288426  1
  O  O166  1  0.52896213  0.21631151  0.13369609  1
  O  O167  1  0.54321963  0.23499637  0.63250958  1
  O  O168  1  0.50842451  0.76865357  0.09891945  1
  O  O169  1  0.53023057  0.71035042  0.62854082  1
  O  O170  1  0.97721829  0.20117735  0.17809118  1
  O  O171  1  1.00225466  0.24810656  0.63491855  1
  O  O172  1  0.91872151  0.82504567  0.21941893  1
  O  O173  1  1.01581269  0.75201714  0.59221213  1
  O  O174  1  0.01106931  0.27238969  0.38769998  1
  O  O175  1  0.00049035  0.26224598  0.85935611  1
  O  O176  1  0.02342930  0.75499208  0.41715179  1
  O  O177  1  -0.00080372  0.74406391  0.86019931  1
  O  O178  1  0.53524986  0.24089117  0.36807664  1
  O  O179  1  0.53538463  0.25771080  0.84021898  1
  O  O180  1  0.49424201  0.78600753  0.30577189  1
  O  O181  1  0.45692977  0.80803165  0.88146480  1
  O  O182  1  0.21690168  0.10726328  0.51273316  1
  O  O183  1  0.22880426  0.12388763  1.00153165  1
  O  O184  1  0.31188697  0.60338608  0.46942301  1
  O  O185  1  0.23858027  0.62374874  0.96526309  1
  O  O186  1  0.73382350  0.06285462  0.50684479  1
  O  O187  1  0.74079544  0.23140087  1.03942789  1
  O  O188  1  0.67993773  0.62870164  0.46666847  1
  O  O189  1  0.78191107  0.63322368  0.96729290  1
  O  O190  1  0.23189373  0.38905806  0.02588315  1
  O  O191  1  0.28782270  0.38821142  0.49960558  1
  O  O192  1  0.15582190  0.81701479  0.11611616  1
  O  O193  1  0.29915082  0.88245764  0.47327161  1
  O  O194  1  0.79268877  0.39582316  0.02508373  1
  O  O195  1  0.80427295  0.31776347  0.45102211  1
  O  O196  1  0.72342625  0.79043694  0.00228073  1
  O  O197  1  0.74209034  0.90188919  0.48762838  1
  O  O198  1  0.13152791  0.49101453  0.26400070  1
  O  O199  1  0.12493436  0.47349241  0.72510578  1
  O  O200  1  0.14274821  0.99361057  0.17825337  1
  O  O201  1  0.09862857  0.98763851  0.78650954  1
  O  O202  1  0.68077073  0.38468855  0.21414966  1
  O  O203  1  0.60498349  0.47361766  0.80275518  1
  O  O204  1  0.66973694  0.99459107  0.23624124  1
  O  O205  1  0.71930579  0.99997747  0.87533009  1
  O  O206  1  0.36877604  0.05912249  0.23921246  1
  O  O207  1  0.37790098  0.02362010  0.72694624  1
  O  O208  1  0.31934889  0.51485630  0.18234836  1
  O  O209  1  0.35721545  0.46182338  0.76163989  1
  O  O210  1  0.80174353  -0.07502622  0.10844839  1
  O  O211  1  0.87145012  0.04174209  0.71845845  1
  O  O212  1  0.86965324  0.49024540  0.26254264  1
  O  O213  1  0.89239626  0.49651341  0.74644422  1
  O  O214  1  0.12310945  0.36992839  0.37970179  1
  O  O215  1  0.11530806  0.36029372  0.86498272  1
  O  O216  1  0.13129578  0.84695729  0.45154676  1
  O  O217  1  0.11583496  0.83824782  0.83982105  1
  O  O218  1  0.67274077  0.32087855  0.36435872  1
  O  O219  1  0.63149370  0.35936150  0.97239513  1
  O  O220  1  0.56438919  0.93119244  0.33011873  1
  O  O221  1  0.58634125  0.87345480  0.90913944  1
  O  O222  1  0.42256851  0.13590734  0.09403979  1
  O  O223  1  0.42675442  0.14462470  0.63694366  1
  O  O224  1  0.37302253  0.71445086  0.05802847  1
  O  O225  1  0.37675373  0.63359689  0.63095667  1
  O  O226  1  0.85697313  0.11418914  0.11719362  1
  O  O227  1  0.88130520  0.09838127  0.65527091  1
  O  O228  1  0.98382848  0.69638785  0.16016091  1
  O  O229  1  0.90040510  0.59435112  0.62796088  1
  O  O230  1  0.23319918  0.26647046  0.13096482  1
  O  O231  1  0.28349823  0.20607882  0.67291014  1
  O  O232  1  0.21460695  0.77940249  0.09601692  1
  O  O233  1  0.21566244  0.78479425  0.64250324  1
  O  O234  1  0.74357415  0.23646778  0.11215512  1
  O  O235  1  0.76778140  0.24806361  0.60047532  1
  O  O236  1  0.79385388  0.69180555  0.14496585  1
  O  O237  1  0.70805424  0.74961013  0.57631867  1
  O  O238  1  0.22560982  0.25490748  0.38170304  1
  O  O239  1  0.22620002  0.23737167  0.86265416  1
  O  O240  1  0.22367409  0.76699598  0.37011848  1
  O  O241  1  0.22163216  0.72484697  0.83949700  1
  O  O242  1  0.78745666  0.15369912  0.32543080  1
  O  O243  1  0.73172897  0.29938142  0.86198267  1
  O  O244  1  0.75196591  0.76299466  0.39738798  1
  O  O245  1  0.74709911  0.64940117  0.90319841  1
  O  O246  1  -0.00731697  0.13738612  0.02622000  1
  O  O247  1  0.00430933  0.10633069  0.51102404  1
  O  O248  1  0.01322016  0.62423657  -0.00780495  1
  O  O249  1  -0.00339462  0.61904551  0.49872695  1
  O  O250  1  0.53087429  0.14499969  -0.00154951  1
  O  O251  1  0.51921252  0.12358129  0.50794914  1
  O  O252  1  0.47537339  0.67632106  -0.01939473  1
  O  O253  1  0.53584824  0.59633401  0.55132955  1
  O  O254  1  0.48817504  0.35106277  0.50823601  1
  O  O255  1  0.49581063  0.41584990  1.03846361  1
  O  O256  1  0.46304630  0.91778361  0.49655924  1
  O  O257  1  0.47922672  0.89612496  1.00103150  1
  O  O258  1  1.01333032  0.37521283  0.49992720  1
  O  O259  1  1.00171926  0.37362468  0.97106812  1
  O  O260  1  1.00355013  0.90844303  0.55810341  1
  O  O261  1  1.02306370  0.89652689  0.95315065  1
  O  O262  1  0.52728054  0.50615741  0.25022854  1
  O  O263  1  0.59503101  0.53962860  0.94463500  1
  O  O264  1  0.47306018  1.04458099  0.38573728  1
  O  O265  1  0.53631388  0.99829763  0.88935445  1
  O  O266  1  1.03585407  0.49748483  0.40924693  1
  O  O267  1  1.00846526  0.47525311  0.85555792  1
  O  O268  1  0.99382638  0.98391375  0.39813044  1
  O  O269  1  0.96359200  1.03460739  0.90174076  1
  O  O270  1  -0.02638223  0.04583325  0.20527205  1
  O  O271  1  -0.00187692  -0.03592147  0.61404125  1
  O  O272  1  0.00231748  0.63226652  0.19037878  1
  O  O273  1  0.02898241  0.49126379  0.59963434  1
  O  O274  1  0.50181038  0.02074395  0.09383570  1
  O  O275  1  0.50299845  0.01249280  0.61645350  1
  O  O276  1  0.44716746  0.57175729  0.07929312  1
  O  O277  1  0.45457682  0.50328246  0.64086706  1
  O  O278  1  0.22973237  0.36974730  0.24920751  1
  O  O279  1  0.22900681  0.37733608  0.76550961  1
  O  O280  1  0.22997661  0.95121357  0.32230000  1
  O  O281  1  0.25009436  0.90423793  0.75660517  1
  O  O282  1  0.75476804  0.35597231  0.21983623  1
  O  O283  1  0.74110664  0.38488179  0.71280807  1
  O  O284  1  0.78205117  0.94066427  0.33548948  1
  O  O285  1  0.69072287  0.91571589  0.74085523  1
  O  O286  1  0.23148088  0.13466696  0.26372670  1
  O  O287  1  0.23148858  0.06822335  0.79461632  1
  O  O288  1  0.23101592  0.61318025  0.26056317  1
  O  O289  1  0.27292244  0.59916548  0.75185758  1
  O  O290  1  0.71909430  0.03432584  0.19787590  1
  O  O291  1  0.76143278  0.14808844  0.74528502  1
  O  O292  1  0.69335580  0.56246326  0.16175385  1
  O  O293  1  0.81275504  0.67513777  0.72904322  1
  O  O294  1  0.35905488  0.15326576  0.38075390  1
  O  O295  1  0.40028744  0.11460828  0.90249121  1
  O  O296  1  0.35027101  0.62425532  0.41309894  1
  O  O297  1  0.35463674  0.65181736  0.86023353  1
  O  O298  1  0.79814942  0.15363432  0.25349522  1
  O  O299  1  0.86786162  0.14722014  0.86153502  1
  O  O300  1  0.84235036  0.59587107  0.36617834  1
  O  O301  1  0.89148982  0.59310290  0.84757045  1
  O  O302  1  0.12098749  0.38334876  0.14992690  1
  O  O303  1  0.14156188  0.35411884  0.63558228  1
  O  O304  1  0.13185621  0.87397976  0.06734338  1
  O  O305  1  0.22018267  0.93467895  0.60415072  1
  O  O306  1  0.65372720  0.39178717  0.14530938  1
  O  O307  1  0.67743636  0.37483657  0.55043406  1
  O  O308  1  0.62963610  0.81815376  0.21590204  1
  O  O309  1  0.54068621  0.83955898  0.65193441  1
  O  O310  1  0.09960417  0.26154127  0.26826028  1
  O  O311  1  0.11375796  0.25072280  0.75645564  1
  O  O312  1  0.10303914  0.80026125  0.31091033  1
  O  O313  1  0.10258076  0.72832926  0.73326644  1
  O  O314  1  0.65033463  0.20805896  0.26223155  1
  O  O315  1  0.63853571  0.24858792  0.74499282  1
  O  O316  1  0.67081091  0.75786825  0.21692391  1
  O  O317  1  0.50477412  0.77131548  0.67946087  1
  O  O318  1  0.35605894  0.22939186  0.24313190  1
  O  O319  1  0.42745226  0.25549244  0.73471140  1
  O  O320  1  0.29739104  0.82510318  0.22361350  1
  O  O321  1  0.34855183  0.74810340  0.73537209  1
  O  O322  1  0.88800228  0.29474807  0.27166783  1
  O  O323  1  0.88591659  0.25041916  0.73969304  1
  O  O324  1  0.82295543  0.66567355  0.20742180  1
  O  O325  1  0.88309929  0.71349342  0.73307247  1
  O  O326  1  0.35159990  0.44081133  0.50766749  1
  O  O327  1  0.38612862  0.45219473  0.97939627  1
  O  O328  1  0.37949406  1.04703973  0.50918453  1
  O  O329  1  0.34426511  1.01657830  1.05472895  1
  O  O330  1  0.89363956  0.50512787  0.48176075  1
  O  O331  1  0.90187356  0.48091582  0.96451989  1
  O  O332  1  0.88526409  0.98836869  0.50617592  1
  O  O333  1  0.94806356  0.99983422  1.06470281  1
  O  O334  1  0.09963721  0.03103594  0.00154680  1
  O  O335  1  0.10765167  0.01131506  0.50832328  1
  O  O336  1  0.12003092  0.52321496  -0.01130805  1
  O  O337  1  0.16000220  0.49089104  0.51838547  1
  O  O338  1  0.62538628  -0.09386033  0.08572573  1
  O  O339  1  0.59547020  -0.00228220  0.48629152  1
  O  O340  1  0.63942288  0.52255156  -0.00010906  1
  O  O341  1  0.59292003  0.49100404  0.43502181  1
  O  O342  1  0.34984999  0.37531826  0.13339013  1
  O  O343  1  0.37110107  0.33483446  0.61605669  1
  O  O344  1  0.30252453  0.87927137  0.17492940  1
  O  O345  1  0.36902875  0.86979580  0.62593805  1
  O  O346  1  0.92542155  0.38841336  0.11216529  1
  O  O347  1  0.85719983  0.39759717  0.60836164  1
  O  O348  1  0.95845556  0.85944077  0.16942824  1
  O  O349  1  0.83446359  0.88573434  0.62704060  1
  O  O350  1  0.11482263  0.14453736  0.37235099  1
  O  O351  1  0.10265439  0.14309768  0.88879041  1
  O  O352  1  0.12078769  0.65797582  0.37465610  1
  O  O353  1  0.12699464  0.62291128  0.85687364  1
  O  O354  1  0.62771062  0.11026107  0.38199415  1
  O  O355  1  0.65278205  0.14759364  0.87377006  1
  O  O356  1  0.52832059  0.63402708  0.39497461  1
  O  O357  1  0.65635730  0.72621642  0.77492908  1
