# generated using pymatgen
data_V51Zn51O256
_symmetry_space_group_name_H-M   'P 1'
_cell_length_a   17.53798400
_cell_length_b   17.48394451
_cell_length_c   17.65499664
_cell_angle_alpha   89.02878108
_cell_angle_beta   90.79954041
_cell_angle_gamma   90.05990022
_symmetry_Int_Tables_number   1
_chemical_formula_structural   V51Zn51O256
_chemical_formula_sum   'V51 Zn51 O256'
_cell_volume   5412.30051175
_cell_formula_units_Z   1
loop_
 _symmetry_equiv_pos_site_id
 _symmetry_equiv_pos_as_xyz
  1  'x, y, z'
loop_
 _atom_site_type_symbol
 _atom_site_label
 _atom_site_symmetry_multiplicity
 _atom_site_fract_x
 _atom_site_fract_y
 _atom_site_fract_z
 _atom_site_occupancy
  V  V0  1  -0.01648479  0.64929354  0.63981322  1
  V  V1  1  0.91088571  0.15561439  0.28672711  1
  V  V2  1  -0.01122988  0.32414164  0.84138244  1
  V  V3  1  0.38516220  0.60617851  0.73388196  1
  V  V4  1  0.50059651  0.12068063  0.62876379  1
  V  V5  1  0.85261247  0.01133659  0.86327621  1
  V  V6  1  0.85036901  0.19095733  0.62597276  1
  V  V7  1  0.07771283  -0.03173591  0.68038640  1
  V  V8  1  0.16270251  0.39804051  0.76407099  1
  V  V9  1  0.39442484  0.03894410  0.93353390  1
  V  V10  1  0.61730563  0.85463143  0.75481528  1
  V  V11  1  -0.05709389  0.79452303  0.23880729  1
  V  V12  1  0.74153293  0.25592633  0.02282817  1
  V  V13  1  0.38509199  0.26723382  0.11836888  1
  V  V14  1  0.33692506  0.88999555  0.66037406  1
  V  V15  1  0.65715624  0.73249894  0.87606970  1
  V  V16  1  0.13195514  0.19722182  0.38864626  1
  V  V17  1  0.70888883  0.00890584  0.74609764  1
  V  V18  1  0.55243620  0.66151916  0.10323850  1
  V  V19  1  0.00267681  0.01050586  0.02528853  1
  V  V20  1  0.75980693  0.58389227  0.40175425  1
  V  V21  1  0.39128904  0.13464931  0.79280380  1
  V  V22  1  0.83320586  0.92024184  0.02547815  1
  V  V23  1  0.73336818  0.87446437  0.62614322  1
  V  V24  1  0.66570488  0.73085354  0.36200415  1
  V  V25  1  0.75037694  0.35328481  0.58199250  1
  V  V26  1  0.42104649  0.62696976  0.21094156  1
  V  V27  1  0.12300420  0.06083030  0.51880707  1
  V  V28  1  0.50094547  0.26949505  0.74775374  1
  V  V29  1  0.65146295  0.59091460  -0.01273443  1
  V  V30  1  0.46603961  0.43889406  0.91447635  1
  V  V31  1  0.92389077  0.26340940  0.09469149  1
  V  V32  1  0.73927590  0.50407982  0.69834711  1
  V  V33  1  0.29837094  0.73823879  0.47798209  1
  V  V34  1  0.85877821  0.74161063  0.07714218  1
  V  V35  1  0.15238306  0.22970107  0.88011567  1
  V  V36  1  0.84572750  0.51948167  0.82917205  1
  V  V37  1  0.47818657  0.75996236  0.80742516  1
  V  V38  1  0.45848063  0.48631387  0.46167158  1
  V  V39  1  0.64167767  0.39831304  0.22145336  1
  V  V40  1  0.70753413  0.12364026  0.87754179  1
  V  V41  1  0.25556977  0.38202000  0.63216522  1
  V  V42  1  -0.03015302  0.47397459  -0.05393592  1
  V  V43  1  0.62696819  0.27099070  0.86674830  1
  V  V44  1  0.78945365  0.49738204  0.21515732  1
  V  V45  1  0.04889069  0.43402861  0.31146956  1
  V  V46  1  0.00298834  0.44748572  0.53214744  1
  V  V47  1  0.21723585  0.46527359  0.12005418  1
  V  V48  1  0.20105829  0.22649892  0.55651396  1
  V  V49  1  0.20929822  0.84232934  0.15183711  1
  V  V50  1  0.37776544  0.24330656  0.60539104  1
  Zn  Zn51  1  0.27111461  0.99342566  0.26736828  1
  Zn  Zn52  1  0.21562322  0.35318378  0.29558689  1
  Zn  Zn53  1  0.72369564  0.70126966  0.71811478  1
  Zn  Zn54  1  0.62964151  0.47344806  0.82268530  1
  Zn  Zn55  1  0.46250624  0.67431003  0.43320062  1
  Zn  Zn56  1  0.36345709  0.88750108  0.84780049  1
  Zn  Zn57  1  0.19976544  0.89779568  0.56420599  1
  Zn  Zn58  1  0.24033936  0.71433382  0.63212105  1
  Zn  Zn59  1  0.70280842  0.91801824  0.91949579  1
  Zn  Zn60  1  0.62764064  0.38846776  0.01739597  1
  Zn  Zn61  1  0.85560881  0.13329539  -0.01794580  1
  Zn  Zn62  1  0.39066094  0.55577596  0.05401993  1
  Zn  Zn63  1  0.61803601  0.58490924  0.26551951  1
  Zn  Zn64  1  0.51739098  1.02135001  0.76693650  1
  Zn  Zn65  1  0.44225363  0.43042165  0.65685147  1
  Zn  Zn66  1  0.86299962  0.71983028  0.37083906  1
  Zn  Zn67  1  0.92351151  0.41716433  0.70443305  1
  Zn  Zn68  1  0.06476201  0.04485351  0.86048055  1
  Zn  Zn69  1  0.45577225  0.22552647  0.94083375  1
  Zn  Zn70  1  0.22371337  0.63965988  0.18682504  1
  Zn  Zn71  1  0.04370424  0.62912056  0.28883978  1
  Zn  Zn72  1  0.83734577  0.54761091  0.03132038  1
  Zn  Zn73  1  0.67794015  0.80088833  0.06578202  1
  Zn  Zn74  1  0.03290872  0.53765832  0.80308920  1
  Zn  Zn75  1  0.29274329  0.07287440  0.63235519  1
  Zn  Zn76  1  0.90704402  0.50774032  0.36777931  1
  Zn  Zn77  1  0.87504194  1.00425876  0.66214146  1
  Zn  Zn78  1  0.32472464  0.31809121  0.82181059  1
  Zn  Zn79  1  0.84359511  0.52681214  0.54855321  1
  Zn  Zn80  1  0.92815397  0.98973999  0.19465208  1
  Zn  Zn81  1  0.96590640  0.16350125  0.46240850  1
  Zn  Zn82  1  0.65885371  0.23269301  0.65097633  1
  Zn  Zn83  1  0.95956223  0.44202976  0.14856266  1
  Zn  Zn84  1  0.31815533  0.57046809  0.59050165  1
  Zn  Zn85  1  0.64743750  -0.09871187  0.44435976  1
  Zn  Zn86  1  0.75893481  0.26900881  0.21558996  1
  Zn  Zn87  1  0.31845601  0.76030665  0.28908093  1
  Zn  Zn88  1  0.81190936  0.26527001  0.79089878  1
  Zn  Zn89  1  0.52155018  0.91670185  0.60522659  1
  Zn  Zn90  1  0.89383465  0.34609603  0.26791008  1
  Zn  Zn91  1  -0.06871164  0.84836563  0.64756279  1
  Zn  Zn92  1  0.19211007  0.97291005  0.98700487  1
  Zn  Zn93  1  0.72252859  0.66791939  0.18042348  1
  Zn  Zn94  1  0.04463587  0.31208476  0.63619934  1
  Zn  Zn95  1  0.80276728  0.83275768  0.81537714  1
  Zn  Zn96  1  0.00373559  0.87393898  0.10837916  1
  Zn  Zn97  1  0.26539274  0.19483987  0.26304398  1
  Zn  Zn98  1  0.13520262  0.38662681  0.47154910  1
  Zn  Zn99  1  0.74576661  0.38539635  0.37831016  1
  Zn  Zn100  1  0.30802451  0.10229979  0.12414062  1
  Zn  Zn101  1  0.09529137  0.33838967  0.01696408  1
  O  O102  1  0.13615871  0.12391856  0.13744353  1
  O  O103  1  0.11401052  0.04619455  0.62635764  1
  O  O104  1  0.15674843  0.62888004  0.00472502  1
  O  O105  1  0.11993886  0.70466069  0.62937314  1
  O  O106  1  0.59296973  0.11411928  0.26738073  1
  O  O107  1  0.59322209  0.14620451  0.62525614  1
  O  O108  1  0.64683038  0.61786462  0.10741338  1
  O  O109  1  0.56544074  0.62168313  0.60636568  1
  O  O110  1  0.32558090  0.38750304  0.42876083  1
  O  O111  1  0.39545057  0.37409453  0.88211568  1
  O  O112  1  0.35376625  0.87578653  0.30198098  1
  O  O113  1  0.34857237  0.94888441  0.93090695  1
  O  O114  1  0.97512271  0.37711874  0.34143303  1
  O  O115  1  0.89335789  0.30920066  0.85163351  1
  O  O116  1  0.92632612  0.80170043  0.41775567  1
  O  O117  1  0.81996072  0.90993746  0.89207230  1
  O  O118  1  0.34095656  -0.09702965  0.37307815  1
  O  O119  1  0.25418551  0.06463477  0.97263475  1
  O  O120  1  0.19234681  0.59998379  0.35370454  1
  O  O121  1  0.23643589  0.53473475  0.92040163  1
  O  O122  1  0.74393326  -0.00632702  0.24535402  1
  O  O123  1  0.71510618  0.01994145  0.87563857  1
  O  O124  1  0.78430655  0.48946014  0.36703640  1
  O  O125  1  0.74320701  0.50634117  0.81622389  1
  O  O126  1  0.17759711  0.55248353  0.14340553  1
  O  O127  1  0.26013882  0.47514940  0.61237175  1
  O  O128  1  0.20855733  0.93413331  0.19910246  1
  O  O129  1  0.28445000  0.96508034  0.60995416  1
  O  O130  1  0.80433296  0.48609077  0.12090431  1
  O  O131  1  0.76526989  0.46014046  0.60450187  1
  O  O132  1  0.56943480  1.09163380  0.20629090  1
  O  O133  1  0.71031651  0.99909501  0.65167347  1
  O  O134  1  0.05117657  0.42966840  0.21539467  1
  O  O135  1  -0.00212520  0.33735069  0.73810603  1
  O  O136  1  -0.02800207  0.88980611  0.23243509  1
  O  O137  1  -0.03325482  0.84359552  0.81686303  1
  O  O138  1  0.56177740  0.41213980  0.26540645  1
  O  O139  1  0.48926499  0.36376682  0.73126156  1
  O  O140  1  0.51795187  0.89509461  0.28019478  1
  O  O141  1  0.51184483  0.85054843  0.76880441  1
  O  O142  1  0.44356773  0.11503061  0.30075155  1
  O  O143  1  0.48431068  0.13543734  0.74137504  1
  O  O144  1  0.53431923  0.62251261  0.20470090  1
  O  O145  1  0.45333583  0.68670987  0.74233578  1
  O  O146  1  1.00279637  0.17207615  0.27813181  1
  O  O147  1  1.00410308  0.13283030  0.75339671  1
  O  O148  1  1.01007851  0.60352773  0.16610804  1
  O  O149  1  1.00632671  0.61158217  0.72712665  1
  O  O150  1  0.37644114  0.25483075  0.01660162  1
  O  O151  1  0.38319640  0.25157993  0.51451173  1
  O  O152  1  0.28465951  0.74427663  -0.03898581  1
  O  O153  1  0.39782177  0.74034030  0.48325147  1
  O  O154  1  0.84970835  0.24322941  0.01869530  1
  O  O155  1  0.91249761  0.23163610  0.53858486  1
  O  O156  1  0.85720520  0.80768160  0.00476357  1
  O  O157  1  0.93379190  0.79703748  0.49474770  1
  O  O158  1  0.11511777  0.23051880  0.59480120  1
  O  O159  1  0.15214580  0.25389927  0.97286393  1
  O  O160  1  0.09480609  0.74655005  0.44627960  1
  O  O161  1  0.13181551  0.83670204  0.91045261  1
  O  O162  1  0.55070570  0.16344308  0.48006425  1
  O  O163  1  0.63972163  0.26544097  0.96739213  1
  O  O164  1  0.61829878  0.70847756  0.45974149  1
  O  O165  1  0.67872013  0.74813080  0.96772566  1
  O  O166  1  0.47674128  0.29884344  0.10736008  1
  O  O167  1  0.47808355  0.24406802  0.64195717  1
  O  O168  1  0.57984936  0.75665915  0.10229648  1
  O  O169  1  0.51066792  0.66289975  0.58949582  1
  O  O170  1  1.01268044  0.27890526  0.05992052  1
  O  O171  1  0.95265650  0.22716308  0.61014748  1
  O  O172  1  0.93995379  0.77582350  0.13606242  1
  O  O173  1  0.95684754  0.74213113  0.64468570  1
  O  O174  1  0.04641540  0.22961151  0.41698278  1
  O  O175  1  0.03006627  0.24019013  0.86457641  1
  O  O176  1  0.00665553  0.73135448  0.28176612  1
  O  O177  1  0.03093653  0.82918213  0.78989309  1
  O  O178  1  0.53568299  0.17280686  0.41195688  1
  O  O179  1  0.51843092  0.26122830  0.85641839  1
  O  O180  1  0.56207895  0.71888266  0.40452304  1
  O  O181  1  0.54337174  0.73215702  0.87518359  1
  O  O182  1  0.21479659  0.12230413  0.55358862  1
  O  O183  1  0.18337245  0.09575455  1.09381223  1
  O  O184  1  0.26886430  0.65944543  0.53729774  1
  O  O185  1  0.14850466  0.68848080  0.96848427  1
  O  O186  1  0.69259363  0.11723476  0.38663817  1
  O  O187  1  0.73810722  0.15438041  0.97389806  1
  O  O188  1  0.75404608  0.57247368  0.49612192  1
  O  O189  1  0.74632807  0.60447903  1.00174737  1
  O  O190  1  0.30218359  0.49691846  0.07972822  1
  O  O191  1  0.21437002  0.34779607  0.54404535  1
  O  O192  1  0.20642469  0.89106680  0.06001940  1
  O  O193  1  0.25091589  0.81799632  0.51029746  1
  O  O194  1  0.74121708  0.35192847  0.01101257  1
  O  O195  1  0.76296528  0.35913254  0.48563490  1
  O  O196  1  0.72974704  0.89477961  0.02612188  1
  O  O197  1  0.70973440  0.88877562  0.53235729  1
  O  O198  1  0.15665205  0.63668826  0.28116111  1
  O  O199  1  0.12917012  0.48696822  0.78250747  1
  O  O200  1  0.27498507  1.09371452  0.22852648  1
  O  O201  1  0.09568985  0.98533683  0.77452095  1
  O  O202  1  0.68069327  0.49913218  0.22508621  1
  O  O203  1  0.65070659  0.46698151  0.71024240  1
  O  O204  1  0.51662044  0.96509093  0.27677908  1
  O  O205  1  0.61213339  0.97055222  0.77288295  1
  O  O206  1  0.38624402  0.12889214  0.33786500  1
  O  O207  1  0.43320373  0.03541715  0.83403885  1
  O  O208  1  0.39749458  0.53746817  0.21660139  1
  O  O209  1  0.36844513  0.57102831  0.81764723  1
  O  O210  1  0.88317118  0.06799092  0.24616091  1
  O  O211  1  0.82141485  0.00197546  0.76437574  1
  O  O212  1  0.88429005  0.46558499  0.25100174  1
  O  O213  1  0.84578393  0.49118838  0.72591733  1
  O  O214  1  0.13707628  0.40082661  0.35805324  1
  O  O215  1  0.12721068  0.33456300  0.82998269  1
  O  O216  1  0.09848734  0.81171916  0.42005196  1
  O  O217  1  0.18933476  0.87867559  0.90393795  1
  O  O218  1  0.64537280  0.31712689  0.37421901  1
  O  O219  1  0.64610610  0.36300326  0.85139591  1
  O  O220  1  0.66619430  0.82805954  0.36542157  1
  O  O221  1  0.64242322  0.84593015  0.86229322  1
  O  O222  1  0.40498529  0.16376212  0.12188144  1
  O  O223  1  0.38323353  0.13804143  0.61704237  1
  O  O224  1  0.43842834  0.64244215  0.10535889  1
  O  O225  1  0.41244462  0.53390357  0.67002742  1
  O  O226  1  0.92116359  0.18684848  0.14997854  1
  O  O227  1  0.85139113  0.09586089  0.60533519  1
  O  O228  1  0.88271086  0.65197319  0.05326353  1
  O  O229  1  0.91671372  0.60069454  0.58884654  1
  O  O230  1  0.29032129  0.22110960  0.14560624  1
  O  O231  1  0.27104430  0.24291551  0.63008873  1
  O  O232  1  0.20219844  0.74449670  0.12512674  1
  O  O233  1  0.27988229  0.80924580  0.66817361  1
  O  O234  1  0.72629585  0.23787857  0.11636018  1
  O  O235  1  0.75941320  0.23409147  0.59699267  1
  O  O236  1  0.76790542  0.74890411  0.11973871  1
  O  O237  1  0.74521590  0.77819931  0.64001951  1
  O  O238  1  0.19717215  0.24389169  0.45322575  1
  O  O239  1  0.24434266  0.24646302  0.85020618  1
  O  O240  1  0.27743392  0.72460224  0.38408063  1
  O  O241  1  0.20685539  0.73289262  0.82958616  1
  O  O242  1  0.63847336  0.26050782  0.32782772  1
  O  O243  1  0.72186696  0.22997273  0.84164529  1
  O  O244  1  0.75596996  0.70333275  0.40004482  1
  O  O245  1  0.74880107  0.73366337  0.82666236  1
  O  O246  1  -0.04247719  0.09453233  0.00787823  1
  O  O247  1  0.02880573  0.08332289  0.50954419  1
  O  O248  1  -0.00565309  0.72250779  -0.07936011  1
  O  O249  1  0.08226819  0.65631731  0.58446655  1
  O  O250  1  0.52297964  0.19573067  0.01866942  1
  O  O251  1  0.48843530  0.11882329  0.52266065  1
  O  O252  1  0.31312220  0.68794407  -0.00700102  1
  O  O253  1  0.51017662  0.57108044  0.45960784  1
  O  O254  1  0.38874031  0.39037278  0.46305709  1
  O  O255  1  0.52412018  0.38531119  0.97548609  1
  O  O256  1  0.54992436  0.92701036  0.49625299  1
  O  O257  1  0.44086961  0.98931706  1.15015378  1
  O  O258  1  1.03249743  0.35080197  0.52706037  1
  O  O259  1  1.01644933  0.38199937  0.93005796  1
  O  O260  1  0.96336168  0.85828065  0.52442661  1
  O  O261  1  0.95368314  0.92037179  1.01297919  1
  O  O262  1  0.41963701  0.50030619  0.37192598  1
  O  O263  1  0.52519612  0.48115259  0.84733684  1
  O  O264  1  0.49179629  1.01163540  0.40734142  1
  O  O265  1  0.46874742  1.03129420  0.98840940  1
  O  O266  1  1.01900733  0.53019837  0.33221464  1
  O  O267  1  0.94521742  0.46464114  0.82656655  1
  O  O268  1  0.85107958  0.94075919  0.43652064  1
  O  O269  1  0.94903831  1.01115318  0.86222474  1
  O  O270  1  0.01907033  -0.00126269  0.12268925  1
  O  O271  1  -0.02270975  -0.04664745  0.66475056  1
  O  O272  1  -0.03568079  0.47836370  0.04522609  1
  O  O273  1  -0.00941369  0.46074245  0.62774525  1
  O  O274  1  0.37245636  0.00097525  0.16758730  1
  O  O275  1  0.50133277  0.02105661  0.65048894  1
  O  O276  1  0.55049292  0.62819252  0.00988721  1
  O  O277  1  0.48435180  0.45345336  0.55353821  1
  O  O278  1  0.22859347  0.41368095  0.20464498  1
  O  O279  1  0.26386282  0.38821456  0.74890844  1
  O  O280  1  0.21131738  0.80984740  0.24901077  1
  O  O281  1  0.35403939  0.92584985  0.74839346  1
  O  O282  1  0.75124186  0.37941790  0.26086783  1
  O  O283  1  0.78152336  0.34441804  0.70629101  1
  O  O284  1  0.76586613  0.93167415  0.27878953  1
  O  O285  1  0.72456883  0.88530063  0.74509994  1
  O  O286  1  0.29900647  0.28533645  0.30951623  1
  O  O287  1  0.31469173  0.09923525  0.74755383  1
  O  O288  1  0.32399766  0.67431483  0.21455368  1
  O  O289  1  0.29827581  0.63432576  0.68877404  1
  O  O290  1  0.68573910  -0.00955362  0.20085784  1
  O  O291  1  0.70300541  0.10605294  0.76107868  1
  O  O292  1  0.79557668  0.59484060  0.22579408  1
  O  O293  1  0.73087519  0.60000756  0.68122754  1
  O  O294  1  0.30121703  -0.03049305  0.37151340  1
  O  O295  1  0.38265438  0.14795868  0.89614511  1
  O  O296  1  0.43995631  0.65310806  0.32057733  1
  O  O297  1  0.22684611  0.58230993  0.86975081  1
  O  O298  1  0.89738338  0.13801027  0.38351210  1
  O  O299  1  0.83280009  0.11103140  0.87147867  1
  O  O300  1  0.86233573  0.61086636  0.38074836  1
  O  O301  1  0.86387937  0.61031284  0.82380177  1
  O  O302  1  0.15635865  0.41743984  0.05862514  1
  O  O303  1  0.14456112  0.37042426  0.66973676  1
  O  O304  1  0.10590752  0.84296902  0.13738715  1
  O  O305  1  0.12603218  0.89059640  0.64859012  1
  O  O306  1  0.62500675  0.38292863  0.12785770  1
  O  O307  1  0.65739705  0.33984645  0.59980094  1
  O  O308  1  0.57838440  0.93421077  0.11398817  1
  O  O309  1  0.61540302  0.87404867  0.65280911  1
  O  O310  1  0.16223487  0.22619687  0.29755543  1
  O  O311  1  0.05548064  0.16480904  0.71832706  1
  O  O312  1  0.03855574  0.63969963  0.11200201  1
  O  O313  1  0.16179592  0.70580103  0.78372150  1
  O  O314  1  0.64275601  0.27942956  0.24823730  1
  O  O315  1  0.60095298  0.25334689  0.74492228  1
  O  O316  1  0.66125259  0.70586058  0.26531468  1
  O  O317  1  0.62489000  0.75308223  0.75321556  1
  O  O318  1  0.40417090  0.28337792  0.21454696  1
  O  O319  1  0.39319689  0.23989529  0.77029915  1
  O  O320  1  0.43774859  0.72647018  0.28523453  1
  O  O321  1  0.39563765  0.78339118  0.85177810  1
  O  O322  1  0.84721206  0.24537278  0.27635501  1
  O  O323  1  0.85469397  0.19216347  0.72229698  1
  O  O324  1  0.85611228  0.78158260  0.27654104  1
  O  O325  1  0.90313163  0.82733958  0.76496617  1
  O  O326  1  0.37939497  0.53203323  0.50421437  1
  O  O327  1  0.42700565  0.51111316  0.96673560  1
  O  O328  1  0.47937614  0.95647762  0.45030354  1
  O  O329  1  0.31939044  1.06467136  1.01857640  1
  O  O330  1  0.91777678  0.47273881  0.47956795  1
  O  O331  1  0.86560227  0.49717037  0.93533971  1
  O  O332  1  0.81390156  0.99993124  0.43694767  1
  O  O333  1  0.83198934  1.01164330  0.98453344  1
  O  O334  1  0.08741257  0.00457700  -0.03024942  1
  O  O335  1  0.13989922  -0.03119901  0.49802538  1
  O  O336  1  0.02954992  0.54606741  -0.07983875  1
  O  O337  1  0.08380947  0.48918687  0.49691429  1
  O  O338  1  0.59029300  -0.00292879  0.08486146  1
  O  O339  1  0.65392506  -0.00363834  0.37536213  1
  O  O340  1  0.64178599  0.49584427  -0.02231401  1
  O  O341  1  0.53042973  0.43006379  0.42631088  1
  O  O342  1  0.33064794  0.34865050  0.10188475  1
  O  O343  1  0.35713649  0.35577384  0.62943249  1
  O  O344  1  0.30688222  0.84092226  0.13860229  1
  O  O345  1  0.42220196  0.87201999  0.61751752  1
  O  O346  1  0.90379183  0.34345494  0.15304527  1
  O  O347  1  0.84387070  0.33941609  0.65222588  1
  O  O348  1  0.84870312  0.93518638  0.11872321  1
  O  O349  1  0.83161963  0.90402334  0.62817382  1
  O  O350  1  0.14613436  0.10181364  0.41714802  1
  O  O351  1  0.13259601  0.13367383  0.86873161  1
  O  O352  1  0.15181081  0.60636353  0.41031793  1
  O  O353  1  0.04002954  0.71069264  0.87043767  1
  O  O354  1  0.66446422  0.05965153  0.42007021  1
  O  O355  1  0.61423987  0.14081699  0.88328951  1
  O  O356  1  0.66482032  0.59226397  0.36518563  1
  O  O357  1  0.64624048  0.62855336  0.88766148  1
