# generated using pymatgen
data_V51Zn51O256
_symmetry_space_group_name_H-M   'P 1'
_cell_length_a   17.40500847
_cell_length_b   17.59471939
_cell_length_c   17.35534505
_cell_angle_alpha   91.24702833
_cell_angle_beta   90.57130359
_cell_angle_gamma   88.88732331
_symmetry_Int_Tables_number   1
_chemical_formula_structural   V51Zn51O256
_chemical_formula_sum   'V51 Zn51 O256'
_cell_volume   5312.33251716
_cell_formula_units_Z   1
loop_
 _symmetry_equiv_pos_site_id
 _symmetry_equiv_pos_as_xyz
  1  'x, y, z'
loop_
 _atom_site_type_symbol
 _atom_site_label
 _atom_site_symmetry_multiplicity
 _atom_site_fract_x
 _atom_site_fract_y
 _atom_site_fract_z
 _atom_site_occupancy
  V  V0  1  0.36876355  0.73466922  0.62556699  1
  V  V1  1  0.65679382  -0.03244544  0.14392584  1
  V  V2  1  0.23671984  0.93952202  0.07431607  1
  V  V3  1  0.84602679  0.58544085  0.25189071  1
  V  V4  1  0.89272870  0.84024982  0.01631833  1
  V  V5  1  0.86652190  0.75171440  0.62911565  1
  V  V6  1  0.48692170  0.27653968  0.25437308  1
  V  V7  1  0.39097018  0.09802493  0.24398049  1
  V  V8  1  0.16880104  0.23504905  0.34946848  1
  V  V9  1  -0.00074017  0.07882727  0.61406795  1
  V  V10  1  0.25367053  0.48162648  0.74197422  1
  V  V11  1  0.63527824  0.13623295  0.02005707  1
  V  V12  1  0.54220632  0.87648738  0.39051358  1
  V  V13  1  0.29941193  0.21610273  -0.00212950  1
  V  V14  1  0.16551715  0.36669281  0.21983527  1
  V  V15  1  0.13729427  0.37623778  0.81076048  1
  V  V16  1  0.76225837  0.37228827  0.63061149  1
  V  V17  1  -0.04981614  0.02974193  0.00087943  1
  V  V18  1  0.11950160  0.73593384  0.87125937  1
  V  V19  1  0.11887500  0.46696965  0.59025907  1
  V  V20  1  0.63070595  0.41126367  0.76535777  1
  V  V21  1  0.37455352  -0.00738673  0.85319957  1
  V  V22  1  0.52675962  0.86412150  0.91314135  1
  V  V23  1  0.80041438  0.33047798  0.11999554  1
  V  V24  1  0.09652341  0.09716933  0.43565178  1
  V  V25  1  0.49069068  0.50062155  0.51383314  1
  V  V26  1  -0.02804431  0.36334301  0.90632517  1
  V  V27  1  0.27627767  0.10448205  0.38464301  1
  V  V28  1  0.01224396  0.75279573  0.73815901  1
  V  V29  1  0.76221496  -0.02390350  0.78442491  1
  V  V30  1  0.74004843  0.74645290  -0.00357896  1
  V  V31  1  0.73536911  0.73616345  0.51103382  1
  V  V32  1  0.21658982  0.10771363  0.84588170  1
  V  V33  1  0.90316991  0.53204356  0.87293757  1
  V  V34  1  0.61244116  0.24057738  0.38217573  1
  V  V35  1  0.40018460  -0.02559470  0.37553177  1
  V  V36  1  0.76790709  0.53022771  0.73596667  1
  V  V37  1  0.07051936  0.02767276  0.12207957  1
  V  V38  1  0.39586973  0.88949392  0.52437100  1
  V  V39  1  -0.00832427  0.88128137  0.88087826  1
  V  V40  1  0.63542828  0.87417042  0.73033795  1
  V  V41  1  0.84265968  0.10160291  0.27523918  1
  V  V42  1  0.02156345  0.51158550  0.02698198  1
  V  V43  1  0.01859900  0.32855525  0.35093815  1
  V  V44  1  0.87542825  0.86235278  0.49980986  1
  V  V45  1  0.27496176  0.64690674  0.87619949  1
  V  V46  1  0.62725503  0.71416149  0.38144207  1
  V  V47  1  0.75677296  0.63714125  0.87304821  1
  V  V48  1  0.76502868  0.84142131  0.14853425  1
  V  V49  1  0.52339929  0.08267656  0.14111914  1
  V  V50  1  0.52236138  0.76429196  0.22768339  1
  Zn  Zn51  1  0.34279888  0.05605595  0.05606024  1
  Zn  Zn52  1  0.45950261  0.51378145  0.72179775  1
  Zn  Zn53  1  0.87609383  0.97569633  0.14376715  1
  Zn  Zn54  1  0.10496555  0.47569744  0.38297542  1
  Zn  Zn55  1  0.84025396  0.59460348  0.57008072  1
  Zn  Zn56  1  0.46665562  0.16726309  0.40611473  1
  Zn  Zn57  1  0.10308958  0.83482245  0.02404934  1
  Zn  Zn58  1  0.93713371  0.46635989  0.67518088  1
  Zn  Zn59  1  0.82629426  0.80564685  0.81567169  1
  Zn  Zn60  1  0.82324528  0.55948890  0.04373171  1
  Zn  Zn61  1  0.56155758  0.80391702  0.56444836  1
  Zn  Zn62  1  0.49503954  0.23532575  0.04962538  1
  Zn  Zn63  1  0.45648452  0.11589191  0.94069807  1
  Zn  Zn64  1  0.92999874  0.18515498  0.37174465  1
  Zn  Zn65  1  0.07263926  0.56641397  0.78081175  1
  Zn  Zn66  1  0.81523097  0.77049631  0.33424983  1
  Zn  Zn67  1  0.70720190  0.93959909  0.96787098  1
  Zn  Zn68  1  0.13229438  0.98235141  0.92955756  1
  Zn  Zn69  1  0.44854212  0.70122740  0.80899832  1
  Zn  Zn70  1  0.43350973  0.86516693  0.72485412  1
  Zn  Zn71  1  0.56727781  0.79967415  0.07684313  1
  Zn  Zn72  1  0.28942490  0.81139975  0.78433991  1
  Zn  Zn73  1  0.45459362  0.70185522  0.45361495  1
  Zn  Zn74  1  0.12921367  0.19947994  0.69611579  1
  Zn  Zn75  1  0.30597004  0.26494698  0.26756668  1
  Zn  Zn76  1  0.58024287  0.32167114  0.58226342  1
  Zn  Zn77  1  0.42865818  0.92399209  0.16845032  1
  Zn  Zn78  1  0.36026142  0.43135732  0.22819479  1
  Zn  Zn79  1  0.67484963  0.68713268  0.18188056  1
  Zn  Zn80  1  0.70718068  0.47582834  0.93383764  1
  Zn  Zn81  1  0.92983662  0.92412396  0.69463515  1
  Zn  Zn82  1  0.66750457  0.39878766  0.47814151  1
  Zn  Zn83  1  0.02442585  0.16562144  0.23588822  1
  Zn  Zn84  1  0.57191502  -0.00270254  0.83865622  1
  Zn  Zn85  1  0.20576152  0.14617051  0.16951903  1
  Zn  Zn86  1  0.16924906  0.39431062  0.01295951  1
  Zn  Zn87  1  0.58588886  0.05119916  0.32304009  1
  Zn  Zn88  1  0.70747979  0.23881862  0.72800574  1
  Zn  Zn89  1  0.04689198  0.87684694  0.57587333  1
  Zn  Zn90  1  0.67023301  0.19727654  0.21269662  1
  Zn  Zn91  1  0.22194552  -0.06109192  0.44291066  1
  Zn  Zn92  1  0.96124413  0.68310410  0.94693029  1
  Zn  Zn93  1  0.10537794  0.28026610  0.52505932  1
  Zn  Zn94  1  0.59746992  0.60293255  0.78524970  1
  Zn  Zn95  1  0.84576940  0.36730691  0.77948377  1
  Zn  Zn96  1  0.13974557  0.61676023  -0.01118111  1
  Zn  Zn97  1  0.31208925  0.54040639  0.60641630  1
  Zn  Zn98  1  0.82057403  0.04665135  0.57100403  1
  Zn  Zn99  1  0.03416161  0.45978031  0.22648375  1
  Zn  Zn100  1  0.74025807  0.91729767  0.44093042  1
  Zn  Zn101  1  0.87061939  0.21699987  0.98869768  1
  O  O102  1  0.09637820  0.11761589  0.17150862  1
  O  O103  1  0.04567276  0.10814705  0.52886860  1
  O  O104  1  0.06975434  0.69760882  0.21400077  1
  O  O105  1  0.18188074  0.66712633  0.50770082  1
  O  O106  1  0.61760056  0.13136794  0.13339445  1
  O  O107  1  0.63578303  0.17787064  0.65814378  1
  O  O108  1  0.61910601  0.56039957  0.13449331  1
  O  O109  1  0.60126566  0.71467504  0.73224322  1
  O  O110  1  0.31857413  0.30070011  0.51528418  1
  O  O111  1  0.38890483  0.44931100  0.92705500  1
  O  O112  1  0.39979189  0.87987429  0.37103635  1
  O  O113  1  0.35875509  0.90038395  0.80800491  1
  O  O114  1  0.92810577  0.29476771  0.34585579  1
  O  O115  1  0.88580604  0.41101893  0.87758674  1
  O  O116  1  0.84234527  0.85447533  0.39971347  1
  O  O117  1  0.89267746  0.85105589  0.90531303  1
  O  O118  1  0.29176348  -0.00333508  0.37090103  1
  O  O119  1  0.27233140  0.02398184  0.83710006  1
  O  O120  1  0.29251294  0.56508536  0.39608044  1
  O  O121  1  0.27354546  0.53897802  0.83558265  1
  O  O122  1  0.69321699  0.02185707  0.41099051  1
  O  O123  1  0.75404677  -0.00804924  0.88059727  1
  O  O124  1  0.88740068  0.45814120  0.46077191  1
  O  O125  1  0.78272245  0.53092211  0.87257102  1
  O  O126  1  0.26253605  0.55134948  0.17406297  1
  O  O127  1  0.21165526  0.50124877  0.63820101  1
  O  O128  1  0.18524129  1.01900122  0.11155091  1
  O  O129  1  0.25598027  1.02971546  0.62945107  1
  O  O130  1  0.61439474  0.51245854  0.18492606  1
  O  O131  1  0.78954305  0.52799889  0.64003376  1
  O  O132  1  0.75924441  0.94971885  0.14751055  1
  O  O133  1  0.75330689  1.03024448  0.67183594  1
  O  O134  1  0.06537299  0.34199972  0.23528133  1
  O  O135  1  0.03189823  0.37133195  0.82489708  1
  O  O136  1  -0.00984992  0.87097407  0.32097234  1
  O  O137  1  -0.00559043  0.87806973  0.78217492  1
  O  O138  1  0.44897601  0.36768577  0.25496622  1
  O  O139  1  0.53603707  0.43613454  0.74569127  1
  O  O140  1  0.53336375  0.85038037  0.29162291  1
  O  O141  1  0.53952569  0.87119055  0.75647762  1
  O  O142  1  0.51017396  0.10715009  0.24272195  1
  O  O143  1  0.57976761  0.14328929  0.70154447  1
  O  O144  1  0.46197969  0.70419635  0.26128820  1
  O  O145  1  0.49070355  0.60434551  0.77670183  1
  O  O146  1  0.91732442  0.16308519  0.24666053  1
  O  O147  1  1.03979122  0.12966886  0.68765982  1
  O  O148  1  0.94189553  0.55908514  0.24942467  1
  O  O149  1  1.02498045  0.65628174  0.73451708  1
  O  O150  1  0.40281320  0.21540268  -0.01457673  1
  O  O151  1  0.38374263  0.17643219  0.61938959  1
  O  O152  1  0.38903612  0.68009614  0.05980491  1
  O  O153  1  0.39680818  0.77352737  0.52191215  1
  O  O154  1  0.79633608  0.30560067  0.01394271  1
  O  O155  1  0.87563083  0.23683835  0.49324592  1
  O  O156  1  0.88836814  0.74352282  0.01486659  1
  O  O157  1  0.86803233  0.75780892  0.51745315  1
  O  O158  1  0.13509288  0.19862628  0.44513252  1
  O  O159  1  0.07766100  0.24756711  1.05438208  1
  O  O160  1  0.13592568  0.83913052  0.49727649  1
  O  O161  1  0.12915357  0.73811483  0.97472309  1
  O  O162  1  0.60837146  0.30302938  0.47144845  1
  O  O163  1  0.59667195  0.22655626  1.00309202  1
  O  O164  1  0.63494122  0.72994996  0.51315032  1
  O  O165  1  0.64513573  0.75287013  0.99118761  1
  O  O166  1  0.50200652  0.25931521  0.15562609  1
  O  O167  1  0.49202286  0.26755225  0.62405560  1
  O  O168  1  0.57423805  0.71468772  0.14477902  1
  O  O169  1  0.47984431  0.74936988  0.61412220  1
  O  O170  1  0.86437858  0.40255691  0.10317561  1
  O  O171  1  0.90388011  0.28684252  0.53447012  1
  O  O172  1  1.06109792  0.73980858  0.27079227  1
  O  O173  1  1.02644373  0.78787021  0.64830535  1
  O  O174  1  0.06401492  0.23053463  0.31770253  1
  O  O175  1  -0.05478741  0.27405634  0.92741483  1
  O  O176  1  0.11626652  0.82375118  0.42277670  1
  O  O177  1  0.01061799  0.75440055  0.87299425  1
  O  O178  1  0.49212813  0.26431393  0.36221307  1
  O  O179  1  0.54855875  0.10516706  0.87505276  1
  O  O180  1  0.53359287  0.75914382  0.40389002  1
  O  O181  1  0.49966935  0.77857192  0.87189873  1
  O  O182  1  0.27353824  0.11035140  0.47777759  1
  O  O183  1  0.25903579  0.18017113  0.91043896  1
  O  O184  1  0.32117439  0.62785522  0.41927575  1
  O  O185  1  0.24869594  0.62498553  0.96795740  1
  O  O186  1  0.71859274  0.08652513  0.44709974  1
  O  O187  1  0.72886645  0.14377748  1.01235121  1
  O  O188  1  0.76602157  0.64006234  0.50759680  1
  O  O189  1  0.76995254  0.64458402  0.98829951  1
  O  O190  1  0.26432827  0.30277236  0.01813190  1
  O  O191  1  0.32735100  0.31850182  0.58354722  1
  O  O192  1  0.23219058  0.95164747  -0.02305426  1
  O  O193  1  0.29862972  0.88859576  0.50556942  1
  O  O194  1  0.73600171  0.49844579  0.03276671  1
  O  O195  1  0.76180275  0.39841441  0.53453377  1
  O  O196  1  0.77163100  0.84845996  0.00639822  1
  O  O197  1  0.74662235  0.83663573  0.51990401  1
  O  O198  1  0.14852067  0.45806414  0.26669780  1
  O  O199  1  0.13907073  0.47602271  0.77045849  1
  O  O200  1  0.06194705  0.95105857  0.17219127  1
  O  O201  1  0.17818358  0.86603217  0.67474417  1
  O  O202  1  0.46142051  0.50983803  0.18832146  1
  O  O203  1  0.66409161  0.52736511  0.73739336  1
  O  O204  1  0.64297933  1.00659881  0.23492812  1
  O  O205  1  0.64513589  0.97621432  0.75683265  1
  O  O206  1  0.40408022  -0.00502701  0.25893829  1
  O  O207  1  0.31506445  0.04433452  0.66443275  1
  O  O208  1  0.30475395  0.53533530  0.24020594  1
  O  O209  1  0.34959831  0.48979863  0.70479017  1
  O  O210  1  0.86870034  0.00993864  0.24730381  1
  O  O211  1  0.85838871  -0.03315763  0.76696285  1
  O  O212  1  0.81309264  0.49446531  0.25705135  1
  O  O213  1  0.87774372  0.51092467  0.76441025  1
  O  O214  1  0.16652800  0.32938031  0.36767462  1
  O  O215  1  0.16614427  0.36708857  0.90459301  1
  O  O216  1  0.16490851  0.85166084  0.37348261  1
  O  O217  1  0.09348119  0.87801580  0.91080062  1
  O  O218  1  0.67124167  0.41278156  0.36035502  1
  O  O219  1  0.64021994  0.43619326  0.86362369  1
  O  O220  1  0.63765147  0.88209785  0.40264836  1
  O  O221  1  0.62187623  0.89594175  0.90251719  1
  O  O222  1  0.41335391  0.09224335  0.13950297  1
  O  O223  1  0.40429650  0.14632762  0.55632462  1
  O  O224  1  0.34839242  0.69655926  0.11497996  1
  O  O225  1  0.34674975  0.64120401  0.61134741  1
  O  O226  1  0.86847767  0.24715665  0.10143307  1
  O  O227  1  0.90309322  0.10529821  0.60787294  1
  O  O228  1  0.85483988  0.59086051  0.14646163  1
  O  O229  1  0.91101256  0.66202859  0.61835527  1
  O  O230  1  0.27327034  0.15253830  0.07161664  1
  O  O231  1  0.15556598  0.21795924  0.59470839  1
  O  O232  1  0.28449177  0.72797135  0.26843525  1
  O  O233  1  0.28579667  0.78057882  0.62173142  1
  O  O234  1  0.72929641  0.26362236  0.14628695  1
  O  O235  1  0.76061752  0.27604612  0.63391728  1
  O  O236  1  0.74608696  0.74458455  0.10821390  1
  O  O237  1  0.77033715  0.73661180  0.62861690  1
  O  O238  1  0.27451851  0.21286773  0.36550139  1
  O  O239  1  0.07966933  0.20315482  0.99853375  1
  O  O240  1  0.16318115  0.69179493  0.36023962  1
  O  O241  1  0.23461452  0.74257187  0.85311999  1
  O  O242  1  0.70563596  0.23382238  0.37198619  1
  O  O243  1  0.72834707  0.18492336  0.84420082  1
  O  O244  1  0.73064583  0.73675348  0.39975947  1
  O  O245  1  0.76794153  0.74246348  0.88707106  1
  O  O246  1  -0.08821725  0.11489004  -0.02408301  1
  O  O247  1  0.01798338  0.10201360  0.37749058  1
  O  O248  1  0.02720030  0.61511996  0.01141378  1
  O  O249  1  0.11289129  0.66387485  0.51946225  1
  O  O250  1  0.51374536  0.11100724  0.03999362  1
  O  O251  1  0.46474787  0.18000247  0.52024418  1
  O  O252  1  0.53502324  0.60777682  0.00907802  1
  O  O253  1  0.48876085  0.59727755  0.48722506  1
  O  O254  1  0.50091423  0.40650440  0.55158443  1
  O  O255  1  0.44110292  0.40810692  0.95123687  1
  O  O256  1  0.50452959  0.87465636  0.49167620  1
  O  O257  1  0.50889493  0.86043755  1.00934615  1
  O  O258  1  1.03679615  0.32479823  0.44904306  1
  O  O259  1  1.01272882  0.40681427  0.98765936  1
  O  O260  1  0.97195146  0.87388553  0.49089112  1
  O  O261  1  0.99119606  0.85527656  1.02142874  1
  O  O262  1  0.46544910  0.47052756  0.42015297  1
  O  O263  1  0.49606337  0.56450663  0.96948474  1
  O  O264  1  0.51388612  0.97865472  0.37270197  1
  O  O265  1  0.47737369  0.95027988  0.88529285  1
  O  O266  1  1.00984058  0.43202162  0.33725895  1
  O  O267  1  0.99923265  0.52667585  0.85720037  1
  O  O268  1  1.00818480  0.93725337  0.32701074  1
  O  O269  1  0.97330193  0.97774136  0.90572905  1
  O  O270  1  -0.03497587  0.05116162  0.10922735  1
  O  O271  1  0.00185605  -0.02239997  0.62801508  1
  O  O272  1  0.01669774  0.49731451  0.12290283  1
  O  O273  1  0.03254431  0.49671112  0.63628486  1
  O  O274  1  0.53137910  -0.01521935  0.13569717  1
  O  O275  1  0.52369265  0.11650023  0.66388366  1
  O  O276  1  0.45103762  0.55956247  0.13972930  1
  O  O277  1  0.49712646  0.53617450  0.61282976  1
  O  O278  1  0.27432508  0.36558932  0.24012132  1
  O  O279  1  0.25346698  0.39216088  0.77281682  1
  O  O280  1  0.23860085  0.75757141  0.22408302  1
  O  O281  1  0.22222986  0.89283950  0.73216567  1
  O  O282  1  0.66288736  0.48224454  0.34331099  1
  O  O283  1  0.74886197  0.41834942  0.74285746  1
  O  O284  1  0.77047424  0.82042573  0.24157493  1
  O  O285  1  0.74240156  0.87120501  0.76876497  1
  O  O286  1  0.29337248  0.10612476  0.23329591  1
  O  O287  1  0.20418817  0.14291007  0.75756071  1
  O  O288  1  0.20961550  0.60152065  0.18145766  1
  O  O289  1  0.25106401  0.59723831  0.77690007  1
  O  O290  1  0.75420107  0.13136395  0.23946082  1
  O  O291  1  0.75609018  0.07716381  0.73496715  1
  O  O292  1  0.75016479  0.61714832  0.22319389  1
  O  O293  1  0.77080203  0.63035585  0.76824589  1
  O  O294  1  0.38965882  0.10091375  0.35983233  1
  O  O295  1  0.41703198  0.04965226  0.79443118  1
  O  O296  1  0.37827791  0.65755549  0.37656015  1
  O  O297  1  0.36877692  0.66235893  0.88247166  1
  O  O298  1  0.84737022  0.11273921  0.37451919  1
  O  O299  1  0.79554344  0.21498144  0.85325596  1
  O  O300  1  0.83499528  0.59118989  0.35217079  1
  O  O301  1  0.88559626  0.63108606  0.87751854  1
  O  O302  1  0.16404323  0.38234923  0.12346197  1
  O  O303  1  0.12272174  0.37220707  0.59349390  1
  O  O304  1  0.18645177  0.85865012  0.09315916  1
  O  O305  1  0.14647546  0.91936011  0.63233280  1
  O  O306  1  0.55294773  0.39839011  0.08490019  1
  O  O307  1  0.65342771  0.38561223  0.64047818  1
  O  O308  1  0.64999273  0.86584625  0.13413185  1
  O  O309  1  0.63271213  0.86165161  0.63430988  1
  O  O310  1  0.19192352  0.24418658  0.23746813  1
  O  O311  1  0.14084336  0.29439870  0.75876249  1
  O  O312  1  0.15535436  0.62203967  0.34214927  1
  O  O313  1  0.10944855  0.77580513  0.77677191  1
  O  O314  1  0.59831031  0.26346809  0.27348236  1
  O  O315  1  0.63445229  0.31325754  0.77127800  1
  O  O316  1  0.62602039  0.73219898  0.27968042  1
  O  O317  1  0.64975533  0.76150879  0.76228905  1
  O  O318  1  0.40099651  0.21041878  0.25155457  1
  O  O319  1  0.47583210  0.29702868  0.69745126  1
  O  O320  1  0.46945331  0.82298194  0.16054212  1
  O  O321  1  0.38286830  0.75983345  0.73402934  1
  O  O322  1  0.82819859  0.33636464  0.21483028  1
  O  O323  1  0.81538067  0.25581551  0.78321285  1
  O  O324  1  0.86582313  0.68796145  0.27170962  1
  O  O325  1  0.90032970  0.76537923  0.73810408  1
  O  O326  1  0.38895220  0.49587628  0.53262753  1
  O  O327  1  0.37554069  0.51312674  1.07160950  1
  O  O328  1  0.40588756  0.98593810  0.47842938  1
  O  O329  1  0.37490566  1.04328584  0.94965998  1
  O  O330  1  0.91399727  0.50647534  0.50701513  1
  O  O331  1  0.91335543  0.52329381  0.98472195  1
  O  O332  1  0.82953678  0.95819198  0.50814867  1
  O  O333  1  0.87754312  0.96637209  1.02476753  1
  O  O334  1  0.06153019  0.01591722  0.01603313  1
  O  O335  1  0.13351463  0.00649319  0.45145652  1
  O  O336  1  0.12330421  0.50216881  0.00802807  1
  O  O337  1  0.12126905  0.48856980  0.49392720  1
  O  O338  1  0.65822139  0.00784735  0.04999575  1
  O  O339  1  0.71843096  0.08635097  0.52329037  1
  O  O340  1  0.56836553  0.44559072  0.03648121  1
  O  O341  1  0.59065949  0.48920546  0.49625715  1
  O  O342  1  0.36965310  0.44809103  0.09876360  1
  O  O343  1  0.40763629  0.29213637  0.71941555  1
  O  O344  1  0.33552646  0.95061707  0.10334342  1
  O  O345  1  0.40761041  0.90357331  0.62067848  1
  O  O346  1  0.72219330  0.39136902  0.11334889  1
  O  O347  1  0.86777446  0.38177245  0.66616681  1
  O  O348  1  0.86741511  0.85300577  0.12386482  1
  O  O349  1  0.88203552  0.85733589  0.61662419  1
  O  O350  1  0.17659575  0.10680395  0.35015381  1
  O  O351  1  0.13083400  0.07897219  0.88023852  1
  O  O352  1  0.08638504  0.59115810  0.36204814  1
  O  O353  1  0.12290634  0.63776533  0.86165724  1
  O  O354  1  0.58160538  0.14333205  0.39266008  1
  O  O355  1  0.61786739  0.09208886  0.91955038  1
  O  O356  1  0.61832225  0.62285362  0.38378037  1
  O  O357  1  0.66012393  0.62636218  0.87652054  1
