# generated using pymatgen
data_V51Zn51O256
_symmetry_space_group_name_H-M   'P 1'
_cell_length_a   17.55170789
_cell_length_b   17.49427430
_cell_length_c   17.79484901
_cell_angle_alpha   89.38107413
_cell_angle_beta   89.52503739
_cell_angle_gamma   92.12348761
_symmetry_Int_Tables_number   1
_chemical_formula_structural   V51Zn51O256
_chemical_formula_sum   'V51 Zn51 O256'
_cell_volume   5459.70933383
_cell_formula_units_Z   1
loop_
 _symmetry_equiv_pos_site_id
 _symmetry_equiv_pos_as_xyz
  1  'x, y, z'
loop_
 _atom_site_type_symbol
 _atom_site_label
 _atom_site_symmetry_multiplicity
 _atom_site_fract_x
 _atom_site_fract_y
 _atom_site_fract_z
 _atom_site_occupancy
  V  V0  1  0.86497900  0.84161900  0.51546908  1
  V  V1  1  0.86202396  0.68939359  0.63036977  1
  V  V2  1  0.23443742  0.38607959  0.62396639  1
  V  V3  1  0.28675473  0.75342243  0.02250648  1
  V  V4  1  0.08054600  0.67557986  0.03769724  1
  V  V5  1  0.39299941  0.86495064  0.56075408  1
  V  V6  1  0.36817927  0.26695847  0.62888295  1
  V  V7  1  -0.01558735  0.38782981  0.34321334  1
  V  V8  1  -0.02359652  0.47231335  0.02820376  1
  V  V9  1  0.88101555  0.28420562  0.62360560  1
  V  V10  1  0.01108548  0.50532171  0.49346271  1
  V  V11  1  0.54390044  0.57578679  0.60144921  1
  V  V12  1  0.87695125  0.12416023  0.72719967  1
  V  V13  1  0.90582564  0.20210438  0.09770221  1
  V  V14  1  0.44678813  0.13921331  0.27252121  1
  V  V15  1  0.49118002  0.02149483  -0.07776424  1
  V  V16  1  0.12003291  0.40714045  0.81355948  1
  V  V17  1  0.61872550  0.87298227  0.29940008  1
  V  V18  1  0.64532534  0.01196904  0.58836166  1
  V  V19  1  0.46676685  0.46799874  0.47275554  1
  V  V20  1  0.38518493  0.25463868  0.09304978  1
  V  V21  1  0.36129687  0.79369284  0.18578900  1
  V  V22  1  -0.02910002  0.06558127  0.49730126  1
  V  V23  1  0.69324775  0.76372208  0.44814547  1
  V  V24  1  0.63412378  -0.03672006  0.04928109  1
  V  V25  1  0.13954208  0.34417865  0.22094922  1
  V  V26  1  0.90394309  -0.04762669  0.87124656  1
  V  V27  1  0.75468471  0.61122118  0.88893224  1
  V  V28  1  0.01071648  0.25158537  0.75807274  1
  V  V29  1  0.64640171  0.42050830  0.09712485  1
  V  V30  1  -0.00100362  0.85947651  0.37583331  1
  V  V31  1  0.63883621  0.18363695  0.53242499  1
  V  V32  1  0.31840260  0.62526699  0.28734065  1
  V  V33  1  0.13021398  0.11895141  0.00705419  1
  V  V34  1  0.55085429  0.30346827  0.45147092  1
  V  V35  1  0.77681186  0.14616103  0.86742819  1
  V  V36  1  0.07289676  0.15968596  0.29042916  1
  V  V37  1  0.33427264  -0.00994815  0.83654687  1
  V  V38  1  0.01804520  -0.01300571  0.01824197  1
  V  V39  1  0.50578120  0.25831022  0.75586748  1
  V  V40  1  0.47214649  0.64297362  0.15991417  1
  V  V41  1  0.30078330  0.61919442  0.88517903  1
  V  V42  1  0.69139465  0.57040053  0.45816204  1
  V  V43  1  0.35915577  0.14155480  0.74695236  1
  V  V44  1  0.85501359  0.36843921  0.47575566  1
  V  V45  1  0.17371511  0.15983678  0.46747484  1
  V  V46  1  0.64133275  0.88293247  0.74880010  1
  V  V47  1  0.20859609  0.14395672  0.84160221  1
  V  V48  1  0.15872790  0.02360364  0.58315203  1
  V  V49  1  0.14824278  0.51917337  0.12110300  1
  V  V50  1  0.76099879  0.39955585  0.67223805  1
  Zn  Zn51  1  0.69774935  0.20630604  0.70791467  1
  Zn  Zn52  1  0.70268768  0.39815057  0.36552377  1
  Zn  Zn53  1  0.70868676  0.98577504  0.89666127  1
  Zn  Zn54  1  1.01532736  0.23820919  0.43542807  1
  Zn  Zn55  1  0.83787131  0.97539305  0.60365755  1
  Zn  Zn56  1  0.56882358  0.35447885  0.61877327  1
  Zn  Zn57  1  0.35356114  0.07043270  0.56335274  1
  Zn  Zn58  1  0.29461344  0.82858525  0.88199304  1
  Zn  Zn59  1  0.99737381  0.71291098  0.48046347  1
  Zn  Zn60  1  0.83722716  0.33067104  0.22604342  1
  Zn  Zn61  1  0.98566083  0.98565269  0.21826520  1
  Zn  Zn62  1  0.35225400  0.52211321  0.58780971  1
  Zn  Zn63  1  0.44379568  0.96861693  0.19438761  1
  Zn  Zn64  1  0.85199825  0.52364846  0.56788592  1
  Zn  Zn65  1  0.19386269  0.21655730  0.14739651  1
  Zn  Zn66  1  0.19022107  0.69951639  0.18194569  1
  Zn  Zn67  1  0.95482879  0.61435818  0.92446712  1
  Zn  Zn68  1  0.33172088  0.11058840  -0.03840608  1
  Zn  Zn69  1  0.46957400  0.58553405  0.97980049  1
  Zn  Zn70  1  0.95495377  0.15904439  0.92285825  1
  Zn  Zn71  1  0.12832770  0.36567145  0.46740840  1
  Zn  Zn72  1  0.23510762  0.51203669  0.75563052  1
  Zn  Zn73  1  0.32344935  0.78178682  0.38697601  1
  Zn  Zn74  1  0.18057052  0.19042252  0.66467780  1
  Zn  Zn75  1  0.99588981  0.42275379  0.16811925  1
  Zn  Zn76  1  0.41042557  0.64733929  0.46454386  1
  Zn  Zn77  1  0.56793474  0.78766249  0.13901475  1
  Zn  Zn78  1  0.52198419  0.30845559  -0.05713004  1
  Zn  Zn79  1  0.43416123  0.48039654  0.27563896  1
  Zn  Zn80  1  1.03321223  0.40225263  0.65301722  1
  Zn  Zn81  1  0.54287028  0.75890367  0.54304395  1
  Zn  Zn82  1  0.82540158  0.04003589  0.02428995  1
  Zn  Zn83  1  0.37604099  0.20688193  0.43821618  1
  Zn  Zn84  1  0.81631742  0.30250676  0.79449879  1
  Zn  Zn85  1  0.71195299  0.58208606  0.68336627  1
  Zn  Zn86  1  0.13264773  0.86209515  -0.00691140  1
  Zn  Zn87  1  0.84765802  0.78434297  0.79427401  1
  Zn  Zn88  1  0.04896749  0.05755170  0.75666433  1
  Zn  Zn89  1  0.45933670  0.90513544  0.76026434  1
  Zn  Zn90  1  0.51545719  0.10126991  0.44284342  1
  Zn  Zn91  1  0.12842930  0.53721212  0.92560431  1
  Zn  Zn92  1  0.60801389  0.47480552  0.92699849  1
  Zn  Zn93  1  0.04623242  0.27928019  0.05731525  1
  Zn  Zn94  1  0.02711704  0.89885014  0.56701624  1
  Zn  Zn95  1  0.15008137  0.84998064  0.47474401  1
  Zn  Zn96  1  0.43786469  0.43085394  0.69915419  1
  Zn  Zn97  1  0.80557678  0.13163250  0.54818576  1
  Zn  Zn98  1  0.32135168  0.58949340  0.10365597  1
  Zn  Zn99  1  0.79250110  0.52025998  0.06118725  1
  Zn  Zn100  1  0.09614817  0.01427990  0.39270507  1
  Zn  Zn101  1  0.26591007  0.29972694  0.77557226  1
  O  O102  1  0.16332371  0.12576647  0.09773353  1
  O  O103  1  0.16581890  0.14757671  0.56780771  1
  O  O104  1  0.12364864  0.62380145  0.12397241  1
  O  O105  1  0.13793759  0.65039735  0.60139079  1
  O  O106  1  0.63355132  0.02302227  0.11933197  1
  O  O107  1  0.64532204  0.15422275  0.62594982  1
  O  O108  1  0.56099562  0.67191077  0.12834837  1
  O  O109  1  0.62307597  0.55710189  0.53091456  1
  O  O110  1  0.31588498  0.36108685  0.38276441  1
  O  O111  1  0.51232333  0.53152205  0.79572311  1
  O  O112  1  0.38929455  0.85080491  0.46056239  1
  O  O113  1  0.36106233  0.88986895  0.82096177  1
  O  O114  1  0.88638987  0.35043193  0.38330367  1
  O  O115  1  0.89294567  0.34713821  0.89654901  1
  O  O116  1  0.91587134  0.88238852  0.43583300  1
  O  O117  1  0.89790830  0.85366464  0.85794479  1
  O  O118  1  0.33031825  -0.03182344  0.33930973  1
  O  O119  1  0.24183355  -0.02203388  0.84956426  1
  O  O120  1  0.26457259  0.40598359  0.37847707  1
  O  O121  1  0.24062367  0.55145170  0.92559570  1
  O  O122  1  0.78679948  -0.00728750  0.39335787  1
  O  O123  1  0.81602202  -0.01750754  0.84856112  1
  O  O124  1  0.75278299  0.36303912  0.27859870  1
  O  O125  1  0.70718483  0.51783328  0.89001136  1
  O  O126  1  0.24377570  0.51780772  0.13764195  1
  O  O127  1  0.27016292  0.48361657  0.65355058  1
  O  O128  1  0.24828784  1.01158150  0.15933208  1
  O  O129  1  0.25537508  1.02620794  0.59507886  1
  O  O130  1  0.68112192  0.52487233  0.07506310  1
  O  O131  1  0.77340416  0.50025181  0.64601208  1
  O  O132  1  0.73027878  0.97372147  0.00757135  1
  O  O133  1  0.74243210  1.03907678  0.58848055  1
  O  O134  1  -0.06571344  0.38484738  0.24894175  1
  O  O135  1  0.03686072  0.36689264  0.76157500  1
  O  O136  1  -0.01867226  0.89775123  0.28853145  1
  O  O137  1  0.10493260  0.86682276  0.73387438  1
  O  O138  1  0.45617863  0.38381398  0.24157823  1
  O  O139  1  0.51574966  0.35881196  0.71725491  1
  O  O140  1  0.52781840  0.92420291  0.25773719  1
  O  O141  1  0.54868018  0.84698141  0.74608855  1
  O  O142  1  0.51028504  0.10270513  0.33224122  1
  O  O143  1  0.45774531  0.15460944  0.75668069  1
  O  O144  1  0.52615954  0.70097422  0.30383983  1
  O  O145  1  0.60516918  0.55900558  0.67443866  1
  O  O146  1  0.86719591  0.08356183  0.26924007  1
  O  O147  1  0.98116317  0.14665314  0.72659678  1
  O  O148  1  0.95184231  0.70534522  0.22209225  1
  O  O149  1  1.00705529  0.63454389  0.77762325  1
  O  O150  1  0.30856190  0.26991007  0.02756182  1
  O  O151  1  0.35353648  0.26247128  0.53611514  1
  O  O152  1  0.37859965  0.77296378  0.02407284  1
  O  O153  1  0.38687308  0.76156846  0.56759374  1
  O  O154  1  0.93371689  0.23085010  0.00477391  1
  O  O155  1  0.86849202  0.27437422  0.52051360  1
  O  O156  1  0.86097025  0.73679413  0.08815997  1
  O  O157  1  0.89305058  0.74278740  0.54353265  1
  O  O158  1  0.13338547  0.25149153  0.45425353  1
  O  O159  1  0.10591128  0.21305813  0.99386796  1
  O  O160  1  0.10878715  0.71201713  0.57455441  1
  O  O161  1  0.10646531  0.76906083  1.05499155  1
  O  O162  1  0.60838160  0.28245284  0.54597772  1
  O  O163  1  0.60587726  0.25420483  0.96360070  1
  O  O164  1  0.65211462  0.76896520  0.53465147  1
  O  O165  1  0.72325324  0.76237107  1.05594039  1
  O  O166  1  0.45897854  0.27930598  0.02764004  1
  O  O167  1  0.46497852  0.25435910  0.64059557  1
  O  O168  1  0.45671848  0.75561189  0.17166574  1
  O  O169  1  0.52764027  0.66985970  0.60895705  1
  O  O170  1  0.99294813  0.21280078  0.14162539  1
  O  O171  1  0.97745010  0.30778932  0.62092832  1
  O  O172  1  0.88001642  0.78906393  0.04517073  1
  O  O173  1  1.04738188  0.66149631  0.72397961  1
  O  O174  1  -0.00160265  0.20397855  0.33067514  1
  O  O175  1  0.01351573  0.23366956  0.85014870  1
  O  O176  1  -0.00507381  0.76275589  0.36915962  1
  O  O177  1  0.00207311  0.68010468  0.84138599  1
  O  O178  1  0.45959164  0.28776631  0.42223220  1
  O  O179  1  0.48678712  0.27940357  0.84731420  1
  O  O180  1  0.48101349  0.73302542  0.45957605  1
  O  O181  1  0.59320781  0.72817099  0.96981612  1
  O  O182  1  0.26530179  0.17243126  0.44480318  1
  O  O183  1  0.21789200  0.11404508  0.95000082  1
  O  O184  1  0.25125783  0.57752843  0.47882534  1
  O  O185  1  0.26671659  0.65757013  1.04029604  1
  O  O186  1  0.72947456  0.18689859  0.49649328  1
  O  O187  1  0.81124598  0.12824739  0.95653249  1
  O  O188  1  0.77995966  0.56711561  0.49389462  1
  O  O189  1  0.78321399  0.60374994  0.98851879  1
  O  O190  1  0.35489523  0.39836229  -0.10429948  1
  O  O191  1  0.22187488  0.38033117  0.52997786  1
  O  O192  1  0.23618358  0.83700848  -0.02253882  1
  O  O193  1  0.29900783  0.85692151  0.58670243  1
  O  O194  1  0.66443036  0.40630627  -0.00887029  1
  O  O195  1  0.76237272  0.38133627  0.46205062  1
  O  O196  1  0.74705273  0.80934619  0.00924959  1
  O  O197  1  0.78780378  0.88833835  0.54628518  1
  O  O198  1  0.10874106  0.44696017  0.18544179  1
  O  O199  1  0.12668067  0.50879180  0.81097199  1
  O  O200  1  0.28188131  0.99877409  0.37808216  1
  O  O201  1  0.11710543  1.03915210  0.67128523  1
  O  O202  1  0.55246552  0.64812055  0.33951709  1
  O  O203  1  0.61347457  0.41883530  0.81923809  1
  O  O204  1  0.53020812  0.92606586  0.33619025  1
  O  O205  1  0.64698151  0.96027760  0.68430357  1
  O  O206  1  0.40852162  0.06425020  0.22174226  1
  O  O207  1  0.35892509  0.03225133  0.74655628  1
  O  O208  1  0.33704726  0.53104358  0.29289906  1
  O  O209  1  0.44377485  0.49249083  0.79831328  1
  O  O210  1  0.86996991  0.01505314  0.23601834  1
  O  O211  1  0.87208727  0.03409448  0.69436183  1
  O  O212  1  0.83309825  0.55684893  0.21664264  1
  O  O213  1  0.93839922  0.40047194  0.88259648  1
  O  O214  1  0.07411301  0.35993020  0.29995787  1
  O  O215  1  0.10292124  0.38324886  0.90099217  1
  O  O216  1  0.09389092  0.90465620  0.38976075  1
  O  O217  1  0.08116442  0.80808397  0.76553943  1
  O  O218  1  0.60366938  0.34386534  0.38051072  1
  O  O219  1  0.65446796  0.36352334  0.83006794  1
  O  O220  1  0.63921733  0.82121938  0.38791790  1
  O  O221  1  0.65687469  0.90854631  0.83915717  1
  O  O222  1  0.38097478  0.15835141  0.04492551  1
  O  O223  1  0.34782579  0.15191238  0.64398826  1
  O  O224  1  0.35891512  0.65788728  0.19808759  1
  O  O225  1  0.32106921  0.61278494  0.52761970  1
  O  O226  1  0.87050459  0.10683590  0.10045665  1
  O  O227  1  0.86521176  0.17722859  0.63139381  1
  O  O228  1  0.83586587  0.58382375  0.15099914  1
  O  O229  1  0.90501914  0.60408755  0.62709953  1
  O  O230  1  0.30497586  0.22407574  0.15484218  1
  O  O231  1  0.24743540  0.28574625  0.65840864  1
  O  O232  1  0.27119784  0.77118390  0.13325396  1
  O  O233  1  0.19868420  0.65835152  0.64049367  1
  O  O234  1  0.64185664  0.32337219  0.09433103  1
  O  O235  1  0.77499596  0.28737914  0.67262636  1
  O  O236  1  0.77854119  0.81482833  0.19224535  1
  O  O237  1  0.76583456  0.67055159  0.63869619  1
  O  O238  1  0.12872633  0.12513582  0.36650363  1
  O  O239  1  0.20392871  0.23988546  0.85147053  1
  O  O240  1  0.23617615  0.80146921  0.44231437  1
  O  O241  1  0.28524318  0.72004797  0.90660067  1
  O  O242  1  0.59496453  0.20258535  0.23555178  1
  O  O243  1  0.75789727  0.24344881  0.86526474  1
  O  O244  1  0.78884601  0.78616078  0.44908292  1
  O  O245  1  0.79977818  0.70334656  0.85918620  1
  O  O246  1  0.02458323  0.08925110  -0.02061241  1
  O  O247  1  -0.00378917  0.16079507  0.50709696  1
  O  O248  1  -0.01597197  0.66535935  0.01785120  1
  O  O249  1  0.00438499  0.60265830  0.48129426  1
  O  O250  1  0.50273173  0.11413110  -0.08192045  1
  O  O251  1  0.48219584  0.07176053  0.62240554  1
  O  O252  1  0.42968757  0.59428581  0.08001328  1
  O  O253  1  0.48421084  0.56752727  0.49479223  1
  O  O254  1  0.52835156  0.39594995  0.51507609  1
  O  O255  1  0.51607193  0.41508815  0.93737037  1
  O  O256  1  0.49899318  0.85634481  0.56501943  1
  O  O257  1  0.45015052  1.00230038  1.03864405  1
  O  O258  1  1.01764475  0.34810285  0.43679609  1
  O  O259  1  1.00060828  0.38006401  1.06079210  1
  O  O260  1  1.04341044  0.81376021  0.49794871  1
  O  O261  1  1.03643601  0.90073152  0.97094215  1
  O  O262  1  0.47067198  0.46496780  0.37805374  1
  O  O263  1  0.51386496  0.60388184  0.80419814  1
  O  O264  1  0.41356954  1.11003222  0.48126068  1
  O  O265  1  0.49061524  0.98520786  0.83181786  1
  O  O266  1  0.99149142  0.47917564  0.36642615  1
  O  O267  1  1.01171491  0.52012999  0.94353972  1
  O  O268  1  0.98720736  1.03637678  0.40673564  1
  O  O269  1  0.97704995  0.99140853  0.81518476  1
  O  O270  1  -0.01079994  -0.02746469  0.11043454  1
  O  O271  1  0.02378072  0.01361572  0.55961084  1
  O  O272  1  -0.00564665  0.52352953  0.10890492  1
  O  O273  1  0.00941573  0.48623498  0.58934154  1
  O  O274  1  0.49805786  -0.01320071  0.09100113  1
  O  O275  1  0.52778758  0.02558088  0.64889630  1
  O  O276  1  0.48459389  0.57161613  0.22450959  1
  O  O277  1  0.45794797  0.52073673  0.63308068  1
  O  O278  1  0.22712334  0.36264739  0.24391074  1
  O  O279  1  0.22104208  0.39640551  0.79203267  1
  O  O280  1  0.18983938  0.89727855  0.24654691  1
  O  O281  1  0.23658607  0.78192191  0.74801614  1
  O  O282  1  0.62259640  0.42419170  0.19019172  1
  O  O283  1  0.78795096  0.40504253  0.76528116  1
  O  O284  1  0.69130455  0.93113988  0.28215574  1
  O  O285  1  0.74943644  0.83243461  0.73964127  1
  O  O286  1  0.23911404  0.04578600  0.21805095  1
  O  O287  1  0.23983860  0.14006357  0.74342030  1
  O  O288  1  0.22435836  0.64212211  0.27108787  1
  O  O289  1  0.29058124  0.60126709  0.78958692  1
  O  O290  1  0.74700836  0.04784886  0.38679454  1
  O  O291  1  0.77706084  0.14317126  0.75107234  1
  O  O292  1  0.71590266  0.66429710  0.20459437  1
  O  O293  1  0.73098875  0.59995628  0.79247994  1
  O  O294  1  0.38000157  0.17999375  0.32376718  1
  O  O295  1  0.32210505  0.12463977  0.84988637  1
  O  O296  1  0.35248211  0.67229716  0.37125986  1
  O  O297  1  0.39197473  0.60028008  0.91280229  1
  O  O298  1  0.80331082  0.11490195  0.27034177  1
  O  O299  1  0.88362795  0.13107445  0.83409891  1
  O  O300  1  0.71303170  0.61394884  0.25308032  1
  O  O301  1  0.85582296  0.58340035  0.88404589  1
  O  O302  1  0.13996068  0.31184505  0.12499693  1
  O  O303  1  0.14417516  0.39860031  0.65500257  1
  O  O304  1  0.12650376  0.78495282  0.22646400  1
  O  O305  1  0.14018762  0.92185568  0.56512963  1
  O  O306  1  0.55460254  0.44877807  0.07936633  1
  O  O307  1  0.66466612  0.39090857  0.66264823  1
  O  O308  1  0.60779622  0.86981264  0.07780515  1
  O  O309  1  0.63715040  0.93868057  0.53437121  1
  O  O310  1  0.13626927  0.22923823  0.24470436  1
  O  O311  1  0.09686715  0.23748285  0.71580899  1
  O  O312  1  0.17462627  0.82973726  0.26966147  1
  O  O313  1  0.28778795  0.73877885  0.73078003  1
  O  O314  1  0.64048665  0.17919691  0.18825136  1
  O  O315  1  0.59859062  0.23625796  0.75065178  1
  O  O316  1  0.61875071  0.80009247  0.23419074  1
  O  O317  1  0.68575486  0.78714442  0.72641254  1
  O  O318  1  0.44359925  0.21682718  0.16442479  1
  O  O319  1  0.35932365  0.25048316  0.75091586  1
  O  O320  1  0.34008476  0.79994010  0.27883507  1
  O  O321  1  0.61071067  0.76219982  0.91182998  1
  O  O322  1  0.84473785  0.26638377  0.14269953  1
  O  O323  1  0.90660773  0.27191076  0.73816637  1
  O  O324  1  0.88608400  0.71358926  0.24271673  1
  O  O325  1  0.89146296  0.73708035  0.71027770  1
  O  O326  1  0.37490854  0.45303554  0.50085141  1
  O  O327  1  0.35147830  0.44019023  0.95061532  1
  O  O328  1  0.39167621  0.96198727  0.53412477  1
  O  O329  1  0.37827682  1.01329637  0.92861374  1
  O  O330  1  0.90514263  0.46140233  0.48829080  1
  O  O331  1  0.87802829  0.47204963  1.02138396  1
  O  O332  1  0.87286254  1.05069429  0.51881040  1
  O  O333  1  0.91335183  0.98352029  0.97024005  1
  O  O334  1  0.11843008  0.00713459  0.02785773  1
  O  O335  1  0.15809807  0.04920954  0.47740378  1
  O  O336  1  0.13404104  0.48989294  0.03335000  1
  O  O337  1  0.09986293  0.47483584  0.47004905  1
  O  O338  1  0.57854067  -0.01241744  -0.03354828  1
  O  O339  1  0.59723491  0.07979771  0.51806906  1
  O  O340  1  0.56880410  0.56647856  -0.04377934  1
  O  O341  1  0.67955294  0.50394836  0.38908024  1
  O  O342  1  0.38556004  0.34776083  0.12085003  1
  O  O343  1  0.35968898  0.37088346  0.64699166  1
  O  O344  1  0.37965191  0.88674018  0.16096547  1
  O  O345  1  0.41496975  0.88854842  0.65658011  1
  O  O346  1  0.74970496  0.42978721  0.12075636  1
  O  O347  1  0.84711321  0.38432577  0.60421419  1
  O  O348  1  0.79934122  0.87797286  0.16848265  1
  O  O349  1  0.91969989  0.88783618  0.59018253  1
  O  O350  1  0.04703765  0.07777541  0.24292579  1
  O  O351  1  0.11897146  0.10355938  0.83222439  1
  O  O352  1  0.20806173  0.62528925  0.45364041  1
  O  O353  1  0.12327374  0.64997546  0.95731270  1
  O  O354  1  0.57550015  0.20062729  0.44551340  1
  O  O355  1  0.69294183  0.09192631  0.86804058  1
  O  O356  1  0.68160510  0.66612044  0.41765889  1
  O  O357  1  0.68465207  0.66595636  0.91890593  1
