# generated using pymatgen
data_V51Zn51O256
_symmetry_space_group_name_H-M   'P 1'
_cell_length_a   17.32203207
_cell_length_b   17.51987454
_cell_length_c   17.47329455
_cell_angle_alpha   90.44196004
_cell_angle_beta   89.72356829
_cell_angle_gamma   89.83354800
_symmetry_Int_Tables_number   1
_chemical_formula_structural   V51Zn51O256
_chemical_formula_sum   'V51 Zn51 O256'
_cell_volume   5302.55000775
_cell_formula_units_Z   1
loop_
 _symmetry_equiv_pos_site_id
 _symmetry_equiv_pos_as_xyz
  1  'x, y, z'
loop_
 _atom_site_type_symbol
 _atom_site_label
 _atom_site_symmetry_multiplicity
 _atom_site_fract_x
 _atom_site_fract_y
 _atom_site_fract_z
 _atom_site_occupancy
  V  V0  1  0.28695155  0.47459120  0.19055827  1
  V  V1  1  0.26801694  0.26128078  0.47494402  1
  V  V2  1  0.77685236  0.30077435  0.45506948  1
  V  V3  1  0.74017697  0.61771030  0.87384438  1
  V  V4  1  0.50918652  0.31345132  0.82581113  1
  V  V5  1  0.37737880  0.60118414  0.76848014  1
  V  V6  1  0.58280724  0.00292267  0.13751961  1
  V  V7  1  0.88369325  0.15598484  0.76073766  1
  V  V8  1  0.75019655  0.61386122  0.36664470  1
  V  V9  1  0.35657102  0.09038623  0.72508316  1
  V  V10  1  0.78128908  0.42032806  0.09684899  1
  V  V11  1  0.77839564  0.72806475  0.61139734  1
  V  V12  1  0.25360556  0.89264235  0.11978720  1
  V  V13  1  0.24598166  0.62727323  0.87607210  1
  V  V14  1  0.15571699  0.09634513  0.01338897  1
  V  V15  1  0.31187319  0.63728928  0.40692726  1
  V  V16  1  0.79255027  0.00710281  0.74916598  1
  V  V17  1  0.38054141  0.76645895  0.09775941  1
  V  V18  1  0.83904055  0.74278964  0.12217205  1
  V  V19  1  0.36191108  0.89563963  -0.03002154  1
  V  V20  1  0.74636281  0.82207116  -0.01714123  1
  V  V21  1  0.12570776  0.86515616  0.74683413  1
  V  V22  1  0.00584853  -0.06204214  0.50843460  1
  V  V23  1  0.49766396  0.16061940  0.06019134  1
  V  V24  1  0.11950916  0.52288830  0.61356694  1
  V  V25  1  0.09990959  0.74133842  0.35824960  1
  V  V26  1  0.72650365  0.37126202  0.67122996  1
  V  V27  1  0.49041244  0.28987980  0.27485718  1
  V  V28  1  0.83433419  0.20349650  0.11861349  1
  V  V29  1  0.37301382  0.26722340  0.61198859  1
  V  V30  1  0.72819049  0.89343092  0.15041142  1
  V  V31  1  0.86784591  -0.01382927  0.36058694  1
  V  V32  1  0.50557457  0.11374609  0.62724366  1
  V  V33  1  0.28056701  0.75668909  0.54084491  1
  V  V34  1  -0.00097101  0.36997963  0.88847402  1
  V  V35  1  0.50232005  0.61412537  0.64589132  1
  V  V36  1  0.28859068  0.08340428  0.39869259  1
  V  V37  1  0.49806999  -0.00628036  -0.03839219  1
  V  V38  1  -0.01334802  0.77534054  0.21670714  1
  V  V39  1  0.71265592  0.03694663  0.26482794  1
  V  V40  1  -0.00431249  0.25027373  0.19929107  1
  V  V41  1  0.61910675  0.49805912  0.67803164  1
  V  V42  1  0.62366010  -0.03625386  0.63628336  1
  V  V43  1  -0.09046834  0.50168794  0.01587659  1
  V  V44  1  0.09452992  0.15764643  0.48619953  1
  V  V45  1  0.51022941  0.53206227  0.03048189  1
  V  V46  1  0.09722987  0.00831351  0.16015074  1
  V  V47  1  0.00241554  0.62136673  0.10281358  1
  V  V48  1  0.47418819  0.75467211  0.77052901  1
  V  V49  1  0.29354870  -0.00643442  0.25555552  1
  V  V50  1  0.04494900  0.25169907  0.72576256  1
  Zn  Zn51  1  0.27284780  0.78699887  0.27281306  1
  Zn  Zn52  1  0.71215699  0.60498992  0.07163734  1
  Zn  Zn53  1  0.44269023  0.43007571  0.69729951  1
  Zn  Zn54  1  0.31326425  0.57848119  0.58484087  1
  Zn  Zn55  1  0.58635745  0.78174817  0.58585425  1
  Zn  Zn56  1  0.96814234  0.43972766  0.17354582  1
  Zn  Zn57  1  0.47365797  0.12306975  0.84802107  1
  Zn  Zn58  1  0.89222355  0.14887349  0.45823871  1
  Zn  Zn59  1  0.19768514  0.89984829  0.41462246  1
  Zn  Zn60  1  0.10955074  0.80392225  0.53783551  1
  Zn  Zn61  1  0.55980086  0.83528689  0.04521825  1
  Zn  Zn62  1  0.57074296  0.29228777  0.64112085  1
  Zn  Zn63  1  0.29836389  0.02895639  0.58633299  1
  Zn  Zn64  1  0.82638279  0.49449169  0.62039072  1
  Zn  Zn65  1  0.16510139  0.91554568  0.94759543  1
  Zn  Zn66  1  0.65204968  0.69237819  0.72260294  1
  Zn  Zn67  1  0.59537878  0.35181337  -0.00872327  1
  Zn  Zn68  1  0.70258476  0.17197559  0.68175762  1
  Zn  Zn69  1  0.94881201  0.95346836  0.69986773  1
  Zn  Zn70  1  0.64708935  0.41014086  0.50564539  1
  Zn  Zn71  1  0.11911770  0.01797554  0.61878222  1
  Zn  Zn72  1  0.79992754  0.01211082  0.07218045  1
  Zn  Zn73  1  0.86941295  0.34308744  0.75476221  1
  Zn  Zn74  1  0.07915955  0.32292431  0.55078496  1
  Zn  Zn75  1  0.15841573  0.13180381  0.29247478  1
  Zn  Zn76  1  0.35894597  0.24459972  0.80371247  1
  Zn  Zn77  1  0.85664676  0.26656823  0.92512297  1
  Zn  Zn78  1  0.44760578  0.17281801  0.44995559  1
  Zn  Zn79  1  0.84281913  0.34979820  0.26584725  1
  Zn  Zn80  1  0.79376102  0.82562017  0.77935645  1
  Zn  Zn81  1  0.06137052  0.00967029  0.35648965  1
  Zn  Zn82  1  0.56706311  0.57647493  0.83272615  1
  Zn  Zn83  1  0.13393097  0.74318535  0.09147659  1
  Zn  Zn84  1  0.31114748  0.57119771  0.04478333  1
  Zn  Zn85  1  0.40919300  0.69925874  0.93742349  1
  Zn  Zn86  1  0.15305231  0.50062794  0.91163388  1
  Zn  Zn87  1  0.79790923  0.81220503  0.30363625  1
  Zn  Zn88  1  0.88800826  0.60679769  0.50575532  1
  Zn  Zn89  1  0.47549868  0.95977945  0.75957217  1
  Zn  Zn90  1  0.19764221  0.68771599  0.71251852  1
  Zn  Zn91  1  0.23811690  0.46453089  0.45414991  1
  Zn  Zn92  1  0.85776994  0.67477047  0.95828290  1
  Zn  Zn93  1  0.91282662  0.96612937  0.20185191  1
  Zn  Zn94  1  0.10838841  0.57804544  0.25501491  1
  Zn  Zn95  1  0.58731516  0.45037555  0.34882920  1
  Zn  Zn96  1  0.33320595  1.06128853  0.06858661  1
  Zn  Zn97  1  0.00111100  0.20206207  0.00884722  1
  Zn  Zn98  1  0.68040994  0.54526256  0.21913708  1
  Zn  Zn99  1  0.21061976  0.18541766  0.65259125  1
  Zn  Zn100  1  0.46194824  0.71102921  0.47817359  1
  Zn  Zn101  1  0.64858698  0.18335038  0.18084970  1
  O  O102  1  0.13453912  0.09104204  0.11635372  1
  O  O103  1  0.12572100  0.12011463  0.57462022  1
  O  O104  1  0.08848475  0.64778097  0.06135996  1
  O  O105  1  0.12901731  0.61780490  0.65248763  1
  O  O106  1  0.57795982  0.11933669  0.11571728  1
  O  O107  1  0.59597233  0.15073297  0.65244001  1
  O  O108  1  0.64791158  0.63108764  0.16283887  1
  O  O109  1  0.61643021  0.59875405  0.66152254  1
  O  O110  1  0.41525284  0.48080926  0.48285141  1
  O  O111  1  0.41144117  0.32557778  0.85036157  1
  O  O112  1  0.40414026  0.84641778  0.37438344  1
  O  O113  1  0.34682334  0.90394551  0.87914985  1
  O  O114  1  0.97720755  0.35992377  0.48657535  1
  O  O115  1  0.89106916  0.34949005  0.86025620  1
  O  O116  1  0.83168046  0.89316182  0.36800361  1
  O  O117  1  0.94739959  0.93227387  0.89649295  1
  O  O118  1  0.26240221  -0.02157308  0.36644709  1
  O  O119  1  0.21393762  0.06599344  0.83939711  1
  O  O120  1  0.26978518  0.55001253  0.38908542  1
  O  O121  1  0.25032270  0.43593770  0.82895383  1
  O  O122  1  0.69636361  0.01140997  0.35320389  1
  O  O123  1  0.76972404  -0.00141334  0.83891340  1
  O  O124  1  0.77802584  0.52120651  0.39301545  1
  O  O125  1  0.74625121  0.52529396  0.86055904  1
  O  O126  1  0.25392650  0.48119166  0.08907874  1
  O  O127  1  0.22394140  0.52286290  0.63648138  1
  O  O128  1  0.28035261  1.00371510  0.15030130  1
  O  O129  1  0.20937334  0.96347717  0.58863059  1
  O  O130  1  0.73442688  0.50683589  0.12674313  1
  O  O131  1  0.72297860  0.48951535  0.66125612  1
  O  O132  1  0.71186982  1.00424357  0.14753084  1
  O  O133  1  0.73120946  1.11866155  0.55270899  1
  O  O134  1  0.02370043  0.34118161  0.18274288  1
  O  O135  1  0.02214255  0.32655449  0.79328893  1
  O  O136  1  -0.02347114  0.86957022  0.21078824  1
  O  O137  1  0.02004792  0.87583184  0.74878153  1
  O  O138  1  0.53396035  0.35011362  0.34618209  1
  O  O139  1  0.51703702  0.34762215  0.72959618  1
  O  O140  1  0.52609134  0.84248611  0.23912508  1
  O  O141  1  0.48296179  0.85173586  0.75888505  1
  O  O142  1  0.47596355  0.23046771  0.19192423  1
  O  O143  1  0.46135596  0.12558408  0.72764261  1
  O  O144  1  0.52970573  0.71510172  0.34102715  1
  O  O145  1  0.48429921  0.61671973  0.76775159  1
  O  O146  1  1.00681854  0.20923772  0.29932923  1
  O  O147  1  0.99096727  0.16823952  0.74660000  1
  O  O148  1  1.01979112  0.61351369  0.19991140  1
  O  O149  1  0.99342168  0.62392224  0.82615712  1
  O  O150  1  0.47609672  0.26176690  0.03338683  1
  O  O151  1  0.37263186  0.24670892  0.49935054  1
  O  O152  1  0.36972919  0.79464840  -0.01686458  1
  O  O153  1  0.37545020  0.77416191  0.53123986  1
  O  O154  1  0.87491365  0.22973421  0.02749545  1
  O  O155  1  0.83911086  0.23688027  0.49445473  1
  O  O156  1  0.84137994  0.76969630  0.01586998  1
  O  O157  1  0.83721752  0.77904227  0.52995240  1
  O  O158  1  0.13331280  0.25222166  0.48366654  1
  O  O159  1  0.10858198  0.17413847  0.97803130  1
  O  O160  1  0.09372977  0.73187217  0.45577077  1
  O  O161  1  0.10163004  0.82153321  0.99587239  1
  O  O162  1  0.59707140  0.29648944  0.51159256  1
  O  O163  1  0.55682237  0.26046336  1.04498216  1
  O  O164  1  0.68841877  0.72593630  0.57519445  1
  O  O165  1  0.65069888  0.79462956  0.99136693  1
  O  O166  1  0.49075619  0.37250244  0.22194121  1
  O  O167  1  0.46957825  0.23391994  0.61970273  1
  O  O168  1  0.47933228  0.77143003  0.09447320  1
  O  O169  1  0.54137633  0.72010378  0.68414645  1
  O  O170  1  1.00908048  0.19633470  0.11984071  1
  O  O171  1  1.02365769  0.28650827  0.63710253  1
  O  O172  1  0.95072849  0.71993892  0.12004875  1
  O  O173  1  0.97425545  0.71714685  0.62574711  1
  O  O174  1  -0.01599286  0.38886033  0.42179692  1
  O  O175  1  0.00378106  0.30129207  0.95496776  1
  O  O176  1  0.00250349  0.75400332  0.31713355  1
  O  O177  1  -0.07358894  0.86684772  0.88176697  1
  O  O178  1  0.48338174  0.22083729  0.35446366  1
  O  O179  1  0.52966864  0.21856920  0.83278741  1
  O  O180  1  0.54068415  0.78311434  0.48867438  1
  O  O181  1  0.48995768  0.73562534  0.86733860  1
  O  O182  1  0.25997730  0.07650690  0.49144856  1
  O  O183  1  0.25327606  0.10809589  1.00711854  1
  O  O184  1  0.27124739  0.65869424  0.50363295  1
  O  O185  1  0.24278232  0.55840092  0.95846138  1
  O  O186  1  0.68904184  0.23790083  0.43245005  1
  O  O187  1  0.69957639  0.12680619  0.98270311  1
  O  O188  1  0.69315034  0.62304071  0.44754829  1
  O  O189  1  0.73416574  0.64231787  0.97344998  1
  O  O190  1  0.26739867  0.32632470  -0.04861836  1
  O  O191  1  0.26334980  0.35314180  0.44696601  1
  O  O192  1  0.25887772  0.91522741  0.00724749  1
  O  O193  1  0.21765683  0.82643734  0.50052646  1
  O  O194  1  0.76461298  0.34597935  0.01778394  1
  O  O195  1  0.75294429  0.37130351  0.52252837  1
  O  O196  1  0.74822604  0.91483257  0.01214699  1
  O  O197  1  0.83374496  0.82051631  0.59562204  1
  O  O198  1  0.20482786  0.53561950  0.21875328  1
  O  O199  1  0.09382504  0.48060306  0.69904208  1
  O  O200  1  0.11677313  1.02427018  0.25835808  1
  O  O201  1  0.12085018  0.96557666  0.72239386  1
  O  O202  1  0.63536929  0.45432367  0.24846052  1
  O  O203  1  0.60209541  0.48641685  0.77184179  1
  O  O204  1  0.60441274  1.01905056  0.23456110  1
  O  O205  1  0.78309132  1.07057080  0.55028335  1
  O  O206  1  0.38557672  -0.00624464  0.26633902  1
  O  O207  1  0.36957003  -0.00278261  0.74527588  1
  O  O208  1  0.34990489  0.48927238  0.26279902  1
  O  O209  1  0.37998735  0.50327614  0.76007697  1
  O  O210  1  0.82209575  0.01010212  0.26634781  1
  O  O211  1  0.89680354  0.04612620  0.74016340  1
  O  O212  1  0.91251653  0.43366875  0.26534620  1
  O  O213  1  0.91226249  0.50010420  0.77073126  1
  O  O214  1  0.10429414  0.48694448  0.37209905  1
  O  O215  1  0.08583095  0.42011785  0.89685890  1
  O  O216  1  0.16715767  0.81529887  0.33924718  1
  O  O217  1  0.12995145  0.88125645  0.84611692  1
  O  O218  1  0.67195819  0.39620676  0.39477334  1
  O  O219  1  0.56918820  0.36095880  0.88883735  1
  O  O220  1  0.55825407  0.87241207  0.29335318  1
  O  O221  1  0.60695599  0.83825629  0.85046972  1
  O  O222  1  0.41409301  0.13206418  0.10071204  1
  O  O223  1  0.39064744  0.08917186  0.61991086  1
  O  O224  1  0.34855952  0.67494849  0.04301635  1
  O  O225  1  0.39375955  0.61251956  0.65376600  1
  O  O226  1  0.84523404  0.10780005  0.12428454  1
  O  O227  1  0.77993730  0.11757673  0.73285005  1
  O  O228  1  0.80594039  0.65407943  0.12327595  1
  O  O229  1  0.82572760  0.64142848  0.59316956  1
  O  O230  1  0.21987539  0.22019097  0.18924013  1
  O  O231  1  0.25507340  0.25642357  0.57746736  1
  O  O232  1  0.22585648  0.79832638  0.10668694  1
  O  O233  1  0.25371711  0.73899829  0.63278530  1
  O  O234  1  0.73758175  0.22147438  0.12218739  1
  O  O235  1  0.68979732  0.27562276  0.64790154  1
  O  O236  1  0.74360554  0.79487168  0.11597614  1
  O  O237  1  0.75623706  0.74341023  0.71243115  1
  O  O238  1  0.25941743  0.19292274  0.39967828  1
  O  O239  1  0.29143279  0.28261956  1.00044717  1
  O  O240  1  0.29623914  0.70890182  0.34317501  1
  O  O241  1  0.23074717  0.71416344  0.90731881  1
  O  O242  1  0.80928217  0.32370987  0.36585159  1
  O  O243  1  0.71938372  0.26438867  0.90443073  1
  O  O244  1  0.75031755  0.71210010  0.33441990  1
  O  O245  1  0.76785069  0.81989095  0.88544591  1
  O  O246  1  -0.02648936  0.09406638  -0.04507267  1
  O  O247  1  -0.00331778  0.16311231  0.48926136  1
  O  O248  1  -0.07164997  0.60746125  0.01417313  1
  O  O249  1  -0.01556679  0.61788633  0.46498552  1
  O  O250  1  0.49496451  0.11771430  -0.02991892  1
  O  O251  1  0.50508363  0.11825394  0.52792972  1
  O  O252  1  0.48604949  0.62722725  0.00370100  1
  O  O253  1  0.50815249  0.63548282  0.55370200  1
  O  O254  1  0.44827079  0.41887161  0.49322553  1
  O  O255  1  0.53103637  0.43367546  1.04295162  1
  O  O256  1  0.48551228  0.91153634  0.52111658  1
  O  O257  1  0.48611604  0.89257159  0.96927825  1
  O  O258  1  1.13992069  0.42362013  0.39529560  1
  O  O259  1  1.15916188  0.30150636  1.07319816  1
  O  O260  1  1.00371297  0.84356797  0.52766542  1
  O  O261  1  1.03396532  0.80793452  0.97150737  1
  O  O262  1  0.51140360  0.51819387  0.32020028  1
  O  O263  1  0.53029283  0.52451642  0.92671045  1
  O  O264  1  0.45169036  0.89736368  0.38217592  1
  O  O265  1  0.50482250  1.01139286  0.86001494  1
  O  O266  1  1.06256379  0.48366483  0.30816554  1
  O  O267  1  0.95049103  0.45866053  0.93659660  1
  O  O268  1  0.95940808  0.99143117  0.31584945  1
  O  O269  1  0.93156513  1.05018956  0.99897144  1
  O  O270  1  0.00123650  0.00655602  0.14283042  1
  O  O271  1  0.00975737  -0.01683101  0.60286900  1
  O  O272  1  -0.00486029  0.51558388  0.09457557  1
  O  O273  1  0.02955254  0.55299565  0.58664609  1
  O  O274  1  0.49114067  -0.01563928  0.14242413  1
  O  O275  1  0.53046083  0.00968714  0.66289790  1
  O  O276  1  0.49800035  0.55366115  0.12683604  1
  O  O277  1  0.51084567  0.50754815  0.64478886  1
  O  O278  1  0.22509262  0.41081094  0.23153067  1
  O  O279  1  0.23891790  0.37539880  0.79377594  1
  O  O280  1  0.26364500  0.88923053  0.22946351  1
  O  O281  1  0.22437437  0.87681342  0.73561498  1
  O  O282  1  0.77293299  0.37148563  0.17936630  1
  O  O283  1  0.71690841  0.36862220  0.76412220  1
  O  O284  1  0.72030796  0.87282028  0.24465259  1
  O  O285  1  0.84025129  0.91170566  0.72687183  1
  O  O286  1  0.26434378  0.09401999  0.28612492  1
  O  O287  1  0.25859137  0.09092544  0.68544131  1
  O  O288  1  0.33112450  0.57090308  0.15695297  1
  O  O289  1  0.27179821  0.62697733  0.76464869  1
  O  O290  1  0.70867545  0.13432470  0.26070120  1
  O  O291  1  0.70448808  -0.00457717  0.69332269  1
  O  O292  1  0.78349057  0.58054519  0.26998791  1
  O  O293  1  0.88757961  0.54605376  0.72272826  1
  O  O294  1  0.38513949  0.09134915  0.40190465  1
  O  O295  1  0.35577284  0.13693717  0.82266216  1
  O  O296  1  0.40866684  0.63108305  0.42396589  1
  O  O297  1  0.36182182  0.61816214  0.87219458  1
  O  O298  1  0.84034813  0.07198695  0.40665917  1
  O  O299  1  0.87021169  0.17606244  0.85548854  1
  O  O300  1  0.84025200  0.64684016  0.40697368  1
  O  O301  1  0.82993921  0.65953214  0.85163193  1
  O  O302  1  0.27419482  0.21157418  0.14392713  1
  O  O303  1  0.11191753  0.42570555  0.57826275  1
  O  O304  1  0.14644573  0.92820123  0.12262205  1
  O  O305  1  0.11631407  0.83404485  0.64794292  1
  O  O306  1  0.69412337  0.38394810  0.03265752  1
  O  O307  1  0.62264611  0.40359553  0.61919929  1
  O  O308  1  0.61988115  0.89855307  0.12184311  1
  O  O309  1  0.61693979  0.86678672  0.64773373  1
  O  O310  1  0.08203560  0.21353253  0.26438590  1
  O  O311  1  0.14130378  0.23129233  0.72616625  1
  O  O312  1  0.08085009  0.76316057  0.18688871  1
  O  O313  1  0.12686162  0.76351625  0.76294109  1
  O  O314  1  0.58748022  0.25140097  0.24880669  1
  O  O315  1  0.68854809  0.22731326  0.85219056  1
  O  O316  1  0.49066323  0.71726068  0.28266938  1
  O  O317  1  0.63683712  0.89396608  0.82137398  1
  O  O318  1  0.39216845  0.29624852  0.29468879  1
  O  O319  1  0.33161468  0.22853155  0.69729471  1
  O  O320  1  0.35067644  0.74775117  0.18822181  1
  O  O321  1  0.38298113  0.72777583  0.75325755  1
  O  O322  1  0.88656138  0.25340967  0.20056803  1
  O  O323  1  0.86060251  0.23827943  0.71399889  1
  O  O324  1  0.86307274  0.76834990  0.22144207  1
  O  O325  1  1.01746541  0.66989238  0.87366775  1
  O  O326  1  0.33017437  0.48616956  0.52474295  1
  O  O327  1  0.41075475  0.50627207  1.01682666  1
  O  O328  1  0.36232332  0.94885232  0.52183359  1
  O  O329  1  0.39789894  0.99964968  0.99688261  1
  O  O330  1  0.88258684  0.50274858  0.53087877  1
  O  O331  1  0.81328363  0.50182871  1.00254235  1
  O  O332  1  0.92572618  0.96657170  0.46229505  1
  O  O333  1  0.85803206  1.04055709  0.97573159  1
  O  O334  1  0.12293110  0.01300528  -0.02849964  1
  O  O335  1  0.09019281  -0.05044498  0.44685281  1
  O  O336  1  0.14047946  0.35496327  0.03226843  1
  O  O337  1  0.15829910  0.53380851  0.51627421  1
  O  O338  1  0.57932921  0.00243519  0.01600407  1
  O  O339  1  0.64092417  -0.01430644  0.54756341  1
  O  O340  1  0.60976907  0.55438576  0.03981162  1
  O  O341  1  0.59211477  0.48826287  0.45408717  1
  O  O342  1  0.34170381  0.40206142  0.14959538  1
  O  O343  1  0.38099194  0.36145798  0.63061377  1
  O  O344  1  0.35596563  0.87265895  0.10218467  1
  O  O345  1  0.42240270  0.91668946  0.55801445  1
  O  O346  1  0.88740851  0.42376993  0.09039294  1
  O  O347  1  0.83070761  0.38600112  0.66152306  1
  O  O348  1  0.83123391  0.91872079  0.13639604  1
  O  O349  1  0.94796812  0.70534991  0.69046782  1
  O  O350  1  0.11499112  0.10626055  0.39962836  1
  O  O351  1  0.15046384  0.09279995  0.82430750  1
  O  O352  1  0.13645253  0.65709686  0.32403171  1
  O  O353  1  0.15615177  0.58847448  0.84607530  1
  O  O354  1  0.62365276  0.23300024  0.47766823  1
  O  O355  1  0.67336609  0.10640577  0.92088795  1
  O  O356  1  0.65414857  0.59676378  0.32123272  1
  O  O357  1  0.65194795  0.64948115  0.82546830  1
