# generated using pymatgen
data_V51Zn51O256
_symmetry_space_group_name_H-M   'P 1'
_cell_length_a   17.37645157
_cell_length_b   17.32103067
_cell_length_c   17.26110062
_cell_angle_alpha   90.24598264
_cell_angle_beta   90.25657479
_cell_angle_gamma   89.39147314
_symmetry_Int_Tables_number   1
_chemical_formula_structural   V51Zn51O256
_chemical_formula_sum   'V51 Zn51 O256'
_cell_volume   5194.82049114
_cell_formula_units_Z   1
loop_
 _symmetry_equiv_pos_site_id
 _symmetry_equiv_pos_as_xyz
  1  'x, y, z'
loop_
 _atom_site_type_symbol
 _atom_site_label
 _atom_site_symmetry_multiplicity
 _atom_site_fract_x
 _atom_site_fract_y
 _atom_site_fract_z
 _atom_site_occupancy
  V  V0  1  0.15248464  0.64270759  -0.03524555  1
  V  V1  1  0.39660418  0.16025071  0.20518839  1
  V  V2  1  0.50081070  0.24220966  0.75197324  1
  V  V3  1  0.75324805  -0.04090976  0.74748787  1
  V  V4  1  0.13715433  0.86833272  0.76136956  1
  V  V5  1  0.14111103  0.13812096  -0.01161370  1
  V  V6  1  0.37518279  0.23238067  0.63197434  1
  V  V7  1  0.75440965  0.39554347  0.63646535  1
  V  V8  1  0.75145706  0.25383727  0.50442130  1
  V  V9  1  0.62072773  0.13711297  -0.00668703  1
  V  V10  1  0.49797851  0.36182209  0.87524633  1
  V  V11  1  0.38968925  0.52748851  0.89397034  1
  V  V12  1  0.58945605  0.49202826  0.61474735  1
  V  V13  1  0.15147436  0.00015156  0.12647906  1
  V  V14  1  0.88698736  -0.01931331  0.86597514  1
  V  V15  1  0.00271567  0.26274561  0.76198290  1
  V  V16  1  0.63362608  0.01855959  0.11259089  1
  V  V17  1  0.62694510  0.12080986  0.50817436  1
  V  V18  1  0.34482536  0.49578316  0.38209590  1
  V  V19  1  0.77062245  -0.00943310  0.26524098  1
  V  V20  1  0.72797551  0.74336829  0.52872362  1
  V  V21  1  0.12173530  0.50680492  0.63196793  1
  V  V22  1  0.24213525  0.51070885  0.24614498  1
  V  V23  1  0.62986557  0.87826685  0.25133744  1
  V  V24  1  0.00665886  0.12070745  0.63317864  1
  V  V25  1  0.90383549  0.88152008  -0.00214418  1
  V  V26  1  0.69472161  0.71148542  0.00321213  1
  V  V27  1  0.24257202  0.00636797  0.72319100  1
  V  V28  1  0.86774114  0.15134743  0.74631111  1
  V  V29  1  0.74691090  0.88794945  0.08892826  1
  V  V30  1  0.28085526  0.14758162  0.38862099  1
  V  V31  1  0.74857848  0.14700775  0.87070733  1
  V  V32  1  0.22043333  0.78716618  0.48221287  1
  V  V33  1  0.69721535  0.60642259  0.37183479  1
  V  V34  1  0.29661764  0.53667686  0.72896664  1
  V  V35  1  0.13712069  0.36905264  0.77118934  1
  V  V36  1  0.26948799  0.12243617  0.87204362  1
  V  V37  1  0.38403731  -0.01065703  0.88098244  1
  V  V38  1  -0.01805578  0.44195435  0.00558406  1
  V  V39  1  0.52005228  0.35006722  0.39422179  1
  V  V40  1  0.88754100  0.73577331  0.09950239  1
  V  V41  1  0.39470003  0.34932155  0.01483830  1
  V  V42  1  0.55657694  0.20448574  0.26712475  1
  V  V43  1  0.24817641  0.35092153  0.62508324  1
  V  V44  1  0.05916377  0.13414445  0.45599604  1
  V  V45  1  0.23257078  0.32180408  0.12325480  1
  V  V46  1  0.90178060  0.62039451  0.78005710  1
  V  V47  1  0.00065429  0.12120357  0.09996406  1
  V  V48  1  0.61371213  -0.00344423  0.63684032  1
  V  V49  1  0.28072084  0.00910312  0.24910409  1
  V  V50  1  0.56649693  0.62647799  0.49883088  1
  Zn  Zn51  1  0.34745500  0.87624462  0.75646423  1
  Zn  Zn52  1  0.36303287  0.65938501  0.48236659  1
  Zn  Zn53  1  0.68472135  0.44075781  0.45612432  1
  Zn  Zn54  1  0.95924062  0.14893189  0.90997144  1
  Zn  Zn55  1  0.48630137  1.00224844  0.22040864  1
  Zn  Zn56  1  0.56474173  0.30679922  0.57999445  1
  Zn  Zn57  1  0.52594609  0.65949270  0.92856672  1
  Zn  Zn58  1  0.67669985  0.20566189  0.66507778  1
  Zn  Zn59  1  0.57247627  0.05734669  0.81558581  1
  Zn  Zn60  1  0.20627424  0.17105017  0.22738320  1
  Zn  Zn61  1  0.38273553  0.37752880  0.21206109  1
  Zn  Zn62  1  0.69565161  0.96000042  0.92524942  1
  Zn  Zn63  1  0.19369821  0.98215308  0.41888697  1
  Zn  Zn64  1  0.77769150  0.08032744  0.60245332  1
  Zn  Zn65  1  0.73048304  0.73120817  0.20900076  1
  Zn  Zn66  1  0.18741752  0.42590640  0.44875892  1
  Zn  Zn67  1  0.81939057  0.06433207  0.04586133  1
  Zn  Zn68  1  0.18815648  0.19263890  0.71305398  1
  Zn  Zn69  1  0.19353212  0.10402786  0.56023028  1
  Zn  Zn70  1  0.43226430  1.06600739  0.71219085  1
  Zn  Zn71  1  0.06029953  0.28556578  0.06349409  1
  Zn  Zn72  1  0.58168741  0.82458438  0.54503648  1
  Zn  Zn73  1  0.08587267  0.27297323  0.58704479  1
  Zn  Zn74  1  0.17720530  0.96739064  0.91981788  1
  Zn  Zn75  1  0.12290869  0.60476367  0.28063774  1
  Zn  Zn76  1  0.82788937  0.56048490  0.00828302  1
  Zn  Zn77  1  0.57480180  0.50215556  0.81029361  1
  Zn  Zn78  1  0.68790830  0.55325296  0.91724354  1
  Zn  Zn79  1  0.58866087  0.84762940  -0.00368371  1
  Zn  Zn80  1  1.11303217  0.45847647  0.15310700  1
  Zn  Zn81  1  0.66996059  0.32665582  0.80442771  1
  Zn  Zn82  1  0.88125274  0.27841997  0.61400449  1
  Zn  Zn83  1  0.27233978  0.52625860  0.55156675  1
  Zn  Zn84  1  0.06812489  0.05909883  0.80236147  1
  Zn  Zn85  1  0.26703184  0.48163341  0.03864737  1
  Zn  Zn86  1  0.06113570  0.06553679  0.26950868  1
  Zn  Zn87  1  0.67797302  0.80602624  0.83759927  1
  Zn  Zn88  1  0.20175120  0.69575135  0.66016821  1
  Zn  Zn89  1  0.32299403  0.05966818  0.05294667  1
  Zn  Zn90  1  0.43033668  0.42172381  0.68743735  1
  Zn  Zn91  1  0.97394622  0.71612161  0.93059967  1
  Zn  Zn92  1  0.68158749  0.93965417  0.44058928  1
  Zn  Zn93  1  0.44985558  0.19116429  0.46085848  1
  Zn  Zn94  1  0.85293233  0.64649648  0.48540037  1
  Zn  Zn95  1  0.63640697  0.64823522  0.68318481  1
  Zn  Zn96  1  0.33174660  0.84956937  0.32246146  1
  Zn  Zn97  1  0.85939529  0.84997596  0.22331822  1
  Zn  Zn98  1  0.94678063  0.43924463  0.68305876  1
  Zn  Zn99  1  0.95529115  0.93464574  0.69364543  1
  Zn  Zn100  1  0.32208231  0.30301703  0.82158356  1
  Zn  Zn101  1  0.06123203  0.51870396  0.83161391  1
  O  O102  1  0.13264951  0.11198785  0.08553646  1
  O  O103  1  0.11015112  0.14855287  0.62915472  1
  O  O104  1  0.16805981  0.64772392  0.06486055  1
  O  O105  1  0.13053030  0.60381541  0.64545031  1
  O  O106  1  0.64671738  0.11804563  0.10568203  1
  O  O107  1  0.65820102  0.09931965  0.62979992  1
  O  O108  1  0.57451527  0.55822350  0.11959308  1
  O  O109  1  0.56562435  0.61498278  0.60202059  1
  O  O110  1  0.44005549  0.37114418  0.31802307  1
  O  O111  1  0.38232268  0.35715753  0.89862795  1
  O  O112  1  0.42931699  0.88808495  0.36546635  1
  O  O113  1  0.37829669  0.89011270  0.86160825  1
  O  O114  1  0.88911419  0.45838605  0.37762382  1
  O  O115  1  0.80085626  0.35169371  0.96788510  1
  O  O116  1  1.02310348  0.78890613  0.39802925  1
  O  O117  1  0.90006922  0.88339401  0.88409531  1
  O  O118  1  0.26577871  0.04423942  0.36190538  1
  O  O119  1  0.26890838  0.00483708  0.86708292  1
  O  O120  1  0.24246289  0.47420709  0.36152455  1
  O  O121  1  0.30499301  0.51716883  0.83176083  1
  O  O122  1  0.74905073  -0.01493844  0.36315099  1
  O  O123  1  0.77064912  0.00134580  0.85063577  1
  O  O124  1  0.72952576  0.51272069  0.38112301  1
  O  O125  1  0.78344124  0.50950581  0.92047187  1
  O  O126  1  0.23336218  0.49923137  0.14344241  1
  O  O127  1  0.24304652  0.47668106  0.65666136  1
  O  O128  1  0.26189212  1.00676252  0.13966787  1
  O  O129  1  0.23850561  1.02653043  0.62730136  1
  O  O130  1  0.68297248  0.43148602  0.07097332  1
  O  O131  1  0.74086503  0.49090348  0.62079289  1
  O  O132  1  0.76052955  0.98907265  0.10593290  1
  O  O133  1  0.76416559  0.97869786  0.64871703  1
  O  O134  1  -0.12468374  0.32931031  0.26452344  1
  O  O135  1  0.00424536  0.36343350  0.75000480  1
  O  O136  1  0.04748158  0.74727952  0.25794839  1
  O  O137  1  0.04375665  0.87720137  0.72449257  1
  O  O138  1  0.57944214  0.30513089  0.22046094  1
  O  O139  1  0.47966772  0.36030593  0.76469359  1
  O  O140  1  0.53340694  0.90336530  0.23967799  1
  O  O141  1  0.45681197  0.81865209  0.65495692  1
  O  O142  1  0.48906625  0.12197534  0.24668571  1
  O  O143  1  0.50785319  0.14002602  0.75889649  1
  O  O144  1  0.47845225  0.64307507  0.25979840  1
  O  O145  1  0.53544836  0.73338436  0.77274507  1
  O  O146  1  1.01503969  0.29248505  0.29968614  1
  O  O147  1  0.99501199  0.13971478  0.74577645  1
  O  O148  1  0.91436546  0.53335137  0.22038746  1
  O  O149  1  1.00653737  0.60697515  0.77280042  1
  O  O150  1  0.39552553  0.25718388  0.02732649  1
  O  O151  1  0.38305815  0.24721443  0.53552460  1
  O  O152  1  0.44967022  0.81534319  0.10632479  1
  O  O153  1  0.33007458  0.76695525  0.47601857  1
  O  O154  1  0.79647011  0.31936423  0.03010763  1
  O  O155  1  0.85236186  0.25625507  0.50722738  1
  O  O156  1  0.90064308  0.77273578  -0.01015126  1
  O  O157  1  0.82916303  0.74441793  0.52834610  1
  O  O158  1  0.09329620  0.22401587  0.48169554  1
  O  O159  1  0.13185915  0.23462712  0.98621767  1
  O  O160  1  0.12627155  0.79572030  0.45812422  1
  O  O161  1  0.13871010  0.74282580  0.95679267  1
  O  O162  1  0.63949643  0.22979426  0.54574461  1
  O  O163  1  0.64363777  0.23048681  0.99425077  1
  O  O164  1  0.60866807  0.71981714  0.50087783  1
  O  O165  1  0.59264093  0.73090244  0.99517189  1
  O  O166  1  0.56431051  0.25236101  0.16519949  1
  O  O167  1  0.48379490  0.25883044  0.64527632  1
  O  O168  1  0.49273881  0.71118901  0.25035301  1
  O  O169  1  0.48046146  0.77402451  0.59830283  1
  O  O170  1  1.02013384  0.20988219  0.13953723  1
  O  O171  1  0.98949639  0.24385050  0.64030828  1
  O  O172  1  0.97844855  0.73690137  0.12286416  1
  O  O173  1  0.99711495  0.70286872  0.56858196  1
  O  O174  1  -0.02788648  0.35202447  0.41364315  1
  O  O175  1  -0.01189353  0.24449842  0.85774516  1
  O  O176  1  0.03395007  0.67100160  0.27698081  1
  O  O177  1  0.02450807  0.76849408  0.85470599  1
  O  O178  1  0.52906817  0.24846559  0.36140014  1
  O  O179  1  0.51122134  0.26193405  0.86077200  1
  O  O180  1  0.46907329  0.84442124  0.41812799  1
  O  O181  1  0.51072495  0.75272350  0.84027700  1
  O  O182  1  0.25979070  0.14859544  0.48534867  1
  O  O183  1  0.24902504  0.11824012  0.98140710  1
  O  O184  1  0.19512918  0.68820192  0.47327218  1
  O  O185  1  0.24180950  0.66451503  0.92892091  1
  O  O186  1  0.74822641  0.14143151  0.51602647  1
  O  O187  1  0.77182810  0.13247457  0.96756993  1
  O  O188  1  0.74039926  0.65857668  0.45213881  1
  O  O189  1  0.71168180  0.61399273  1.01814777  1
  O  O190  1  0.27835302  0.36454640  0.03877241  1
  O  O191  1  0.23792527  0.35660791  0.52714073  1
  O  O192  1  0.32527254  0.81222788  -0.01864581  1
  O  O193  1  0.22135176  0.89240219  0.47810717  1
  O  O194  1  0.63127052  0.38582150  0.05914755  1
  O  O195  1  0.73250241  0.36684519  0.52544906  1
  O  O196  1  0.76565046  0.88620694  -0.00954099  1
  O  O197  1  0.69911668  0.83821429  0.50711830  1
  O  O198  1  0.13180451  0.49434337  0.25604517  1
  O  O199  1  0.12026873  0.47429638  0.74691583  1
  O  O200  1  0.17033983  1.06278295  0.23467142  1
  O  O201  1  0.14012730  0.99045582  0.75007147  1
  O  O202  1  0.65414707  0.47181906  0.21691676  1
  O  O203  1  0.61478021  0.53506266  0.71095445  1
  O  O204  1  0.65776696  0.98888633  0.21698992  1
  O  O205  1  0.65031227  0.99706557  0.74601171  1
  O  O206  1  0.37849766  -0.00821791  0.24446975  1
  O  O207  1  0.35057030  -0.00516300  0.73946831  1
  O  O208  1  0.34324111  0.48389904  0.26332477  1
  O  O209  1  0.38856739  0.52938544  0.70081974  1
  O  O210  1  0.86686330  -0.05126039  0.26115425  1
  O  O211  1  0.86905574  -0.02929640  0.75632737  1
  O  O212  1  0.94103413  0.46779698  0.21859650  1
  O  O213  1  0.91309636  0.51573980  0.76794340  1
  O  O214  1  0.08747727  0.40633680  0.39304608  1
  O  O215  1  0.12760597  0.37456126  0.86464062  1
  O  O216  1  0.09465514  0.92220969  0.36563104  1
  O  O217  1  0.14018213  0.87991260  0.86063603  1
  O  O218  1  0.60581253  0.39186606  0.38485872  1
  O  O219  1  0.59785230  0.39704574  0.85851243  1
  O  O220  1  0.64324694  0.87846284  0.34891028  1
  O  O221  1  0.62091007  0.88212469  0.89740740  1
  O  O222  1  0.39057834  0.12483929  0.11432165  1
  O  O223  1  0.37717909  0.13495576  0.63867780  1
  O  O224  1  0.37404483  0.66622412  0.13570122  1
  O  O225  1  0.29614719  0.63120505  0.56486655  1
  O  O226  1  0.90309409  0.11470251  0.09713586  1
  O  O227  1  0.88345569  0.11638908  0.64957261  1
  O  O228  1  0.86640478  0.64372117  0.06813030  1
  O  O229  1  0.88421776  0.63017223  0.68169364  1
  O  O230  1  0.23598081  0.22335504  0.13271620  1
  O  O231  1  0.25922034  0.24514392  0.64109726  1
  O  O232  1  0.28482254  0.77712615  0.18526663  1
  O  O233  1  0.22536308  0.78579544  0.58240504  1
  O  O234  1  0.73115783  0.27677774  0.17628299  1
  O  O235  1  0.76118440  0.26994552  0.62923627  1
  O  O236  1  0.73497775  0.76336734  0.08288707  1
  O  O237  1  0.70753072  0.71142469  0.62038229  1
  O  O238  1  0.21200263  0.20150264  0.33869694  1
  O  O239  1  0.25510046  0.21975523  0.85981621  1
  O  O240  1  0.25852430  0.78984800  0.37919245  1
  O  O241  1  0.35131530  0.75425766  1.01293210  1
  O  O242  1  0.72637974  0.26351724  0.41252801  1
  O  O243  1  0.73489114  0.24265704  0.86092047  1
  O  O244  1  0.89163559  0.75177681  0.35624706  1
  O  O245  1  0.72984989  0.73620686  0.91438012  1
  O  O246  1  0.02201129  0.12275535  -0.00497171  1
  O  O247  1  -0.01431419  0.12252178  0.52754120  1
  O  O248  1  0.04630731  0.64024097  -0.02464172  1
  O  O249  1  0.03807999  0.61323895  0.44122653  1
  O  O250  1  0.52712877  0.13455986  -0.01126001  1
  O  O251  1  0.52635501  0.13465800  0.51414104  1
  O  O252  1  0.41464816  0.62719038  0.08676264  1
  O  O253  1  0.47208280  0.64128349  0.48268696  1
  O  O254  1  0.50174558  0.33729722  0.48898043  1
  O  O255  1  0.49634041  0.37266369  0.97768025  1
  O  O256  1  0.51490248  0.88641519  0.46228122  1
  O  O257  1  0.46876553  0.85807156  1.05260833  1
  O  O258  1  1.03249234  0.37955163  0.44432148  1
  O  O259  1  0.98167551  0.34316057  1.01316162  1
  O  O260  1  1.00536429  0.82631699  0.45508906  1
  O  O261  1  0.99362676  0.89577081  1.01620707  1
  O  O262  1  0.44639168  0.43889713  0.36848169  1
  O  O263  1  0.46884376  0.47787408  0.85502484  1
  O  O264  1  0.38707857  0.99616797  0.47654302  1
  O  O265  1  0.47712121  1.00833441  0.84458335  1
  O  O266  1  0.90146238  0.52779533  0.39318736  1
  O  O267  1  1.00517681  0.47235985  0.91078824  1
  O  O268  1  1.03820030  0.94785908  0.32698823  1
  O  O269  1  0.97861917  1.01883859  0.85829421  1
  O  O270  1  0.03306744  0.04322212  0.16187360  1
  O  O271  1  0.01041095  0.02498735  0.64515045  1
  O  O272  1  0.04517335  0.48129284  0.07225175  1
  O  O273  1  0.02511011  0.48730029  0.62018678  1
  O  O274  1  0.53672768  0.01126690  0.11953734  1
  O  O275  1  0.52075525  0.02131101  0.65081868  1
  O  O276  1  0.47781804  0.65854540  0.06155237  1
  O  O277  1  0.49577347  0.46984595  0.61022163  1
  O  O278  1  0.26822185  0.35681404  0.20806659  1
  O  O279  1  0.23773423  0.35529355  0.75660289  1
  O  O280  1  0.25104994  0.92096765  0.28210675  1
  O  O281  1  0.23962104  0.89687743  0.72755957  1
  O  O282  1  0.77895692  0.44813630  0.21380266  1
  O  O283  1  0.73402598  0.38358493  0.73513337  1
  O  O284  1  0.74246815  0.87644728  0.20694801  1
  O  O285  1  0.74113788  0.86346856  0.76130311  1
  O  O286  1  0.31312976  0.12625563  0.25038157  1
  O  O287  1  0.23634131  0.10708895  0.76407805  1
  O  O288  1  0.23463818  0.60837572  0.26175192  1
  O  O289  1  0.27133896  0.63066382  0.72160952  1
  O  O290  1  0.78754197  0.08097468  0.24413121  1
  O  O291  1  0.76692508  0.13740752  0.75225002  1
  O  O292  1  0.72047377  0.64540995  0.28435684  1
  O  O293  1  0.80595809  0.60700616  0.80151837  1
  O  O294  1  0.37580701  0.17805403  0.38137156  1
  O  O295  1  0.36555116  0.11034224  0.86794332  1
  O  O296  1  0.35456073  0.59236888  0.38580309  1
  O  O297  1  0.42195226  0.62002640  0.90198263  1
  O  O298  1  0.94150884  -0.04108375  0.47876977  1
  O  O299  1  0.86701096  0.12328891  0.85167085  1
  O  O300  1  0.90300427  0.68239883  0.37192260  1
  O  O301  1  0.91535426  0.62715011  0.88563644  1
  O  O302  1  0.13404738  0.34920091  0.12396859  1
  O  O303  1  0.13948237  0.35877060  0.64101713  1
  O  O304  1  0.12840933  0.92182314  0.17247721  1
  O  O305  1  0.02573439  0.75397598  0.60969715  1
  O  O306  1  0.71206180  0.43091093  0.23937151  1
  O  O307  1  0.62388715  0.39496710  0.62332467  1
  O  O308  1  0.64263837  0.89377378  0.08692436  1
  O  O309  1  0.60777984  0.89750921  0.62616625  1
  O  O310  1  0.08476789  0.29977713  0.30011322  1
  O  O311  1  0.10797992  0.25792124  0.75725570  1
  O  O312  1  0.11738803  0.76651028  0.25057182  1
  O  O313  1  0.15864784  0.77303725  0.73286572  1
  O  O314  1  0.64086825  0.16795803  0.27278337  1
  O  O315  1  0.60556379  0.25776335  0.73714560  1
  O  O316  1  0.63094183  0.78139479  0.22207019  1
  O  O317  1  0.62103520  0.72706673  0.76726254  1
  O  O318  1  0.40642073  0.25726016  0.21189579  1
  O  O319  1  0.39005181  0.24373924  0.74886330  1
  O  O320  1  0.35257416  0.78719045  0.22598311  1
  O  O321  1  0.39110978  0.79364675  0.68923121  1
  O  O322  1  0.84309488  0.30767897  0.32307066  1
  O  O323  1  0.88416101  0.24842069  0.74436083  1
  O  O324  1  0.84281156  0.74384900  0.19902261  1
  O  O325  1  0.90611056  0.72125776  0.77824737  1
  O  O326  1  0.33986545  0.47140833  0.47865039  1
  O  O327  1  0.36231952  0.50018622  0.98585968  1
  O  O328  1  0.38329598  0.98921170  0.55013668  1
  O  O329  1  0.38198180  0.99547123  0.97996932  1
  O  O330  1  0.89796249  0.54663594  0.47615396  1
  O  O331  1  0.89360867  0.47472875  1.03495907  1
  O  O332  1  0.89997976  0.93614485  0.53449649  1
  O  O333  1  0.87375124  0.99101924  0.97310361  1
  O  O334  1  0.15544922  -0.02580269  0.02902642  1
  O  O335  1  0.12636116  0.05804326  0.47459401  1
  O  O336  1  0.18248827  0.54355907  -0.01327492  1
  O  O337  1  0.16004020  0.49878014  0.53394041  1
  O  O338  1  0.64479369  0.02085950  0.00383888  1
  O  O339  1  0.63594174  0.00719153  0.52393884  1
  O  O340  1  0.52625554  0.50798795  0.12683783  1
  O  O341  1  0.61291903  0.51808267  0.51291658  1
  O  O342  1  0.41458025  0.39162397  0.10623866  1
  O  O343  1  0.34803420  0.36068873  0.64281001  1
  O  O344  1  0.26847369  0.82658883  0.13395043  1
  O  O345  1  0.39255735  0.92099811  0.57950594  1
  O  O346  1  0.79283453  0.24413007  0.16687785  1
  O  O347  1  0.86145113  0.39021550  0.63542430  1
  O  O348  1  0.86102175  0.85893264  0.09892630  1
  O  O349  1  0.93206056  0.88598927  0.58609626  1
  O  O350  1  0.03347126  0.12386933  0.35972016  1
  O  O351  1  0.13421494  0.08959093  0.89282502  1
  O  O352  1  0.08425297  0.57333569  0.40283611  1
  O  O353  1  0.12476935  0.60214287  0.87106837  1
  O  O354  1  0.64162250  0.11759288  0.41514334  1
  O  O355  1  0.64958750  0.11236959  0.87932226  1
  O  O356  1  0.59940089  0.60950336  0.39225460  1
  O  O357  1  0.59684497  0.58806684  0.87946885  1
