# generated using pymatgen
data_V51Zn51O256
_symmetry_space_group_name_H-M   'P 1'
_cell_length_a   17.27371058
_cell_length_b   17.52765573
_cell_length_c   17.30804084
_cell_angle_alpha   90.10328385
_cell_angle_beta   89.49433787
_cell_angle_gamma   89.95040561
_symmetry_Int_Tables_number   1
_chemical_formula_structural   V51Zn51O256
_chemical_formula_sum   'V51 Zn51 O256'
_cell_volume   5240.10026173
_cell_formula_units_Z   1
loop_
 _symmetry_equiv_pos_site_id
 _symmetry_equiv_pos_as_xyz
  1  'x, y, z'
loop_
 _atom_site_type_symbol
 _atom_site_label
 _atom_site_symmetry_multiplicity
 _atom_site_fract_x
 _atom_site_fract_y
 _atom_site_fract_z
 _atom_site_occupancy
  V  V0  1  0.29701140  0.23955350  -0.01204443  1
  V  V1  1  -0.03904291  0.49148632  0.00477415  1
  V  V2  1  0.60978468  0.49607341  0.13022360  1
  V  V3  1  0.53645338  0.02199052  -0.01109009  1
  V  V4  1  0.60129085  0.62134556  -0.00810520  1
  V  V5  1  0.78988348  0.85117151  0.65030974  1
  V  V6  1  0.61981770  0.77314225  0.83258462  1
  V  V7  1  0.89517503  0.73396679  0.60988493  1
  V  V8  1  0.55973578  0.13174582  0.62027094  1
  V  V9  1  0.50668791  0.36998496  0.84254620  1
  V  V10  1  0.88034340  0.82670170  -0.01936692  1
  V  V11  1  0.65292497  0.33828758  0.73387409  1
  V  V12  1  0.23884467  0.71718661  0.51861134  1
  V  V13  1  0.46661460  0.71670025  0.74930601  1
  V  V14  1  0.88905711  0.51038541  0.35561179  1
  V  V15  1  -0.01323175  0.37226212  0.88181548  1
  V  V16  1  0.74384994  0.73348950  0.00730386  1
  V  V17  1  0.24092245  0.75478521  0.00392606  1
  V  V18  1  -0.00686600  0.15884209  0.65929324  1
  V  V19  1  0.13125712  0.38209158  0.75430998  1
  V  V20  1  0.72131620  0.67902499  0.41844264  1
  V  V21  1  0.74857014  -0.00087687  0.19831265  1
  V  V22  1  0.34786665  0.76074154  0.13731666  1
  V  V23  1  0.62806768  0.51283257  0.60498409  1
  V  V24  1  0.81466120  0.27419380  0.07441323  1
  V  V25  1  0.49113002  0.75657793  0.25411570  1
  V  V26  1  0.74508651  0.50286776  0.74734913  1
  V  V27  1  -0.00628304  0.73189487  0.76487424  1
  V  V28  1  0.25984729  0.61537138  0.89121831  1
  V  V29  1  0.76599615  0.08176828  0.85832918  1
  V  V30  1  0.01973396  0.50247504  0.48598458  1
  V  V31  1  0.27398546  0.49295126  0.25310920  1
  V  V32  1  0.75957207  0.18421222  0.41102739  1
  V  V33  1  -0.00670280  0.74806093  0.25631650  1
  V  V34  1  0.23801356  0.38307254  0.10282098  1
  V  V35  1  0.89137083  0.38090604  0.48391026  1
  V  V36  1  0.00939097  0.59415083  0.63058759  1
  V  V37  1  0.33760536  0.93823942  0.47634593  1
  V  V38  1  0.38001036  0.13065822  0.74001139  1
  V  V39  1  0.11160682  0.60542637  0.01099037  1
  V  V40  1  0.26757345  0.50075901  0.76264592  1
  V  V41  1  0.78359853  0.38803504  0.60953713  1
  V  V42  1  0.02862244  0.24735883  0.18455810  1
  V  V43  1  0.24026870  0.24001929  0.45886921  1
  V  V44  1  0.87083057  0.60267326  0.75757048  1
  V  V45  1  0.14644616  0.71741985  0.37472295  1
  V  V46  1  0.65538796  -0.02664862  0.58681274  1
  V  V47  1  0.47783484  0.63684416  0.10979952  1
  V  V48  1  0.35091474  0.25374150  0.61863958  1
  V  V49  1  0.24721072  0.12980183  0.86565809  1
  V  V50  1  0.10839037  0.73808087  0.88599009  1
  Zn  Zn51  1  0.28575774  0.57715660  0.08985992  1
  Zn  Zn52  1  0.26674246  0.08984143  0.55402895  1
  Zn  Zn53  1  0.40924057  0.13671513  0.50005227  1
  Zn  Zn54  1  0.66495032  0.27735087  0.56209460  1
  Zn  Zn55  1  0.72603142  0.49394409  0.44727781  1
  Zn  Zn56  1  0.15446225  0.49927243  0.61007785  1
  Zn  Zn57  1  0.21844069  0.29282344  0.26030638  1
  Zn  Zn58  1  0.47607433  0.52875955  0.24620414  1
  Zn  Zn59  1  0.08808412  0.77299297  0.58814502  1
  Zn  Zn60  1  0.56242025  0.04847170  0.78443549  1
  Zn  Zn61  1  0.60417134  0.63081766  0.26483453  1
  Zn  Zn62  1  0.70076524  0.67869216  0.66665696  1
  Zn  Zn63  1  0.77848261  0.35206485  0.88544864  1
  Zn  Zn64  1  0.70413963  0.90460748  0.92084089  1
  Zn  Zn65  1  0.45190064  0.52960180  0.69353693  1
  Zn  Zn66  1  0.88882564  0.22632443  0.89335824  1
  Zn  Zn67  1  0.16774789  0.91856753  0.57331746  1
  Zn  Zn68  1  0.18396328  0.66849583  0.70744103  1
  Zn  Zn69  1  0.06732742  0.05977917  0.81595930  1
  Zn  Zn70  1  0.77864801  0.45119775  0.05330207  1
  Zn  Zn71  1  0.91048010  0.28379783  0.32522026  1
  Zn  Zn72  1  0.40746288  0.80499981  0.59424783  1
  Zn  Zn73  1  0.57224798  0.55592473  0.80498904  1
  Zn  Zn74  1  0.17962147  0.67523135  0.18822004  1
  Zn  Zn75  1  0.05400593  0.55166120  0.82498664  1
  Zn  Zn76  1  0.63970452  0.44622880  0.92661383  1
  Zn  Zn77  1  0.65914869  0.20055347  0.16952443  1
  Zn  Zn78  1  0.05969044  0.79592987  0.07596481  1
  Zn  Zn79  1  0.51481118  0.36987327  0.63004646  1
  Zn  Zn80  1  0.47600555  0.89215493  0.13218924  1
  Zn  Zn81  1  0.92237685  0.41238380  0.17745671  1
  Zn  Zn82  1  0.92904843  0.18033347  0.46493474  1
  Zn  Zn83  1  0.44446019  0.99587197  0.61554918  1
  Zn  Zn84  1  0.80881319  0.82088575  0.29529328  1
  Zn  Zn85  1  0.92701707  0.65239532  0.94105885  1
  Zn  Zn86  1  0.96755909  0.67331826  0.43036142  1
  Zn  Zn87  1  0.06108281  0.34012497  0.57845318  1
  Zn  Zn88  1  0.83203013  0.55713335  0.55702415  1
  Zn  Zn89  1  0.00312612  0.58686819  0.14917008  1
  Zn  Zn90  1  0.32045324  0.31213511  0.80484896  1
  Zn  Zn91  1  0.62087193  0.76220384  0.13827987  1
  Zn  Zn92  1  0.20222670  0.54691273  0.43646846  1
  Zn  Zn93  1  0.05913718  0.16451399  0.31180546  1
  Zn  Zn94  1  0.16700016  0.45289729  0.91383888  1
  Zn  Zn95  1  1.04222901  0.91614626  0.71319147  1
  Zn  Zn96  1  0.81910023  0.05911849  0.05061126  1
  Zn  Zn97  1  0.34182647  0.78264992  0.35174333  1
  Zn  Zn98  1  0.61856431  0.09031270  0.30644463  1
  Zn  Zn99  1  0.32010212  0.04326788  -0.01239358  1
  Zn  Zn100  1  0.07617950  0.33446918  0.02079201  1
  Zn  Zn101  1  0.19370367  0.20561387  0.70479576  1
  O  O102  1  0.22437560  0.04360353  0.11518830  1
  O  O103  1  0.09953057  0.14783123  0.66393790  1
  O  O104  1  0.10743708  0.62522952  0.11612403  1
  O  O105  1  0.10986821  0.59989050  0.64760143  1
  O  O106  1  0.58491000  0.15939098  0.23225447  1
  O  O107  1  0.64591869  0.07773088  0.61757501  1
  O  O108  1  0.59225969  0.65779888  0.10585042  1
  O  O109  1  0.63195037  0.60977115  0.60855493  1
  O  O110  1  0.37224247  0.39936668  0.45601189  1
  O  O111  1  0.40795646  0.36989523  0.83734579  1
  O  O112  1  0.36075438  0.88987959  0.39470884  1
  O  O113  1  0.36530969  0.86667575  0.86147924  1
  O  O114  1  0.90040489  0.38855548  0.38257876  1
  O  O115  1  0.88919583  0.38704967  0.86167522  1
  O  O116  1  0.81601077  0.90333411  0.39684012  1
  O  O117  1  0.91403548  0.85568008  0.89883921  1
  O  O118  1  0.14349623  0.02559882  0.32302158  1
  O  O119  1  0.28670925  0.04030083  0.87883883  1
  O  O120  1  0.24961917  0.49754180  0.34874015  1
  O  O121  1  0.25804314  0.51122488  0.88930819  1
  O  O122  1  0.79215875  0.02379656  0.28475722  1
  O  O123  1  0.77648224  -0.01643155  0.88594500  1
  O  O124  1  0.78939770  0.49990256  0.35839959  1
  O  O125  1  0.72990450  0.49874200  0.84182707  1
  O  O126  1  0.28363185  0.46769678  0.08491596  1
  O  O127  1  0.24773423  0.51020031  0.66671010  1
  O  O128  1  0.27737028  0.99271984  0.07916354  1
  O  O129  1  0.27057159  0.97267333  0.67095663  1
  O  O130  1  0.70986151  0.50195808  0.12444683  1
  O  O131  1  0.74376933  0.49853715  0.61476243  1
  O  O132  1  0.73949769  0.97193953  0.09606174  1
  O  O133  1  0.76939078  1.00340128  0.58407557  1
  O  O134  1  -0.04123035  0.31493395  0.22403585  1
  O  O135  1  0.03094467  0.38263703  0.78471621  1
  O  O136  1  0.02043699  0.99939939  0.47615503  1
  O  O137  1  -0.00581833  0.82604950  0.75865949  1
  O  O138  1  0.50361227  0.31985825  0.27128364  1
  O  O139  1  0.54320670  0.34834180  0.74364506  1
  O  O140  1  0.48219407  0.85358515  0.24020484  1
  O  O141  1  0.38617332  0.89909939  0.80234789  1
  O  O142  1  0.54672802  0.19070226  0.39264681  1
  O  O143  1  0.52429951  0.12799896  0.71618429  1
  O  O144  1  0.48811476  0.64241121  0.22853016  1
  O  O145  1  0.49853954  0.61737222  0.74392636  1
  O  O146  1  1.00391459  0.15651638  0.21053251  1
  O  O147  1  1.00546796  0.15324603  0.76236950  1
  O  O148  1  0.96719039  0.65995847  0.22110490  1
  O  O149  1  0.98725873  0.60032018  0.74406761  1
  O  O150  1  0.38992252  0.23648751  0.00009144  1
  O  O151  1  0.33850346  0.23384652  0.49374417  1
  O  O152  1  0.33875262  0.75345020  0.00805231  1
  O  O153  1  0.32928847  0.75743064  0.53563938  1
  O  O154  1  0.82370279  0.27641536  -0.02588849  1
  O  O155  1  0.89718417  0.28603521  0.49717225  1
  O  O156  1  0.84597046  0.72137308  -0.01875298  1
  O  O157  1  0.90860724  0.72817472  0.51349874  1
  O  O158  1  0.14527838  0.29740896  0.49715895  1
  O  O159  1  0.26419332  0.21834325  1.09813130  1
  O  O160  1  0.13545052  0.75121242  0.48316707  1
  O  O161  1  0.11128846  0.72697029  0.99992930  1
  O  O162  1  0.53540103  0.36641121  0.43438130  1
  O  O163  1  0.55636428  0.24718670  1.09038940  1
  O  O164  1  0.55918729  0.82211904  0.49173109  1
  O  O165  1  0.63534797  0.75296083  0.95767794  1
  O  O166  1  0.43481776  0.29274314  0.26317692  1
  O  O167  1  0.56719871  0.22256163  0.58592054  1
  O  O168  1  0.46265952  0.74581190  0.14131216  1
  O  O169  1  0.48012575  0.76470187  0.66103077  1
  O  O170  1  1.04322769  0.25450143  0.08676734  1
  O  O171  1  1.01661733  0.25796145  0.64302575  1
  O  O172  1  1.05409178  0.78772639  0.18875337  1
  O  O173  1  1.00335680  0.71784942  0.64215300  1
  O  O174  1  -0.01390885  0.21399767  0.37763642  1
  O  O175  1  -0.01393213  0.27291266  0.89530777  1
  O  O176  1  0.03346377  0.73658715  0.35799577  1
  O  O177  1  -0.00359144  0.71342711  0.87015368  1
  O  O178  1  0.47782098  0.20197019  0.41255834  1
  O  O179  1  0.53319593  0.30992825  0.90937855  1
  O  O180  1  0.45065628  0.74488283  0.34484161  1
  O  O181  1  0.51579037  0.76601916  0.82956480  1
  O  O182  1  0.20278959  0.15404919  0.49164142  1
  O  O183  1  0.25966783  0.14117406  0.97881929  1
  O  O184  1  0.24701189  0.62014709  0.51194193  1
  O  O185  1  0.22636065  0.62368943  1.00351748  1
  O  O186  1  0.69748039  0.24211163  0.46324005  1
  O  O187  1  0.75209709  0.08945134  0.96605873  1
  O  O188  1  0.76653567  0.61310624  0.47985047  1
  O  O189  1  0.70883556  0.63850774  1.00876760  1
  O  O190  1  0.26153983  0.33567274  0.01120858  1
  O  O191  1  0.21354773  0.33994242  0.49353679  1
  O  O192  1  0.21761446  0.84522685  -0.00308948  1
  O  O193  1  0.24209014  0.91774382  0.49412187  1
  O  O194  1  0.72637410  0.40152438  -0.02922714  1
  O  O195  1  0.78377925  0.40317930  0.49908441  1
  O  O196  1  0.77075297  0.84457712  -0.01817410  1
  O  O197  1  0.66500567  0.74183808  0.48775481  1
  O  O198  1  0.08413223  0.40733197  0.30849742  1
  O  O199  1  0.14027925  0.48343583  0.79330486  1
  O  O200  1  0.20174420  1.02310360  0.18096695  1
  O  O201  1  0.13538516  0.96398748  0.77563085  1
  O  O202  1  0.59312591  0.52446722  0.23119632  1
  O  O203  1  0.64032385  0.50869750  0.72257978  1
  O  O204  1  0.65070146  0.99627344  0.22849537  1
  O  O205  1  0.58063758  0.95757667  0.71825449  1
  O  O206  1  0.44129740  -0.01100589  0.20484781  1
  O  O207  1  0.39876964  0.03676247  0.70829129  1
  O  O208  1  0.37192897  0.49138421  0.24566601  1
  O  O209  1  0.36709255  0.50313886  0.75660051  1
  O  O210  1  0.84486717  0.02761453  0.15705018  1
  O  O211  1  0.99275508  -0.00628283  0.77401373  1
  O  O212  1  0.91296016  0.48743846  0.26162175  1
  O  O213  1  0.85672815  0.50440928  0.73990765  1
  O  O214  1  0.10372824  0.37045167  0.36521503  1
  O  O215  1  0.10220991  0.36713139  0.91860216  1
  O  O216  1  -0.00588911  1.04674868  0.43055339  1
  O  O217  1  0.09872744  0.83014064  0.88878514  1
  O  O218  1  0.59048532  0.36474890  0.38949713  1
  O  O219  1  0.67133714  0.34992304  0.83219796  1
  O  O220  1  0.61176594  0.79874242  0.44781497  1
  O  O221  1  0.64339602  0.86695275  0.83797278  1
  O  O222  1  0.41776070  0.05967696  0.18498844  1
  O  O223  1  0.35551824  0.14840487  0.61038748  1
  O  O224  1  0.37207899  0.64384932  0.11110208  1
  O  O225  1  0.47595336  0.64591508  0.52495173  1
  O  O226  1  0.85968384  0.16625542  0.06345873  1
  O  O227  1  0.89907920  0.18769532  0.67673941  1
  O  O228  1  0.81481420  0.61937216  0.16383290  1
  O  O229  1  0.89274340  0.61994979  0.62852507  1
  O  O230  1  0.26972727  0.28078213  0.14646855  1
  O  O231  1  0.25509734  0.27330696  0.63294714  1
  O  O232  1  0.24135038  0.74010741  0.11600614  1
  O  O233  1  0.19683769  0.73323811  0.61576126  1
  O  O234  1  0.72164641  0.25134040  0.10023851  1
  O  O235  1  0.76888378  0.29234067  0.60708051  1
  O  O236  1  0.72963491  0.75821718  0.10177085  1
  O  O237  1  0.78484391  0.74508263  0.62658182  1
  O  O238  1  0.24254949  0.24821625  0.36000303  1
  O  O239  1  0.27969621  0.23770007  0.87973733  1
  O  O240  1  0.25098125  0.73925623  0.40623730  1
  O  O241  1  0.21899823  0.72336544  0.89440374  1
  O  O242  1  0.80897146  0.23598496  0.34009150  1
  O  O243  1  0.72853236  0.17286120  0.84499100  1
  O  O244  1  0.77124235  0.74197777  0.36037717  1
  O  O245  1  0.69746238  0.73585120  0.89959962  1
  O  O246  1  0.00425958  0.12636446  -0.02866974  1
  O  O247  1  -0.00806743  0.15255059  0.55670506  1
  O  O248  1  -0.00302020  0.60140195  0.01323894  1
  O  O249  1  0.01143861  0.60584238  0.51796692  1
  O  O250  1  0.56700027  0.11381895  -0.03398994  1
  O  O251  1  0.49301677  0.08437368  0.55742298  1
  O  O252  1  0.49752332  0.64642212  0.00694570  1
  O  O253  1  0.52456688  0.65322663  0.47370472  1
  O  O254  1  0.39376345  0.37229407  0.39420093  1
  O  O255  1  0.49440586  0.22751443  1.11994176  1
  O  O256  1  0.40049787  0.91093800  0.55631510  1
  O  O257  1  0.48574760  0.93640984  1.02510505  1
  O  O258  1  1.00123895  0.39734941  0.50657218  1
  O  O259  1  0.97176768  0.38977225  0.99855970  1
  O  O260  1  1.07735550  0.88147432  0.61448650  1
  O  O261  1  0.95331607  0.80420913  1.04514788  1
  O  O262  1  0.49123919  0.51718789  0.36675891  1
  O  O263  1  0.54752494  0.46345631  0.86672342  1
  O  O264  1  0.53625187  1.01900186  0.35227203  1
  O  O265  1  0.52777763  1.00702963  0.88274873  1
  O  O266  1  1.01581172  0.50725121  0.39021354  1
  O  O267  1  0.99485107  0.49253293  0.90321061  1
  O  O268  1  0.86925046  0.95157521  0.39975876  1
  O  O269  1  1.02142063  1.06685116  0.93603329  1
  O  O270  1  0.06243860  -0.04727280  0.11407944  1
  O  O271  1  -0.02812318  0.06176654  0.64947726  1
  O  O272  1  -0.01940375  0.48684060  0.11183378  1
  O  O273  1  0.00018964  0.50051940  0.61760730  1
  O  O274  1  0.56629667  0.04707519  0.07991915  1
  O  O275  1  0.55586707  -0.04512807  0.64101304  1
  O  O276  1  0.49255671  0.53820687  0.12104277  1
  O  O277  1  0.52192436  0.48647139  0.62236930  1
  O  O278  1  0.24300108  0.39713434  0.21894847  1
  O  O279  1  0.24762823  0.39599320  0.77530585  1
  O  O280  1  0.07847403  1.00403890  0.29778187  1
  O  O281  1  0.19822210  0.92502472  0.81358370  1
  O  O282  1  0.68086348  0.37173640  0.25846423  1
  O  O283  1  0.75086918  0.39677226  0.71784489  1
  O  O284  1  0.76587983  0.90374890  0.22290435  1
  O  O285  1  0.78845622  0.86474725  0.74203066  1
  O  O286  1  0.34934452  0.08019468  0.20234730  1
  O  O287  1  0.27105905  0.13750682  0.75664524  1
  O  O288  1  0.23796270  0.57270256  0.20223852  1
  O  O289  1  0.24132096  0.60830112  0.78279133  1
  O  O290  1  0.72020178  0.09728500  0.17533451  1
  O  O291  1  0.80554395  0.06343638  0.76765479  1
  O  O292  1  0.78299464  0.63154005  0.22596439  1
  O  O293  1  0.76493570  0.61046768  0.73263095  1
  O  O294  1  0.46594147  0.03737263  0.35181952  1
  O  O295  1  0.40754072  0.13461005  0.82994449  1
  O  O296  1  0.42259728  0.54322024  0.39693448  1
  O  O297  1  0.35107764  0.63147541  0.89860165  1
  O  O298  1  0.82797710  0.13703762  0.46660470  1
  O  O299  1  0.86134506  0.11723646  0.88005732  1
  O  O300  1  0.90334234  0.60723502  0.36696008  1
  O  O301  1  0.87007992  0.60877818  0.85428707  1
  O  O302  1  0.14153754  0.38883647  0.09937760  1
  O  O303  1  0.12366714  0.39546852  0.65286304  1
  O  O304  1  0.10093021  0.90736564  0.06262748  1
  O  O305  1  0.21379604  0.86040913  0.78700317  1
  O  O306  1  0.58860447  0.40534369  0.12845395  1
  O  O307  1  0.63251486  0.37498473  0.62168915  1
  O  O308  1  0.58274745  0.86168732  0.11769732  1
  O  O309  1  0.69552797  0.88254949  0.61514070  1
  O  O310  1  0.11372208  0.25682574  0.24054352  1
  O  O311  1  0.14976423  0.28612343  0.76719538  1
  O  O312  1  0.16895837  0.73706788  0.28003608  1
  O  O313  1  0.10467760  0.71660341  0.77567708  1
  O  O314  1  0.66970867  0.30292130  0.26520176  1
  O  O315  1  0.66535201  0.24789369  0.71591041  1
  O  O316  1  0.59595645  0.74566565  0.25148221  1
  O  O317  1  0.64773565  0.73748944  0.74567717  1
  O  O318  1  0.42524314  0.21984012  0.26112029  1
  O  O319  1  0.37955058  0.24091648  0.71982621  1
  O  O320  1  0.33783168  0.75803509  0.23649159  1
  O  O321  1  0.37370280  0.72093817  0.76529811  1
  O  O322  1  0.87875179  0.20815390  0.13045656  1
  O  O323  1  0.82689669  0.27401219  0.81521914  1
  O  O324  1  0.91235495  0.80469335  0.26420251  1
  O  O325  1  0.89288073  0.71324947  0.74138397  1
  O  O326  1  0.41000538  0.52941866  0.46818645  1
  O  O327  1  0.44683095  0.38219611  1.03801183  1
  O  O328  1  0.34484396  1.04081414  0.47846431  1
  O  O329  1  0.43575399  1.04849746  0.99200403  1
  O  O330  1  0.90161606  0.49973813  0.48189082  1
  O  O331  1  0.86492034  0.50919393  1.00463635  1
  O  O332  1  0.82284187  0.95408768  0.60265402  1
  O  O333  1  0.90361122  0.99655877  1.00425246  1
  O  O334  1  0.05229304  0.02139174  0.09406139  1
  O  O335  1  0.21380066  0.01729580  0.62295668  1
  O  O336  1  0.12308661  0.50981110  0.00865700  1
  O  O337  1  0.12521561  0.49483270  0.50255106  1
  O  O338  1  0.61921962  -0.03620189  -0.02881394  1
  O  O339  1  0.63582383  -0.03069087  0.49592250  1
  O  O340  1  0.60181707  0.52397293  0.01612780  1
  O  O341  1  0.63384607  0.49286269  0.50717341  1
  O  O342  1  0.42867973  0.36518877  0.10386792  1
  O  O343  1  0.41762140  0.32607884  0.59854068  1
  O  O344  1  0.36732892  0.85453191  0.11841997  1
  O  O345  1  0.25910911  0.90057623  0.66428356  1
  O  O346  1  0.83682377  0.36601680  0.11333946  1
  O  O347  1  0.88006179  0.39730934  0.60992927  1
  O  O348  1  0.90371072  0.93110213  0.03904603  1
  O  O349  1  0.89610944  0.83430474  0.62546014  1
  O  O350  1  0.15415149  0.10418867  0.33032086  1
  O  O351  1  0.14989196  0.12034816  0.85379081  1
  O  O352  1  0.14074547  0.62227533  0.37909252  1
  O  O353  1  0.11239983  0.61659720  0.90277875  1
  O  O354  1  0.69992160  0.11206775  0.37249469  1
  O  O355  1  0.67038329  0.05563345  0.82844208  1
  O  O356  1  0.65679321  0.63038117  0.36376299  1
  O  O357  1  0.60086054  0.61872223  0.89250828  1
