# generated using pymatgen
data_V51Zn51O256
_symmetry_space_group_name_H-M   'P 1'
_cell_length_a   17.44291389
_cell_length_b   17.46732770
_cell_length_c   17.68067184
_cell_angle_alpha   89.07057394
_cell_angle_beta   89.09379105
_cell_angle_gamma   91.47657035
_symmetry_Int_Tables_number   1
_chemical_formula_structural   V51Zn51O256
_chemical_formula_sum   'V51 Zn51 O256'
_cell_volume   5383.75895464
_cell_formula_units_Z   1
loop_
 _symmetry_equiv_pos_site_id
 _symmetry_equiv_pos_as_xyz
  1  'x, y, z'
loop_
 _atom_site_type_symbol
 _atom_site_label
 _atom_site_symmetry_multiplicity
 _atom_site_fract_x
 _atom_site_fract_y
 _atom_site_fract_z
 _atom_site_occupancy
  V  V0  1  0.65685947  0.81161422  0.73108525  1
  V  V1  1  0.83763248  0.57052598  0.72990459  1
  V  V2  1  -0.02124555  0.61831945  0.09327875  1
  V  V3  1  0.02062362  0.02514535  0.46510116  1
  V  V4  1  0.71782196  0.50929506  0.31280725  1
  V  V5  1  0.88830981  0.24530966  0.62745440  1
  V  V6  1  0.89040654  0.36452839  0.49344902  1
  V  V7  1  0.48983678  0.48000541  0.52318998  1
  V  V8  1  0.51670037  0.73328108  0.28674817  1
  V  V9  1  0.25918928  0.45721550  0.77199595  1
  V  V10  1  0.12725559  0.61816214  -0.03310175  1
  V  V11  1  0.10187254  0.24865711  0.87059397  1
  V  V12  1  0.13106973  0.02959915  0.61490863  1
  V  V13  1  0.03267698  0.72832431  0.21136498  1
  V  V14  1  0.61455954  0.38380688  0.26565868  1
  V  V15  1  0.75266812  0.74157810  -0.02260367  1
  V  V16  1  0.01774189  0.49253867  0.48974028  1
  V  V17  1  0.24260987  0.02000751  0.74293001  1
  V  V18  1  0.69642478  0.58847849  0.49909880  1
  V  V19  1  0.71380147  0.39470397  0.57166506  1
  V  V20  1  0.10416214  0.47933579  0.09643847  1
  V  V21  1  0.23485568  0.24053378  0.01351571  1
  V  V22  1  0.19338241  0.90065672  0.07678780  1
  V  V23  1  0.76156349  0.21569717  0.50640050  1
  V  V24  1  0.37005790  0.14289727  0.71903370  1
  V  V25  1  0.25739497  0.12909408  0.87668385  1
  V  V26  1  0.53820561  0.11795357  0.63997121  1
  V  V27  1  0.31723958  0.75484517  0.08735966  1
  V  V28  1  0.57201250  0.73198593  0.88721964  1
  V  V29  1  0.11363081  0.09940721  -0.02157756  1
  V  V30  1  0.12135782  0.25952909  0.34445038  1
  V  V31  1  0.48917269  0.00410297  0.51902987  1
  V  V32  1  0.52208734  0.38294094  0.88191384  1
  V  V33  1  0.21034733  0.13345321  0.33676400  1
  V  V34  1  0.47511865  0.64711150  0.62779825  1
  V  V35  1  0.37235737  0.46843394  0.35844369  1
  V  V36  1  0.23148243  0.28526271  0.51848096  1
  V  V37  1  -0.05121987  -0.05635565  -0.08382401  1
  V  V38  1  0.87476248  0.59065940  0.24114510  1
  V  V39  1  -0.00035671  0.37013823  0.35747321  1
  V  V40  1  0.24338502  0.88220688  0.63069106  1
  V  V41  1  0.86576569  0.46626644  0.85973037  1
  V  V42  1  0.29602878  0.66716297  0.86219143  1
  V  V43  1  0.83112207  0.81474590  0.14211463  1
  V  V44  1  0.37029193  0.87620421  0.51469618  1
  V  V45  1  0.03450393  0.80248080  0.81530060  1
  V  V46  1  0.95670228  0.85192545  0.48076945  1
  V  V47  1  0.00181453  0.13235915  0.64336736  1
  V  V48  1  0.68964424  0.89231635  0.08197913  1
  V  V49  1  -0.01123192  0.10872861  0.09931490  1
  V  V50  1  0.75444744  0.13663158  0.35413907  1
  Zn  Zn51  1  0.18386515  0.20242988  0.69430528  1
  Zn  Zn52  1  0.58380386  0.17343552  0.45564664  1
  Zn  Zn53  1  0.23464850  0.99840011  0.47979111  1
  Zn  Zn54  1  0.18672754  0.43501440  0.42088095  1
  Zn  Zn55  1  0.83667111  0.03348597  0.44497083  1
  Zn  Zn56  1  0.93216509  0.80891852  0.29397606  1
  Zn  Zn57  1  0.70669638  0.21897835  0.19064738  1
  Zn  Zn58  1  0.18353647  0.41578387  0.94003624  1
  Zn  Zn59  1  0.47771267  0.18233715  0.83196329  1
  Zn  Zn60  1  0.81869489  0.84564074  0.82145749  1
  Zn  Zn61  1  0.95531563  0.13331141  0.89865399  1
  Zn  Zn62  1  0.77113818  0.33522803  0.75364915  1
  Zn  Zn63  1  0.18646336  0.62607162  0.15335550  1
  Zn  Zn64  1  0.19574138  0.09718606  0.14630236  1
  Zn  Zn65  1  0.91969807  0.45005774  0.64977151  1
  Zn  Zn66  1  0.77677386  0.34346310  0.37469583  1
  Zn  Zn67  1  0.71133707  0.17666968  0.68967215  1
  Zn  Zn68  1  0.17383489  0.93789919  0.90057804  1
  Zn  Zn69  1  0.51769187  0.32030648  0.59530022  1
  Zn  Zn70  1  0.64616065  0.61733395  0.69033712  1
  Zn  Zn71  1  0.53498527  0.35365573  0.09058365  1
  Zn  Zn72  1  0.93495966  0.18634646  0.42222793  1
  Zn  Zn73  1  0.43144031  0.18181962  1.01459984  1
  Zn  Zn74  1  0.06579196  0.06650748  0.80106956  1
  Zn  Zn75  1  0.96701484  0.66702027  0.39845314  1
  Zn  Zn76  1  0.94958732  0.43326274  0.18446250  1
  Zn  Zn77  1  0.55568877  0.82727324  0.57114355  1
  Zn  Zn78  1  0.40511117  0.30997281  0.44537099  1
  Zn  Zn79  1  0.32754581  0.30188415  0.82833820  1
  Zn  Zn80  1  0.04610485  0.79592722  0.01206612  1
  Zn  Zn81  1  0.30563966  0.72655315  0.71360587  1
  Zn  Zn82  1  0.39037729  0.78907473  0.39516504  1
  Zn  Zn83  1  0.87061470  0.57564900  0.52452088  1
  Zn  Zn84  1  0.04613168  0.85084077  0.63718102  1
  Zn  Zn85  1  0.91656298  0.96630813  0.60821360  1
  Zn  Zn86  1  0.72495995  0.41879195  0.93175823  1
  Zn  Zn87  1  0.83331347  0.56736870  0.02436383  1
  Zn  Zn88  1  0.96190539  0.62315710  0.88752350  1
  Zn  Zn89  1  0.42168370  0.95332928  0.69386034  1
  Zn  Zn90  1  0.42026006  0.67626289  0.97085886  1
  Zn  Zn91  1  0.64536244  1.01424358  0.41055623  1
  Zn  Zn92  1  1.00808916  0.92060768  0.14099019  1
  Zn  Zn93  1  0.84827684  -0.00186505  0.07636841  1
  Zn  Zn94  1  0.47234131  0.58042954  0.81051861  1
  Zn  Zn95  1  0.47050187  0.48066410  0.19960585  1
  Zn  Zn96  1  0.41111183  0.83045870  0.85984443  1
  Zn  Zn97  1  0.55741684  0.55761837  0.38601219  1
  Zn  Zn98  1  0.10093855  0.26960734  0.13827278  1
  Zn  Zn99  1  0.05056504  0.26954293  0.51600170  1
  Zn  Zn100  1  0.49010117  0.86145033  0.13191914  1
  Zn  Zn101  1  0.46315799  0.43065270  0.70345735  1
  O  O102  1  0.11213881  0.08999179  0.07780711  1
  O  O103  1  0.11358696  0.13194176  0.62608311  1
  O  O104  1  0.08832819  0.60521900  0.06994714  1
  O  O105  1  0.07783371  0.63093207  0.63745777  1
  O  O106  1  0.62767715  0.17844323  0.12046104  1
  O  O107  1  0.62943866  0.10616161  0.67034324  1
  O  O108  1  0.60826232  0.56853619  0.14320405  1
  O  O109  1  0.65228000  0.61617955  0.58057632  1
  O  O110  1  0.38814760  0.37275713  0.35616638  1
  O  O111  1  0.42245929  0.35320953  0.87625738  1
  O  O112  1  0.36889021  0.89494696  0.41677251  1
  O  O113  1  0.39748733  0.90969121  0.94562919  1
  O  O114  1  0.89096744  0.35009505  0.38771464  1
  O  O115  1  0.78887546  0.39307315  0.84380929  1
  O  O116  1  0.91052412  0.87846400  0.37737092  1
  O  O117  1  0.91300847  0.86378563  0.75160667  1
  O  O118  1  0.24743605  0.07175495  0.40376715  1
  O  O119  1  0.23465439  0.01685771  0.84215845  1
  O  O120  1  0.27581655  0.48451603  0.37505744  1
  O  O121  1  0.25462302  0.46559402  0.86987994  1
  O  O122  1  0.74881281  0.02462266  0.37927086  1
  O  O123  1  0.71651497  0.04584422  0.91342515  1
  O  O124  1  0.74349618  0.52331412  0.40092775  1
  O  O125  1  0.62245336  0.55451782  0.97855574  1
  O  O126  1  0.16467090  0.51721302  0.16361360  1
  O  O127  1  0.33734522  0.52073125  0.72291228  1
  O  O128  1  0.21489274  0.98353358  0.12096931  1
  O  O129  1  0.23047307  1.03247507  0.62021501  1
  O  O130  1  0.62859366  0.63022145  0.11298950  1
  O  O131  1  0.71640941  0.48929307  0.54223995  1
  O  O132  1  0.73803116  0.97989017  0.07686040  1
  O  O133  1  0.81687062  0.99561380  0.65325879  1
  O  O134  1  -0.01234743  0.36666751  0.26237411  1
  O  O135  1  0.02389144  0.38487292  0.73738785  1
  O  O136  1  0.01247418  0.82994915  0.20899264  1
  O  O137  1  -0.02575479  0.89271728  0.79225074  1
  O  O138  1  0.54918776  0.41113322  0.18322122  1
  O  O139  1  0.54226577  0.40770538  0.78258646  1
  O  O140  1  0.52793135  0.82475084  0.23934724  1
  O  O141  1  0.55147288  0.95148638  0.81463871  1
  O  O142  1  0.46940426  0.22842983  0.18039099  1
  O  O143  1  0.47764517  0.12298818  0.73219837  1
  O  O144  1  0.50410579  0.64238936  0.33303578  1
  O  O145  1  0.53007685  0.60707861  0.70510360  1
  O  O146  1  1.00464735  0.02778200  0.15802369  1
  O  O147  1  1.00157784  0.13583508  0.73758125  1
  O  O148  1  0.98083281  0.63288558  0.20502086  1
  O  O149  1  0.91322790  0.67102303  0.71866749  1
  O  O150  1  0.32945097  0.21471327  0.02385320  1
  O  O151  1  0.31872506  0.25203955  0.48609132  1
  O  O152  1  0.32483328  0.73117106  -0.00710653  1
  O  O153  1  0.36848861  0.77918814  0.51112278  1
  O  O154  1  0.87686756  0.29278923  -0.00856194  1
  O  O155  1  0.87933003  0.24832945  0.50386506  1
  O  O156  1  0.82713959  0.76612939  0.05751900  1
  O  O157  1  0.97665109  0.75853300  0.46675136  1
  O  O158  1  0.14668421  0.25010933  0.46946924  1
  O  O159  1  0.13172683  0.21794230  0.97404609  1
  O  O160  1  0.13997214  0.73169056  0.51833003  1
  O  O161  1  0.10807368  0.71348667  0.97391602  1
  O  O162  1  0.66498276  0.22465698  0.51222894  1
  O  O163  1  0.69308761  0.23172642  0.98026390  1
  O  O164  1  0.70507152  0.84005490  0.50718581  1
  O  O165  1  0.64732005  0.72566246  0.95104794  1
  O  O166  1  0.47932145  0.25412797  0.09608851  1
  O  O167  1  0.53242953  0.21210287  0.61611617  1
  O  O168  1  0.50251906  0.68212461  0.20633236  1
  O  O169  1  0.52271026  0.72258937  0.58479479  1
  O  O170  1  1.01176255  0.19613532  0.13705119  1
  O  O171  1  1.00232140  0.23742817  0.61101804  1
  O  O172  1  0.99895473  0.72204719  0.09923638  1
  O  O173  1  1.04657195  0.78245663  0.72113630  1
  O  O174  1  0.01610562  0.25855409  0.38278097  1
  O  O175  1  0.00381165  0.22936113  0.87205730  1
  O  O176  1  0.01299896  0.72768446  0.31203072  1
  O  O177  1  -0.01737840  0.72663696  0.85204099  1
  O  O178  1  0.48887926  0.22538807  0.42029009  1
  O  O179  1  0.53719376  0.28492412  0.85292090  1
  O  O180  1  0.50636735  0.76958835  0.38551031  1
  O  O181  1  0.48353617  0.76218418  0.92628925  1
  O  O182  1  0.38397885  0.18665994  0.35207117  1
  O  O183  1  0.22467514  0.10774412  0.97419494  1
  O  O184  1  0.13654139  0.60034901  0.61653534  1
  O  O185  1  0.22433005  0.62907479  0.92968587  1
  O  O186  1  0.77430698  0.12019219  0.50030742  1
  O  O187  1  0.64710369  0.11376616  1.08032189  1
  O  O188  1  0.78570934  0.63464272  0.49621261  1
  O  O189  1  0.76168232  0.64709261  1.00156549  1
  O  O190  1  0.23665268  0.33723637  0.00498871  1
  O  O191  1  0.23191925  0.38283336  0.50611195  1
  O  O192  1  0.22692785  0.90180006  -0.01429101  1
  O  O193  1  0.25965174  0.90198629  0.52423108  1
  O  O194  1  0.72993776  0.27886097  -0.05979975  1
  O  O195  1  0.77306871  0.34631765  0.49544861  1
  O  O196  1  0.71472301  0.84111994  0.00300330  1
  O  O197  1  0.85651768  0.85321402  0.43548244  1
  O  O198  1  0.15777139  0.60515549  0.33367470  1
  O  O199  1  0.17924510  0.47924386  0.72925426  1
  O  O200  1  0.15836247  0.86494096  0.32850559  1
  O  O201  1  0.13627832  1.02222551  0.72805270  1
  O  O202  1  0.61614238  0.50467239  0.29980327  1
  O  O203  1  0.66916641  0.54382514  0.92642126  1
  O  O204  1  0.44898172  1.03541875  0.28324496  1
  O  O205  1  0.54951803  1.01828667  0.83380923  1
  O  O206  1  0.37892452  0.03292964  0.28167097  1
  O  O207  1  0.34752223  0.03534673  0.72419807  1
  O  O208  1  0.40040118  0.50932230  0.27043913  1
  O  O209  1  0.40309229  0.49853657  0.76323513  1
  O  O210  1  0.89035852  0.01995878  0.26776114  1
  O  O211  1  0.83027667  0.02715055  0.72348849  1
  O  O212  1  0.90029765  0.50083994  0.25888770  1
  O  O213  1  0.87157877  0.46999666  0.74827352  1
  O  O214  1  0.11324952  0.36521881  0.36416993  1
  O  O215  1  0.11495534  0.34381487  0.89152061  1
  O  O216  1  0.16883164  0.77262868  0.46803911  1
  O  O217  1  0.13199248  0.86701528  0.82412970  1
  O  O218  1  0.56366478  0.35393388  0.33783301  1
  O  O219  1  0.62087066  0.39394253  0.90129158  1
  O  O220  1  0.69534030  0.87976830  0.31825133  1
  O  O221  1  0.59318435  0.79965271  0.81530336  1
  O  O222  1  0.43865552  0.09199660  0.10848319  1
  O  O223  1  0.36287613  0.17147954  0.63245251  1
  O  O224  1  0.28663596  0.67238669  0.13580510  1
  O  O225  1  0.39288288  0.67996724  0.66971717  1
  O  O226  1  0.88943290  0.10186493  0.09277633  1
  O  O227  1  0.90157142  0.13786083  0.62596134  1
  O  O228  1  0.87600303  0.59259474  0.12752223  1
  O  O229  1  0.86877926  0.55799351  0.63480239  1
  O  O230  1  0.19804318  0.21755944  0.10752068  1
  O  O231  1  0.21825351  0.26557926  0.61322768  1
  O  O232  1  0.24590105  0.82205738  0.11535503  1
  O  O233  1  0.23817625  0.78652985  0.64873558  1
  O  O234  1  0.78616190  0.27704574  0.11938926  1
  O  O235  1  0.78105870  0.22651626  0.61125383  1
  O  O236  1  0.73329447  0.84125962  0.15958342  1
  O  O237  1  0.69302798  0.77433534  0.53817987  1
  O  O238  1  0.22741731  0.23536709  0.34355404  1
  O  O239  1  0.25614034  0.23214782  0.88783533  1
  O  O240  1  0.29566382  0.70676329  0.38678969  1
  O  O241  1  0.32503254  0.76225430  0.82868760  1
  O  O242  1  0.76145348  0.23375474  0.39408132  1
  O  O243  1  0.80581744  0.18440176  0.86571481  1
  O  O244  1  0.73220173  0.82661308  0.34424862  1
  O  O245  1  0.80020082  0.75821264  0.89517817  1
  O  O246  1  0.00851190  0.12234882  -0.00582785  1
  O  O247  1  0.00109157  0.12056948  0.48856031  1
  O  O248  1  -0.05745670  0.61433889  0.00075151  1
  O  O249  1  -0.02520437  0.58634754  0.47534692  1
  O  O250  1  0.49820875  0.16543482  -0.06598421  1
  O  O251  1  0.54332509  0.09802011  0.53187953  1
  O  O252  1  0.45873477  0.60021532  0.04668619  1
  O  O253  1  0.45348865  0.57869659  0.55644288  1
  O  O254  1  0.46045076  0.37865730  0.51448839  1
  O  O255  1  0.51474694  0.36985740  0.98273643  1
  O  O256  1  0.47440257  0.89475334  0.53805671  1
  O  O257  1  0.47123364  0.93278265  0.96507574  1
  O  O258  1  0.99861099  0.36950172  0.48462461  1
  O  O259  1  0.93806139  0.32096658  1.01135814  1
  O  O260  1  1.03926647  0.90546694  0.46363882  1
  O  O261  1  1.00912170  0.85924225  0.92592459  1
  O  O262  1  0.43486783  0.50985908  0.42635550  1
  O  O263  1  0.49615026  0.48066522  0.88337587  1
  O  O264  1  0.54622627  0.98634641  0.43710087  1
  O  O265  1  0.48795793  1.00365505  0.96042651  1
  O  O266  1  1.00039979  0.46541406  0.38095912  1
  O  O267  1  0.94749566  0.43040159  0.88085466  1
  O  O268  1  1.02177180  1.02505320  0.37407135  1
  O  O269  1  0.97344543  1.03117617  0.85973874  1
  O  O270  1  -0.06433142  -0.02543421  0.00589885  1
  O  O271  1  0.01395443  0.02564876  0.62616808  1
  O  O272  1  0.00150191  0.50344537  0.11372512  1
  O  O273  1  0.00882924  0.48033244  0.58638035  1
  O  O274  1  0.47069252  -0.02519715  0.14566713  1
  O  O275  1  0.49046939  0.01586555  0.62755329  1
  O  O276  1  0.42579180  0.48103251  0.09284377  1
  O  O277  1  0.51882775  0.46718166  0.61665439  1
  O  O278  1  0.28876376  0.38019927  0.17248062  1
  O  O279  1  0.28486628  0.36389811  0.75244444  1
  O  O280  1  0.20353730  0.81470781  0.31257692  1
  O  O281  1  0.24952573  0.92030888  0.72737791  1
  O  O282  1  0.72569460  0.40582814  0.30006575  1
  O  O283  1  0.75419891  0.38971019  0.65904746  1
  O  O284  1  0.82890948  0.99936748  0.24147471  1
  O  O285  1  0.73567279  0.86598530  0.75694328  1
  O  O286  1  0.22974275  0.10329922  0.24616860  1
  O  O287  1  0.25685046  0.13568293  0.75512931  1
  O  O288  1  0.14246252  0.65025072  0.38398467  1
  O  O289  1  0.25995191  0.63835356  0.77936424  1
  O  O290  1  0.75332345  0.14945735  0.25873230  1
  O  O291  1  0.78425449  0.07916016  0.74519111  1
  O  O292  1  0.76756791  0.57187933  0.24765185  1
  O  O293  1  0.74024633  0.56557856  0.73419713  1
  O  O294  1  0.44765084  0.16549316  0.37456438  1
  O  O295  1  0.34822591  0.10769286  0.88317573  1
  O  O296  1  0.26249530  0.64466872  0.52221848  1
  O  O297  1  0.38463951  0.62116509  0.87645802  1
  O  O298  1  0.85892862  0.12409599  0.37150516  1
  O  O299  1  0.83665323  0.14934233  0.91891965  1
  O  O300  1  0.88560556  0.63663330  0.32501539  1
  O  O301  1  0.87592790  0.57413979  0.83610020  1
  O  O302  1  0.09697198  0.38157215  0.11139552  1
  O  O303  1  0.08658344  0.37110046  0.71042646  1
  O  O304  1  0.09193219  0.87788898  0.07636455  1
  O  O305  1  0.13909506  0.91131236  0.62191455  1
  O  O306  1  0.65348948  0.34511159  0.06750918  1
  O  O307  1  0.62484230  0.35568953  0.57675875  1
  O  O308  1  0.59230640  0.89111022  0.09642217  1
  O  O309  1  0.60999245  0.85746264  0.65989105  1
  O  O310  1  0.11034028  0.26738717  0.25101450  1
  O  O311  1  0.12944315  0.24772854  0.77493580  1
  O  O312  1  0.12632504  0.70843228  0.20056177  1
  O  O313  1  0.13656434  0.78893008  0.84604948  1
  O  O314  1  0.64819701  0.30298282  0.22354741  1
  O  O315  1  0.70785294  0.24696594  0.76735550  1
  O  O316  1  0.61371414  0.73624887  0.29131196  1
  O  O317  1  0.68223506  0.72150029  0.71051757  1
  O  O318  1  0.40695812  0.19594095  0.19597588  1
  O  O319  1  0.38530951  0.22170958  0.78217877  1
  O  O320  1  0.41337298  0.76101789  0.29038492  1
  O  O321  1  0.45152577  0.89971906  0.78257393  1
  O  O322  1  0.83997835  0.31350815  0.15879921  1
  O  O323  1  0.87694173  0.26564071  0.71830829  1
  O  O324  1  0.85934174  0.76423685  0.22103340  1
  O  O325  1  0.84140003  0.68731925  0.72924721  1
  O  O326  1  0.30397297  0.59077585  0.51017507  1
  O  O327  1  0.41002931  0.53767950  1.04481230  1
  O  O328  1  0.39927402  1.01905696  0.49482767  1
  O  O329  1  0.41830553  1.01948458  1.11040815  1
  O  O330  1  0.88039016  0.46189356  0.49619638  1
  O  O331  1  0.81644054  0.48386694  0.95515565  1
  O  O332  1  0.91882538  0.98617396  0.49450229  1
  O  O333  1  0.85752167  0.91877491  0.89290483  1
  O  O334  1  0.10203757  0.00624173  -0.05194035  1
  O  O335  1  0.12237415  0.02317774  0.51187114  1
  O  O336  1  0.14551128  0.49752672  0.00423429  1
  O  O337  1  0.11282230  0.50428726  0.47261679  1
  O  O338  1  0.59980788  0.09314973  0.03089271  1
  O  O339  1  0.63989026  -0.11999092  0.49366849  1
  O  O340  1  0.69161025  0.40516630  0.04441496  1
  O  O341  1  0.57532215  0.49246135  0.47711998  1
  O  O342  1  0.33447420  0.32982574  0.18529532  1
  O  O343  1  0.44853021  0.32837202  0.68153671  1
  O  O344  1  0.40675868  0.79258077  0.11055356  1
  O  O345  1  0.35016559  0.89628679  0.62542565  1
  O  O346  1  0.85810300  0.38504158  0.13177253  1
  O  O347  1  0.89769220  0.35143058  0.59923909  1
  O  O348  1  0.88654330  0.89918563  0.13252446  1
  O  O349  1  0.95001035  0.86067606  0.58535351  1
  O  O350  1  0.11291307  0.14651975  0.34941004  1
  O  O351  1  0.12939707  0.13076206  0.86731697  1
  O  O352  1  0.30732077  0.64394665  0.35582218  1
  O  O353  1  0.06706294  0.58647901  0.89986740  1
  O  O354  1  0.64995711  0.12818890  0.37895748  1
  O  O355  1  0.68461870  0.09687699  0.87869307  1
  O  O356  1  0.63991577  0.62562773  0.42732173  1
  O  O357  1  0.55516149  0.64281006  0.85374630  1
