# generated using pymatgen
data_V51Zn51O256
_symmetry_space_group_name_H-M   'P 1'
_cell_length_a   17.22826296
_cell_length_b   17.61096326
_cell_length_c   17.27002998
_cell_angle_alpha   91.11182688
_cell_angle_beta   90.21328214
_cell_angle_gamma   89.03070835
_symmetry_Int_Tables_number   1
_chemical_formula_structural   V51Zn51O256
_chemical_formula_sum   'V51 Zn51 O256'
_cell_volume   5238.06964226
_cell_formula_units_Z   1
loop_
 _symmetry_equiv_pos_site_id
 _symmetry_equiv_pos_as_xyz
  1  'x, y, z'
loop_
 _atom_site_type_symbol
 _atom_site_label
 _atom_site_symmetry_multiplicity
 _atom_site_fract_x
 _atom_site_fract_y
 _atom_site_fract_z
 _atom_site_occupancy
  V  V0  1  0.00107007  0.46655635  0.53494189  1
  V  V1  1  0.13606043  0.24622108  0.37069880  1
  V  V2  1  0.57633292  0.00436964  0.17483605  1
  V  V3  1  0.73366776  0.47863281  0.22517084  1
  V  V4  1  0.86876074  0.49930608  0.90598887  1
  V  V5  1  0.86979180  0.88098173  0.03011253  1
  V  V6  1  0.86268962  0.77811948  0.17758225  1
  V  V7  1  0.86994404  0.06509292  0.77174530  1
  V  V8  1  0.62576454  0.58807194  0.49660373  1
  V  V9  1  0.60664164  0.36613066  0.23762734  1
  V  V10  1  0.37165090  0.52077398  0.86526717  1
  V  V11  1  0.22058115  0.22528814  0.00292441  1
  V  V12  1  0.72008780  0.61145260  0.34289631  1
  V  V13  1  0.84530545  0.58571848  0.71633812  1
  V  V14  1  0.48633261  0.14855147  0.10693382  1
  V  V15  1  0.56910644  0.09727610  0.63312455  1
  V  V16  1  0.54088539  0.92852488  0.93793357  1
  V  V17  1  0.12993916  0.50310513  0.09939154  1
  V  V18  1  0.23343946  0.54262298  0.75724078  1
  V  V19  1  0.52139140  0.77748036  0.73047481  1
  V  V20  1  0.38012882  0.85969094  0.49987856  1
  V  V21  1  0.37641242  0.02773445  0.89142059  1
  V  V22  1  0.60516857  0.47783797  0.09523468  1
  V  V23  1  -0.00164255  0.37108101  0.88877475  1
  V  V24  1  0.36861942  0.10956360  0.23365996  1
  V  V25  1  0.10306053  0.33899870  0.75704461  1
  V  V26  1  0.04207805  0.76116936  0.23935485  1
  V  V27  1  0.25941958  0.26444617  0.50924008  1
  V  V28  1  0.35137695  0.37698486  -0.00609339  1
  V  V29  1  0.44803512  0.28037276  0.23648530  1
  V  V30  1  0.59316566  0.39682794  0.73261494  1
  V  V31  1  0.26083850  0.10830092  0.38794670  1
  V  V32  1  0.73024269  0.59693632  0.89056257  1
  V  V33  1  0.05871858  0.61725263  -0.03331530  1
  V  V34  1  0.34740037  0.60404444  0.24307421  1
  V  V35  1  0.62048361  0.25711701  0.88602264  1
  V  V36  1  0.87714420  0.25181554  0.57747248  1
  V  V37  1  0.22954445  0.38582910  0.64689891  1
  V  V38  1  0.23831231  0.47467497  0.26881246  1
  V  V39  1  0.89014347  0.37960511  0.45340779  1
  V  V40  1  0.30082270  0.77375586  -0.01981571  1
  V  V41  1  0.84317958  -0.00535401  0.39925114  1
  V  V42  1  -0.07992426  0.71690138  0.77390193  1
  V  V43  1  0.59409065  0.73757135  0.34081604  1
  V  V44  1  0.83600497  0.33820009  -0.00976474  1
  V  V45  1  0.11560469  0.09450824  0.02301516  1
  V  V46  1  0.63337509  0.27020615  0.37849557  1
  V  V47  1  0.25257120  -0.01857669  0.22817304  1
  V  V48  1  0.47550912  0.37095775  0.86873809  1
  V  V49  1  0.86870430  0.58685985  0.22762424  1
  V  V50  1  0.11323384  0.01144401  0.63307485  1
  Zn  Zn51  1  0.83219057  0.58407548  0.50525621  1
  Zn  Zn52  1  0.23654353  0.91276901  0.37494750  1
  Zn  Zn53  1  0.07934461  0.32625645  0.05813252  1
  Zn  Zn54  1  0.53643324  0.83710526  0.11148370  1
  Zn  Zn55  1  0.31637396  0.57070496  0.04547705  1
  Zn  Zn56  1  0.02231059  0.84215903  0.65686275  1
  Zn  Zn57  1  0.42437057  0.45544258  0.16894331  1
  Zn  Zn58  1  0.39606356  0.41757285  0.71002442  1
  Zn  Zn59  1  0.14263804  0.11918651  0.22188571  1
  Zn  Zn60  1  0.27710796  0.30651806  0.82958310  1
  Zn  Zn61  1  0.59636869  0.38944919  0.52390563  1
  Zn  Zn62  1  0.69158756  0.69599101  0.18500246  1
  Zn  Zn63  1  0.02892225  0.55475780  0.79817738  1
  Zn  Zn64  1  0.17825062  0.45704602  0.91764306  1
  Zn  Zn65  1  0.87937667  0.70038124  0.97181565  1
  Zn  Zn66  1  0.07981671  0.59667817  0.23728552  1
  Zn  Zn67  1  0.92180772  0.41038280  0.69542073  1
  Zn  Zn68  1  0.17233675  0.42404217  0.44843251  1
  Zn  Zn69  1  0.63513346  0.06289384  0.87535352  1
  Zn  Zn70  1  0.23610466  0.28206694  0.20382514  1
  Zn  Zn71  1  0.73533446  0.17623612  0.68524934  1
  Zn  Zn72  1  0.30266117  0.05860737  0.07320926  1
  Zn  Zn73  1  0.77972956  0.58451179  0.06637873  1
  Zn  Zn74  1  0.45617027  0.96387119  0.66251429  1
  Zn  Zn75  1  0.54402732  0.55739884  0.24949963  1
  Zn  Zn76  1  0.72005766  0.93415998  0.75041243  1
  Zn  Zn77  1  0.38601712  0.86323950  0.82396082  1
  Zn  Zn78  1  0.07123501  0.29711155  0.56372095  1
  Zn  Zn79  1  0.46941107  0.62169818  0.39008181  1
  Zn  Zn80  1  0.77382173  -0.06237817  0.19434250  1
  Zn  Zn81  1  0.77422186  0.81472356  0.34015155  1
  Zn  Zn82  1  0.71247547  0.95060673  0.99435343  1
  Zn  Zn83  1  0.67211806  0.42164138  0.92307407  1
  Zn  Zn84  1  0.57431882  0.77154736  0.53018966  1
  Zn  Zn85  1  0.93210790  0.18920353  0.92790432  1
  Zn  Zn86  1  0.35562420  0.80655764  0.28004474  1
  Zn  Zn87  1  0.53163000  0.31333161  0.05067821  1
  Zn  Zn88  1  0.42584103  0.20438656  0.92296030  1
  Zn  Zn89  1  0.16970978  0.67893366  0.10627576  1
  Zn  Zn90  1  0.91376278  0.69321208  0.36070845  1
  Zn  Zn91  1  0.40246098  0.06139503  0.50735997  1
  Zn  Zn92  1  1.08859074  0.13747118  0.47567602  1
  Zn  Zn93  1  0.32195321  0.71183056  0.69407576  1
  Zn  Zn94  1  0.55671626  0.07238645  0.38135963  1
  Zn  Zn95  1  0.96674950  0.92759512  0.25253310  1
  Zn  Zn96  1  0.66082909  0.90467578  0.44010244  1
  Zn  Zn97  1  0.94213264  0.46128681  0.08099544  1
  Zn  Zn98  1  0.27696026  0.90514289  0.69240834  1
  Zn  Zn99  1  0.06789366  0.05307787  0.81585386  1
  Zn  Zn100  1  0.58959719  0.15890519  0.24745450  1
  Zn  Zn101  1  0.41610653  0.21098337  0.40304112  1
  O  O102  1  0.09638885  0.12017835  0.11758840  1
  O  O103  1  0.09480018  -0.09579667  0.47070060  1
  O  O104  1  0.10539156  0.68913916  0.01608660  1
  O  O105  1  0.06828370  0.78342142  0.56775467  1
  O  O106  1  0.58533830  0.14672406  0.13522583  1
  O  O107  1  0.65933390  0.09265515  0.68868775  1
  O  O108  1  0.64576087  0.65232576  0.08354844  1
  O  O109  1  0.64520031  0.61132043  0.58599330  1
  O  O110  1  0.45954204  0.43774561  0.43870188  1
  O  O111  1  0.37085675  0.36501587  0.86002184  1
  O  O112  1  0.37683284  0.83293826  0.39835526  1
  O  O113  1  0.44756561  0.94336841  0.87727590  1
  O  O114  1  0.90573793  0.37616263  0.36222613  1
  O  O115  1  0.87703719  0.38620506  0.90449392  1
  O  O116  1  0.85510500  0.88685853  0.38649965  1
  O  O117  1  0.84749802  0.88180039  0.93867080  1
  O  O118  1  0.27271192  0.01400028  0.34548051  1
  O  O119  1  0.28941034  0.00324493  0.85536463  1
  O  O120  1  0.22757394  0.47409179  0.36794644  1
  O  O121  1  0.24945714  0.52546510  0.86005797  1
  O  O122  1  0.74822782  -0.01938077  0.43477865  1
  O  O123  1  0.72726252  0.03282906  0.92496198  1
  O  O124  1  0.74378288  0.49592680  0.32236836  1
  O  O125  1  0.75634114  0.49255156  0.89420130  1
  O  O126  1  0.20885202  0.57308734  0.08656308  1
  O  O127  1  0.23293399  0.48206473  0.65535166  1
  O  O128  1  0.27610631  0.96890766  0.13228768  1
  O  O129  1  0.38629414  1.03644991  0.61239537  1
  O  O130  1  0.70575362  0.51236254  0.11236886  1
  O  O131  1  0.74700435  0.39353477  0.52172645  1
  O  O132  1  0.69015560  1.01905117  0.16183775  1
  O  O133  1  0.72660186  0.93801208  0.64565580  1
  O  O134  1  0.00825507  0.39271972  0.20092255  1
  O  O135  1  0.00158428  0.37053558  0.76382512  1
  O  O136  1  0.05363236  0.85800260  0.24813945  1
  O  O137  1  -0.03993510  0.79029095  0.72402200  1
  O  O138  1  0.49456431  0.37630918  0.22405858  1
  O  O139  1  0.48906736  0.37758240  0.75242196  1
  O  O140  1  0.43832180  0.73630987  0.16050063  1
  O  O141  1  0.51976696  0.87394633  0.68761812  1
  O  O142  1  0.46232586  0.16766316  0.23545853  1
  O  O143  1  0.51819845  0.05231043  0.71349540  1
  O  O144  1  0.44314440  0.57705248  0.29292831  1
  O  O145  1  0.50870125  0.68416528  0.75716943  1
  O  O146  1  1.02044612  0.11866752  0.26390653  1
  O  O147  1  0.95729506  0.01476775  0.79872290  1
  O  O148  1  0.96699545  0.58703771  0.23974577  1
  O  O149  1  0.94942083  0.61664319  0.74096235  1
  O  O150  1  0.36394795  0.27761755  -0.00982551  1
  O  O151  1  0.35810500  0.26212333  0.48501891  1
  O  O152  1  0.36547561  0.83420992  0.03033539  1
  O  O153  1  0.33665375  0.77653799  0.52864726  1
  O  O154  1  0.85370684  0.24071936  -0.01447760  1
  O  O155  1  0.86189407  0.28527991  0.48113828  1
  O  O156  1  0.87528631  0.78205543  0.05612966  1
  O  O157  1  0.88940829  0.67786260  0.47190420  1
  O  O158  1  0.13877822  0.23949341  0.49861883  1
  O  O159  1  0.12086272  0.23939727  1.00179509  1
  O  O160  1  0.15590641  0.76353014  0.42601683  1
  O  O161  1  0.25021927  0.73644569  0.90061697  1
  O  O162  1  0.61123595  0.29123502  0.47417361  1
  O  O163  1  0.60704598  0.26425162  0.98386042  1
  O  O164  1  0.61103034  0.70027250  0.45763748  1
  O  O165  1  0.63273583  0.77685059  1.05899124  1
  O  O166  1  0.47626723  0.25643881  0.12891110  1
  O  O167  1  0.54836629  0.18610191  0.67545110  1
  O  O168  1  0.49284824  0.72954323  0.10780880  1
  O  O169  1  0.52910145  0.75307180  0.63033289  1
  O  O170  1  1.03090129  0.27570480  0.15120924  1
  O  O171  1  0.98372456  0.22953196  0.60798677  1
  O  O172  1  0.96855240  0.74435557  0.17288526  1
  O  O173  1  1.12205034  0.83098026  0.75269361  1
  O  O174  1  0.04648092  0.20760801  0.39149544  1
  O  O175  1  -0.01706901  0.27557430  0.88206371  1
  O  O176  1  0.01235824  0.73179208  0.32909311  1
  O  O177  1  -0.08992023  0.73759533  0.86970768  1
  O  O178  1  0.47287613  0.27584771  0.33487343  1
  O  O179  1  0.49721800  0.26999401  0.86476369  1
  O  O180  1  0.49508397  0.72131016  0.35163616  1
  O  O181  1  0.51571563  0.82604601  0.82283927  1
  O  O182  1  0.29594319  0.09431106  0.47858684  1
  O  O183  1  0.22243180  0.12160152  1.01473341  1
  O  O184  1  0.07160053  0.70649857  0.58542312  1
  O  O185  1  0.33509946  0.67931375  1.00505123  1
  O  O186  1  0.95923496  0.17879209  0.54851798  1
  O  O187  1  0.78843881  0.12765897  1.09641245  1
  O  O188  1  0.73221468  0.59221405  0.44812917  1
  O  O189  1  0.77397183  0.64787085  0.97261813  1
  O  O190  1  0.25364034  0.38635108  -0.03438433  1
  O  O191  1  0.22664665  0.36670760  0.53522303  1
  O  O192  1  0.23180753  0.84623387  -0.02832051  1
  O  O193  1  0.28528018  0.90117456  0.47807681  1
  O  O194  1  0.74122296  0.36553947  -0.00472211  1
  O  O195  1  0.77759387  0.41176929  0.45769734  1
  O  O196  1  0.78623537  0.92537924  0.07656434  1
  O  O197  1  0.74378519  0.83041420  0.44742038  1
  O  O198  1  0.14364471  0.50940699  0.20912093  1
  O  O199  1  0.13305848  0.53327970  0.75931200  1
  O  O200  1  0.15585212  0.99632322  0.23499545  1
  O  O201  1  0.26757534  1.10250996  0.71883682  1
  O  O202  1  0.62116190  0.47931190  0.22653244  1
  O  O203  1  0.61478212  0.48511859  0.74649938  1
  O  O204  1  0.57540360  1.04638876  0.26921809  1
  O  O205  1  0.63537037  0.97897995  0.80068463  1
  O  O206  1  0.39318437  0.02034415  0.24727766  1
  O  O207  1  0.37664964  -0.05606908  0.73891514  1
  O  O208  1  0.33951958  0.47858612  0.24439557  1
  O  O209  1  0.34424864  0.50303780  0.75799278  1
  O  O210  1  0.79516039  -0.00056360  0.29529868  1
  O  O211  1  0.80746440  -0.01163184  0.79521238  1
  O  O212  1  0.84134074  0.49396515  0.19635922  1
  O  O213  1  0.85217130  0.49018052  0.73515983  1
  O  O214  1  0.12880478  0.34219366  0.38031356  1
  O  O215  1  0.10421750  0.38317616  0.86281123  1
  O  O216  1  0.18778634  0.79179478  0.36865460  1
  O  O217  1  0.09757838  0.94405282  0.85748959  1
  O  O218  1  0.60753781  0.37217857  0.33763649  1
  O  O219  1  0.60007896  0.36682944  0.85042574  1
  O  O220  1  0.60459348  0.83094921  0.36654806  1
  O  O221  1  0.63489136  0.88996603  0.93558559  1
  O  O222  1  0.37533065  0.12890051  0.12779099  1
  O  O223  1  0.49604440  0.12986445  0.56792367  1
  O  O224  1  0.36389460  0.59403427  0.14522192  1
  O  O225  1  0.38466205  0.65649933  0.62840020  1
  O  O226  1  0.87979834  0.21628688  0.17300238  1
  O  O227  1  0.86961886  0.02976264  0.67625242  1
  O  O228  1  0.84768207  0.64337332  0.14674202  1
  O  O229  1  0.83438251  0.58944834  0.61941749  1
  O  O230  1  0.24555389  0.26197747  0.09332972  1
  O  O231  1  0.25746673  0.21824093  0.59026769  1
  O  O232  1  0.25238525  0.74893475  0.07005676  1
  O  O233  1  0.26245855  0.79651319  0.66536083  1
  O  O234  1  0.73681479  0.16814663  0.07132644  1
  O  O235  1  0.79999652  0.19649093  0.60228292  1
  O  O236  1  0.76400409  0.77496739  0.16077009  1
  O  O237  1  0.83060039  0.76396230  0.56734584  1
  O  O238  1  0.24058586  0.22456985  0.40523468  1
  O  O239  1  0.24632189  0.23657764  0.90627087  1
  O  O240  1  0.28155685  0.61742991  0.48486166  1
  O  O241  1  0.37947719  0.78888993  0.91026009  1
  O  O242  1  0.72747909  0.26853701  0.36999498  1
  O  O243  1  0.71624192  0.26544912  0.87315205  1
  O  O244  1  0.71621834  0.71239359  0.34475968  1
  O  O245  1  0.71773947  0.65926824  0.80288504  1
  O  O246  1  0.01735346  0.11521163  -0.03512832  1
  O  O247  1  0.09486091  0.06350663  0.55139145  1
  O  O248  1  -0.03683497  0.62799064  -0.00544710  1
  O  O249  1  0.02764911  0.59597721  0.40176491  1
  O  O250  1  0.48383006  0.15639855  0.01066808  1
  O  O251  1  0.63944114  0.10865186  0.56015245  1
  O  O252  1  0.61826654  0.70707500  0.03568149  1
  O  O253  1  0.51811252  0.61004057  0.48490079  1
  O  O254  1  0.47147749  0.39267521  0.49862159  1
  O  O255  1  0.47107296  0.37848143  0.97384059  1
  O  O256  1  0.47349348  0.81876226  0.49870681  1
  O  O257  1  0.50653903  0.89395113  1.02180109  1
  O  O258  1  0.98968182  0.36726369  0.51031285  1
  O  O259  1  1.01270894  0.38613249  0.98798210  1
  O  O260  1  1.04173021  0.94239816  0.63617938  1
  O  O261  1  0.98310395  0.90151634  1.04119412  1
  O  O262  1  0.39023653  0.46183427  0.42666537  1
  O  O263  1  0.46767983  0.47745370  0.86099184  1
  O  O264  1  0.46096356  1.10844448  0.42847919  1
  O  O265  1  0.55885606  1.02225686  0.94877811  1
  O  O266  1  1.09027893  0.59500237  0.36621951  1
  O  O267  1  0.96823634  0.48322429  0.86722921  1
  O  O268  1  0.93782913  0.97908401  0.35108815  1
  O  O269  1  1.05199068  0.90948963  0.89984519  1
  O  O270  1  -0.03313520  0.09276876  0.21813580  1
  O  O271  1  0.10159762  0.06850695  0.71608260  1
  O  O272  1  0.02990363  0.52162221  0.10846773  1
  O  O273  1  -0.00712591  0.47715482  0.63159852  1
  O  O274  1  0.49521084  0.03734066  0.12397440  1
  O  O275  1  0.55095429  -0.00118855  0.59822692  1
  O  O276  1  0.51625771  0.51962987  0.13339807  1
  O  O277  1  0.43078547  0.48821579  0.60013199  1
  O  O278  1  0.21777995  0.38573055  0.23568945  1
  O  O279  1  0.21212972  0.36516924  0.75555242  1
  O  O280  1  0.27536822  0.88501187  0.27065979  1
  O  O281  1  0.27979069  0.85359204  0.79146129  1
  O  O282  1  0.71943542  0.38096456  0.21798135  1
  O  O283  1  0.69831692  0.33289290  0.72085991  1
  O  O284  1  0.72090623  0.88525260  0.27397500  1
  O  O285  1  0.74470761  0.83753674  0.77862152  1
  O  O286  1  0.26218445  0.09503114  0.21651755  1
  O  O287  1  0.26417184  0.15979918  0.76313781  1
  O  O288  1  0.25039790  0.58683091  0.26766036  1
  O  O289  1  0.25610714  0.63447092  0.73818449  1
  O  O290  1  0.84330843  0.27431189  0.18892633  1
  O  O291  1  0.78184651  0.12311917  0.77327947  1
  O  O292  1  0.73128870  0.60110871  0.23312477  1
  O  O293  1  0.73690638  0.59213793  0.76595673  1
  O  O294  1  0.34260329  0.15130485  0.33039040  1
  O  O295  1  0.39813479  0.11826657  0.86102473  1
  O  O296  1  0.32348390  0.62765472  0.42799533  1
  O  O297  1  0.39061873  0.61071268  0.86333124  1
  O  O298  1  0.84485244  0.09080654  0.38495439  1
  O  O299  1  0.88532191  0.10083020  0.87110028  1
  O  O300  1  0.84178608  0.61126581  0.32774867  1
  O  O301  1  0.85540136  0.58507425  0.86070957  1
  O  O302  1  0.14934741  0.40980470  0.08421627  1
  O  O303  1  0.11932902  0.35239550  0.64906157  1
  O  O304  1  -0.02579023  1.02164502  0.18703566  1
  O  O305  1  0.20432324  0.96679460  0.64116177  1
  O  O306  1  0.60002610  0.38002973  0.11582933  1
  O  O307  1  0.58742715  0.38017778  0.63413179  1
  O  O308  1  0.56773449  0.90944413  0.18734816  1
  O  O309  1  0.63252416  0.85946409  0.53756854  1
  O  O310  1  0.15938645  0.22389176  0.26770076  1
  O  O311  1  0.10433824  0.24801117  0.76751922  1
  O  O312  1  0.12135235  0.69793930  0.20655797  1
  O  O313  1  0.11355568  0.77552818  0.79469747  1
  O  O314  1  0.61332147  0.26882712  0.23442790  1
  O  O315  1  0.67889089  0.26247126  0.73299170  1
  O  O316  1  0.60123274  0.73105498  0.23963933  1
  O  O317  1  0.61967477  0.76853491  0.74741737  1
  O  O318  1  0.35163273  0.28869482  0.23180765  1
  O  O319  1  0.30820423  0.21960136  0.74600247  1
  O  O320  1  0.34260065  0.69965165  0.26776838  1
  O  O321  1  0.41063355  0.77799294  0.73679226  1
  O  O322  1  1.01488209  0.32179283  0.21363433  1
  O  O323  1  0.91462791  0.14497394  0.73212264  1
  O  O324  1  0.85867935  0.76053797  0.28022563  1
  O  O325  1  0.83132990  0.69951452  0.73273439  1
  O  O326  1  0.37746296  0.51927948  0.56456510  1
  O  O327  1  0.35528903  0.49855581  0.96889017  1
  O  O328  1  0.42154683  0.95294733  0.48171225  1
  O  O329  1  0.36613775  1.02862286  0.98875421  1
  O  O330  1  0.90771080  0.48999279  0.48749343  1
  O  O331  1  0.86828208  0.51570542  1.00578124  1
  O  O332  1  0.88036075  1.00270625  0.49022576  1
  O  O333  1  0.94548467  0.96736017  1.03484985  1
  O  O334  1  0.12315374  0.00279026  0.01844618  1
  O  O335  1  0.12446874  -0.06274892  0.41476588  1
  O  O336  1  0.11056080  0.52581889  -0.01836728  1
  O  O337  1  0.09018419  0.48771507  0.49908306  1
  O  O338  1  0.65212952  0.00947722  0.08994475  1
  O  O339  1  0.59187849  -0.01273625  0.43423875  1
  O  O340  1  0.60044228  0.47597726  -0.00195093  1
  O  O341  1  0.61657012  0.49030005  0.49156433  1
  O  O342  1  0.36339448  0.40380822  0.08860347  1
  O  O343  1  0.32452056  0.35530654  0.65332753  1
  O  O344  1  0.43493161  0.80867742  0.19396379  1
  O  O345  1  0.37906586  0.89023031  0.59951410  1
  O  O346  1  0.88253623  0.37030121  0.07339736  1
  O  O347  1  0.87095629  0.33212634  0.63528721  1
  O  O348  1  0.88115789  0.87921613  0.18783930  1
  O  O349  1  0.88832329  0.75264616  0.52576965  1
  O  O350  1  0.15869345  0.10803813  0.38410661  1
  O  O351  1  0.07931318  0.11463180  0.90908853  1
  O  O352  1  0.11111170  0.66504189  0.53943103  1
  O  O353  1  0.06207689  0.63655050  0.87040805  1
  O  O354  1  0.60611845  0.17092012  0.36018690  1
  O  O355  1  0.60818762  0.16154210  0.85347625  1
  O  O356  1  0.61671291  0.60308043  0.33823630  1
  O  O357  1  0.63869171  0.59592964  0.91120793  1
