# generated using pymatgen
data_V51Zn51O256
_symmetry_space_group_name_H-M   'P 1'
_cell_length_a   17.92438409
_cell_length_b   17.33076713
_cell_length_c   17.78164103
_cell_angle_alpha   89.06174280
_cell_angle_beta   88.88826016
_cell_angle_gamma   89.59408342
_symmetry_Int_Tables_number   1
_chemical_formula_structural   V51Zn51O256
_chemical_formula_sum   'V51 Zn51 O256'
_cell_volume   5521.84133576
_cell_formula_units_Z   1
loop_
 _symmetry_equiv_pos_site_id
 _symmetry_equiv_pos_as_xyz
  1  'x, y, z'
loop_
 _atom_site_type_symbol
 _atom_site_label
 _atom_site_symmetry_multiplicity
 _atom_site_fract_x
 _atom_site_fract_y
 _atom_site_fract_z
 _atom_site_occupancy
  V  V0  1  0.86580069  0.60595790  0.73847762  1
  V  V1  1  0.60946413  0.48544517  0.59203313  1
  V  V2  1  0.51302789  0.38104898  0.38755369  1
  V  V3  1  0.85155760  0.20404489  0.23965590  1
  V  V4  1  0.24328662  0.52191412  0.70429047  1
  V  V5  1  0.59131703  0.51681841  0.09615723  1
  V  V6  1  0.18609493  0.34732831  0.24711128  1
  V  V7  1  0.12334295  0.74126529  0.36755887  1
  V  V8  1  0.62004414  0.44262851  0.27365281  1
  V  V9  1  0.50421370  0.86633400  0.88248922  1
  V  V10  1  0.36019880  0.87958684  -0.00636185  1
  V  V11  1  0.89899996  0.50361122  0.88493119  1
  V  V12  1  0.74288728  0.38530864  0.07369893  1
  V  V13  1  0.18853990  0.26749279  0.53654521  1
  V  V14  1  0.45553298  0.11703160  0.61139862  1
  V  V15  1  0.01606207  -0.00424944  0.03691073  1
  V  V16  1  0.61126656  0.65229879  -0.00802474  1
  V  V17  1  0.87071511  0.72028820  0.61753051  1
  V  V18  1  0.39935735  0.49957531  0.91895855  1
  V  V19  1  0.08828329  0.62756776  0.49457658  1
  V  V20  1  0.60259928  0.36789244  0.75779414  1
  V  V21  1  0.65957994  0.26167995  0.38803241  1
  V  V22  1  0.20628918  0.88478982  0.65148041  1
  V  V23  1  0.72618561  0.73158291  0.52101666  1
  V  V24  1  0.01061522  0.87489383  0.39508402  1
  V  V25  1  -0.04893311  0.39271730  0.40749340  1
  V  V26  1  0.10068979  0.05065529  0.66340647  1
  V  V27  1  0.69065879  0.52475182  0.75248786  1
  V  V28  1  0.58683933  0.84567934  0.70638775  1
  V  V29  1  0.24502938  0.62157497  0.38438998  1
  V  V30  1  0.83621496  0.20640846  0.58149053  1
  V  V31  1  0.76000080  0.51759261  0.24219910  1
  V  V32  1  0.91219211  0.27589232  0.08207445  1
  V  V33  1  0.52116596  0.23047027  0.26104259  1
  V  V34  1  0.63539934  0.11047912  0.48533364  1
  V  V35  1  0.27194132  0.87072937  0.14913289  1
  V  V36  1  0.13388649  0.13496274  0.44244015  1
  V  V37  1  0.63390218  0.74821731  0.32334591  1
  V  V38  1  0.50154027  0.84084983  0.40222225  1
  V  V39  1  0.00058194  0.73189786  0.24299875  1
  V  V40  1  0.62307479  0.02479126  0.64300373  1
  V  V41  1  0.49896090  0.72125247  0.22455612  1
  V  V42  1  0.22879240  0.13611118  0.89488633  1
  V  V43  1  0.47183193  0.01694741  -0.02758812  1
  V  V44  1  0.37108366  0.73889257  0.12244250  1
  V  V45  1  0.84736396  0.85791578  0.51758513  1
  V  V46  1  0.75353989  0.75283410  0.01791528  1
  V  V47  1  0.20775106  0.76776721  0.52154444  1
  V  V48  1  0.12970207  0.87915743  0.24835877  1
  V  V49  1  0.86107989  0.38401265  0.55369365  1
  V  V50  1  0.24327922  0.74781327  -0.01406759  1
  Zn  Zn51  1  0.53508786  0.76319282  0.55668651  1
  Zn  Zn52  1  0.42334508  0.70247404  0.92698888  1
  Zn  Zn53  1  0.97842846  0.97425884  0.23590406  1
  Zn  Zn54  1  0.57891130  0.32875003  0.12181299  1
  Zn  Zn55  1  0.97239953  0.19533917  0.37812301  1
  Zn  Zn56  1  0.22405250  0.21252607  0.09795118  1
  Zn  Zn57  1  0.49920595  0.19921105  0.44931780  1
  Zn  Zn58  1  0.82291820  0.69529135  0.28199557  1
  Zn  Zn59  1  0.77620488  0.56155674  0.56860885  1
  Zn  Zn60  1  0.34052279  0.99831117  0.65517661  1
  Zn  Zn61  1  0.17845992  0.32395528  0.95667372  1
  Zn  Zn62  1  0.82433330  0.41233204  0.73490463  1
  Zn  Zn63  1  0.31746054  0.76463230  0.30715243  1
  Zn  Zn64  1  0.96234799  0.99651271  0.53381188  1
  Zn  Zn65  1  0.92352937  0.71518164  0.42942454  1
  Zn  Zn66  1  0.59209706  0.47127368  0.90621774  1
  Zn  Zn67  1  0.18961446  0.08176532  0.25038449  1
  Zn  Zn68  1  0.06413441  0.02903401  0.85338325  1
  Zn  Zn69  1  0.25483395  0.10196510  0.55866337  1
  Zn  Zn70  1  0.40415962  0.39979407  0.75231662  1
  Zn  Zn71  1  0.18824886  0.18324781  0.70528650  1
  Zn  Zn72  1  0.88181290  0.08931670  0.10562853  1
  Zn  Zn73  1  0.32743656  0.88188680  0.79097810  1
  Zn  Zn74  1  0.20391861  0.47182551  0.50238885  1
  Zn  Zn75  1  0.77070091  0.02625569  0.55348129  1
  Zn  Zn76  1  0.55450683  0.30274546  0.55453198  1
  Zn  Zn77  1  0.67944050  0.21837701  0.19585819  1
  Zn  Zn78  1  0.67460962  0.20542934  0.66204458  1
  Zn  Zn79  1  0.54311663  0.79589597  0.04017247  1
  Zn  Zn80  1  0.66396351  0.77332541  0.86466591  1
  Zn  Zn81  1  0.29894084  0.05514947  0.07602770  1
  Zn  Zn82  1  0.37884221  0.71611503  0.46800420  1
  Zn  Zn83  1  0.66596475  0.57410026  0.41921861  1
  Zn  Zn84  1  1.02467876  0.18191255  0.94568352  1
  Zn  Zn85  1  0.38790322  0.36176231  0.26441723  1
  Zn  Zn86  1  0.80782366  0.55417916  0.04864153  1
  Zn  Zn87  1  0.09019024  0.46450613  0.82803622  1
  Zn  Zn88  1  0.16544588  0.89498241  0.96571306  1
  Zn  Zn89  1  0.02727450  0.17650142  0.58864096  1
  Zn  Zn90  1  0.13488714  0.94541861  0.50679405  1
  Zn  Zn91  1  0.72872591  0.71813117  0.72415997  1
  Zn  Zn92  1  0.47809277  0.01641247  0.76837555  1
  Zn  Zn93  1  0.09125892  0.79757002  0.09305701  1
  Zn  Zn94  1  0.79435190  0.36335808  0.31852314  1
  Zn  Zn95  1  -0.04082425  0.57647149  0.35824752  1
  Zn  Zn96  1  0.73449521  0.40377880  0.86933322  1
  Zn  Zn97  1  0.67870887  0.66346641  0.17398181  1
  Zn  Zn98  1  0.67017630  0.91242862  0.43836141  1
  Zn  Zn99  1  0.31998486  0.58251101  0.03136975  1
  Zn  Zn100  1  0.08808013  0.33079050  0.10968212  1
  Zn  Zn101  1  0.26320595  0.37503165  0.82441268  1
  O  O102  1  0.20776219  0.10987759  0.14085106  1
  O  O103  1  0.08462107  0.15430520  0.68238786  1
  O  O104  1  0.08189461  0.58295337  0.07857321  1
  O  O105  1  0.07611813  0.64639036  0.58415872  1
  O  O106  1  0.70969426  -0.03111618  0.05164546  1
  O  O107  1  0.63919804  0.12789577  0.59346502  1
  O  O108  1  0.62328375  0.62158509  0.09484174  1
  O  O109  1  0.53082563  0.56846760  0.61584371  1
  O  O110  1  0.42619229  0.40449003  0.35321542  1
  O  O111  1  0.35720534  0.44754662  0.84467478  1
  O  O112  1  0.39403514  0.84429734  0.37441941  1
  O  O113  1  0.34795736  0.88633381  0.89814661  1
  O  O114  1  0.85769314  0.40082292  0.39351170  1
  O  O115  1  0.84833359  0.42573602  0.84618766  1
  O  O116  1  0.92339780  0.83555368  0.45661358  1
  O  O117  1  0.88198898  0.89654510  0.88198791  1
  O  O118  1  0.28378680  -0.03752210  0.38247553  1
  O  O119  1  0.24905643  0.05224771  0.84360872  1
  O  O120  1  0.26112069  0.53408364  0.43037095  1
  O  O121  1  0.27525528  0.56642787  0.78379909  1
  O  O122  1  0.75139974  -0.04427400  0.36398196  1
  O  O123  1  0.76897456  0.01278670  0.83534353  1
  O  O124  1  0.70943916  0.53239841  0.32701404  1
  O  O125  1  0.68434184  0.51210602  0.85179889  1
  O  O126  1  0.39118613  0.46549954  0.19365496  1
  O  O127  1  0.23150462  0.49025388  0.60840738  1
  O  O128  1  0.27663125  0.96850536  0.13832449  1
  O  O129  1  0.20509999  1.07670548  0.65836268  1
  O  O130  1  0.76306398  0.47860808  0.11910438  1
  O  O131  1  0.69180439  0.52441238  0.63020363  1
  O  O132  1  0.83834960  1.01916960  0.18806787  1
  O  O133  1  0.71849923  1.01628676  0.65281309  1
  O  O134  1  0.09287613  0.30967282  0.22336768  1
  O  O135  1  -0.02140917  0.31538197  0.81137657  1
  O  O136  1  0.03950542  0.88469334  0.21846010  1
  O  O137  1  -0.09066087  0.93742681  0.83121541  1
  O  O138  1  0.56804251  0.37435923  0.23210511  1
  O  O139  1  0.50696703  0.37382862  0.74933664  1
  O  O140  1  0.43844782  0.89485020  0.33327839  1
  O  O141  1  0.52780871  0.88853752  0.77057073  1
  O  O142  1  0.49503951  0.14311588  0.28181892  1
  O  O143  1  0.45388791  0.12006613  0.70632023  1
  O  O144  1  0.49967189  0.62828026  0.23114665  1
  O  O145  1  0.38380042  0.72724614  0.74105518  1
  O  O146  1  1.06902851  0.11909309  0.23709039  1
  O  O147  1  0.99087514  0.11234712  0.87249398  1
  O  O148  1  1.00258138  0.63742923  0.26865540  1
  O  O149  1  0.95361589  0.58944501  0.72406033  1
  O  O150  1  0.47550584  0.30325307  0.00681077  1
  O  O151  1  0.37151037  0.23013763  0.43398087  1
  O  O152  1  0.35656489  0.76175533  -0.00121700  1
  O  O153  1  0.30296830  0.76112950  0.52859765  1
  O  O154  1  0.94087915  0.23138546  0.00204625  1
  O  O155  1  0.92878400  0.21198350  0.60304006  1
  O  O156  1  0.79188417  0.81334523  0.07386398  1
  O  O157  1  0.84368044  0.73234270  0.51520447  1
  O  O158  1  0.09964388  0.22262997  0.51420503  1
  O  O159  1  0.11623430  0.22553213  1.08949583  1
  O  O160  1  0.10009639  0.75465190  0.46752373  1
  O  O161  1  0.14541458  0.78769812  0.99979938  1
  O  O162  1  0.61579376  0.23795234  0.48346735  1
  O  O163  1  0.63182727  0.14373667  0.96543303  1
  O  O164  1  0.63408787  0.75281404  0.51324131  1
  O  O165  1  0.64886650  0.75565407  1.03503698  1
  O  O166  1  0.57520070  0.22579580  0.16955117  1
  O  O167  1  0.48178435  0.20747093  0.56387322  1
  O  O168  1  0.48845323  0.75888941  0.12751462  1
  O  O169  1  0.41606399  0.68724738  0.69042650  1
  O  O170  1  0.98142627  0.32975065  0.11438915  1
  O  O171  1  1.08383253  0.34861661  0.61088809  1
  O  O172  1  1.02624022  0.73377096  0.14749180  1
  O  O173  1  0.96003507  0.72825787  0.62104006  1
  O  O174  1  -0.01491616  0.30355947  0.37996084  1
  O  O175  1  0.08266985  0.26982848  0.92924048  1
  O  O176  1  0.00454676  0.77241585  0.35698924  1
  O  O177  1  -0.00550445  0.79571869  0.77989143  1
  O  O178  1  0.50833402  0.27457370  0.36540853  1
  O  O179  1  0.66986949  0.19238898  0.93221598  1
  O  O180  1  0.51378067  0.76469223  0.31540433  1
  O  O181  1  0.46298707  0.78223454  0.85592596  1
  O  O182  1  0.23259312  0.18923434  0.48668621  1
  O  O183  1  0.24611759  0.07370597  0.97377515  1
  O  O184  1  0.20097689  0.66285403  0.49322912  1
  O  O185  1  0.23914295  0.65086080  1.00975098  1
  O  O186  1  0.81975833  0.12435977  0.53247799  1
  O  O187  1  0.79293350  0.11427248  1.03342178  1
  O  O188  1  0.73149807  0.63410844  0.49143170  1
  O  O189  1  0.77568257  0.65768208  1.04663450  1
  O  O190  1  0.28120291  0.33056161  -0.08074362  1
  O  O191  1  0.20486602  0.35864755  0.50086575  1
  O  O192  1  0.25999676  0.87277262  0.01780181  1
  O  O193  1  0.19996343  0.86100255  0.48501265  1
  O  O194  1  0.73354825  0.39519917  -0.02135466  1
  O  O195  1  0.81515744  0.29510402  0.52934291  1
  O  O196  1  0.75445207  0.81290747  -0.07895632  1
  O  O197  1  0.75295256  0.84115609  0.48500692  1
  O  O198  1  0.16785553  0.43838821  0.28411593  1
  O  O199  1  0.14962613  0.51750881  0.74456694  1
  O  O200  1  0.15805749  0.97307080  0.25618629  1
  O  O201  1  0.06939533  1.01577743  0.74765649  1
  O  O202  1  0.62423932  0.51606639  0.20100628  1
  O  O203  1  0.60386041  0.47888859  0.72869573  1
  O  O204  1  0.65757692  1.01812054  0.30653881  1
  O  O205  1  0.58867523  1.04138727  0.72992980  1
  O  O206  1  0.34924785  0.05391246  0.24067527  1
  O  O207  1  0.38270100  -0.03153642  0.74581388  1
  O  O208  1  0.35920978  0.52472361  0.21656451  1
  O  O209  1  0.34074280  0.49831569  0.69383970  1
  O  O210  1  1.01913319  0.08086610  0.27347302  1
  O  O211  1  0.88221425  0.04037974  0.71675953  1
  O  O212  1  0.84617738  0.49704260  0.26257899  1
  O  O213  1  0.79856460  0.52638856  0.72778338  1
  O  O214  1  0.16770741  0.30559268  0.33277362  1
  O  O215  1  0.15807897  0.38167883  0.85668729  1
  O  O216  1  0.10502205  0.87446022  0.35796143  1
  O  O217  1  0.12679584  0.94149190  0.88021283  1
  O  O218  1  0.62715584  0.35822918  0.37643031  1
  O  O219  1  0.61458097  0.36961056  0.85605062  1
  O  O220  1  0.61071853  0.83859686  0.37823074  1
  O  O221  1  0.59441313  0.84828654  0.90484915  1
  O  O222  1  0.31961528  0.16235056  0.08134472  1
  O  O223  1  0.36175251  0.08455821  0.58580618  1
  O  O224  1  0.38143987  0.64523690  0.09407748  1
  O  O225  1  0.41008547  0.60712074  0.53098175  1
  O  O226  1  0.90364929  0.18813290  0.14749183  1
  O  O227  1  0.90541246  0.09924033  0.74517880  1
  O  O228  1  1.00755527  0.50255684  0.18851178  1
  O  O229  1  0.85264620  0.61715966  0.62063212  1
  O  O230  1  0.23819055  0.31523313  0.05290806  1
  O  O231  1  0.21593347  0.25561544  0.62775982  1
  O  O232  1  0.27453667  0.75235509  0.12509869  1
  O  O233  1  0.18479034  0.78841882  0.61984234  1
  O  O234  1  0.69947566  0.30674762  0.11954775  1
  O  O235  1  0.78121035  0.20504080  0.66235846  1
  O  O236  1  0.72137136  0.90355487  0.19555165  1
  O  O237  1  0.73699119  0.73175172  0.61558414  1
  O  O238  1  0.34418250  0.24260540  0.37136577  1
  O  O239  1  0.20856661  0.20499640  0.96715548  1
  O  O240  1  0.21842743  0.75904074  0.36713520  1
  O  O241  1  0.25140284  0.75416192  0.89412917  1
  O  O242  1  0.75187524  0.27678922  0.38021894  1
  O  O243  1  0.82323335  0.23557412  0.88344129  1
  O  O244  1  0.72864900  0.75341925  0.31158462  1
  O  O245  1  0.81260121  0.75784453  0.92755817  1
  O  O246  1  0.04235644  0.09349024  0.01964210  1
  O  O247  1  0.03753625  0.12428564  0.42944962  1
  O  O248  1  0.03490799  0.56179093  0.03450262  1
  O  O249  1  -0.00347887  0.63099754  0.45343420  1
  O  O250  1  0.46182033  0.11078934  -0.03864564  1
  O  O251  1  0.55075093  0.10048404  0.44442071  1
  O  O252  1  0.52326515  0.68956099  -0.02076978  1
  O  O253  1  0.41234645  0.54185853  0.50288122  1
  O  O254  1  0.50217033  0.37721825  0.48184737  1
  O  O255  1  0.53974020  0.27734139  0.98695860  1
  O  O256  1  0.47547750  0.76219112  0.47181155  1
  O  O257  1  0.47073103  0.86310469  0.98356628  1
  O  O258  1  0.95183355  0.39490410  0.51088475  1
  O  O259  1  1.10422335  0.37782015  1.01511490  1
  O  O260  1  1.03180227  0.93156045  0.47824156  1
  O  O261  1  1.01116138  0.89617681  1.06058003  1
  O  O262  1  0.55889271  0.47352877  0.34731723  1
  O  O263  1  0.48791857  0.46416784  0.92367667  1
  O  O264  1  0.51742691  0.91165101  0.46005092  1
  O  O265  1  0.48484164  0.97532151  0.87564064  1
  O  O266  1  0.99395708  0.47088786  0.36482290  1
  O  O267  1  0.99244807  0.49003069  0.86370722  1
  O  O268  1  0.96398436  0.93796963  0.34027084  1
  O  O269  1  1.00302437  0.97790891  0.93991310  1
  O  O270  1  -0.00060668  0.02334540  0.13365263  1
  O  O271  1  0.02414504  0.05684539  0.59482660  1
  O  O272  1  -0.04058198  0.47942921  0.14691212  1
  O  O273  1  0.01364523  0.44334259  0.70662302  1
  O  O274  1  0.54501783  0.00064321  0.02565027  1
  O  O275  1  0.51940294  0.04374440  0.59412084  1
  O  O276  1  0.50207054  0.50955538  0.10378363  1
  O  O277  1  0.49952223  0.50003120  0.61114540  1
  O  O278  1  0.28265021  0.36519817  0.25139015  1
  O  O279  1  0.22573566  0.41722898  0.73088773  1
  O  O280  1  0.27713854  0.85337379  0.24501705  1
  O  O281  1  0.22572073  0.88573375  0.74453454  1
  O  O282  1  0.71852390  0.41074473  0.25410266  1
  O  O283  1  0.71836141  0.40023177  0.75625972  1
  O  O284  1  0.72748440  1.01368526  0.31772531  1
  O  O285  1  0.66396525  0.80241575  0.75745171  1
  O  O286  1  0.29813081  0.09301908  0.28452492  1
  O  O287  1  0.20308230  0.19602502  0.81431061  1
  O  O288  1  0.24331435  0.60304634  0.29411956  1
  O  O289  1  0.22890674  0.61018902  0.65955024  1
  O  O290  1  0.76655040  0.16320570  0.22049700  1
  O  O291  1  0.81937599  0.17566126  0.84804265  1
  O  O292  1  0.76828101  0.62001073  0.21092489  1
  O  O293  1  0.67900715  0.62306416  0.74778367  1
  O  O294  1  0.40629887  0.02880348  0.27303550  1
  O  O295  1  0.31773711  0.17281154  0.87803063  1
  O  O296  1  0.33536705  0.67553290  0.38147761  1
  O  O297  1  0.39471048  0.59987024  0.90514367  1
  O  O298  1  0.89497843  0.16073799  0.31486938  1
  O  O299  1  0.79280915  0.08711699  0.96835981  1
  O  O300  1  0.87084749  0.64431236  0.36503014  1
  O  O301  1  0.86476902  0.59084190  0.84266640  1
  O  O302  1  0.16805592  0.39929108  0.15467004  1
  O  O303  1  0.02161488  0.47036205  0.64273409  1
  O  O304  1  0.16646102  0.85614989  0.15114093  1
  O  O305  1  0.12990384  0.94808879  0.62417826  1
  O  O306  1  0.62468167  0.42178880  0.07605931  1
  O  O307  1  0.60599359  0.38485625  0.60319388  1
  O  O308  1  0.65692928  0.92724678  0.19876484  1
  O  O309  1  0.60829982  0.91610638  0.63756374  1
  O  O310  1  0.22927366  0.25988899  0.20303878  1
  O  O311  1  0.07356056  0.32977151  0.67759171  1
  O  O312  1  0.11066694  0.76300325  0.26565909  1
  O  O313  1  0.05828232  0.81949260  0.76967488  1
  O  O314  1  0.63065918  0.22256590  0.30195225  1
  O  O315  1  0.62390681  0.27619681  0.72207988  1
  O  O316  1  0.61190414  0.73508263  0.22217564  1
  O  O317  1  0.54105380  0.77425444  0.66004718  1
  O  O318  1  0.44216822  0.27879348  0.22670726  1
  O  O319  1  0.32944912  0.31887115  0.76080009  1
  O  O320  1  0.38989068  0.73676876  0.22458656  1
  O  O321  1  0.34780430  0.79207076  0.71755710  1
  O  O322  1  0.84921514  0.30095915  0.24394135  1
  O  O323  1  0.96539304  0.25701720  0.77575416  1
  O  O324  1  0.90725441  0.75878077  0.24276704  1
  O  O325  1  0.84021842  0.71065215  0.72736548  1
  O  O326  1  0.35682938  0.34355109  0.58380514  1
  O  O327  1  0.34720020  0.48290372  1.00082354  1
  O  O328  1  0.33221904  0.98696013  0.42277891  1
  O  O329  1  0.37780867  0.98366717  1.01622834  1
  O  O330  1  0.80676120  0.46094607  0.53358911  1
  O  O331  1  0.88044282  0.51305288  0.97985640  1
  O  O332  1  0.86010930  0.96202774  0.52236466  1
  O  O333  1  0.91421958  1.01179137  1.03202280  1
  O  O334  1  0.11443624  -0.02518096  0.04079072  1
  O  O335  1  0.16812389  0.05277815  0.49183964  1
  O  O336  1  0.19033193  0.50663114  -0.04422087  1
  O  O337  1  0.11273862  0.52911814  0.49489402  1
  O  O338  1  0.71496886  -0.02599605  -0.01706541  1
  O  O339  1  0.67014918  0.00809781  0.50235754  1
  O  O340  1  0.60398100  0.54715851  -0.01207284  1
  O  O341  1  0.62227156  0.50847367  0.49944811  1
  O  O342  1  0.47092155  0.33387374  0.07494895  1
  O  O343  1  0.41103393  0.36444393  0.62077503  1
  O  O344  1  0.36954024  0.85369331  0.10725935  1
  O  O345  1  0.28223832  0.92226724  0.60459270  1
  O  O346  1  0.83470742  0.34051794  0.07295050  1
  O  O347  1  0.87651685  0.37888354  0.64868252  1
  O  O348  1  0.87058322  0.95324517  0.20286384  1
  O  O349  1  0.85411454  0.83593162  0.61192893  1
  O  O350  1  0.16839504  0.12999810  0.35352788  1
  O  O351  1  0.12821517  0.11496609  0.89110916  1
  O  O352  1  0.12992831  0.64004414  0.37374869  1
  O  O353  1  0.13913287  0.53845943  0.92020619  1
  O  O354  1  0.69655176  0.14066231  0.41962213  1
  O  O355  1  0.71626353  0.05778557  0.84221158  1
  O  O356  1  0.61887752  0.66686260  0.37458700  1
  O  O357  1  0.66438142  0.67168851  0.91175382  1
