# generated using pymatgen
data_V51Zn51O256
_symmetry_space_group_name_H-M   'P 1'
_cell_length_a   17.49141672
_cell_length_b   17.78940812
_cell_length_c   17.59776119
_cell_angle_alpha   88.56444149
_cell_angle_beta   89.15514756
_cell_angle_gamma   90.20596572
_symmetry_Int_Tables_number   1
_chemical_formula_structural   V51Zn51O256
_chemical_formula_sum   'V51 Zn51 O256'
_cell_volume   5473.39691124
_cell_formula_units_Z   1
loop_
 _symmetry_equiv_pos_site_id
 _symmetry_equiv_pos_as_xyz
  1  'x, y, z'
loop_
 _atom_site_type_symbol
 _atom_site_label
 _atom_site_symmetry_multiplicity
 _atom_site_fract_x
 _atom_site_fract_y
 _atom_site_fract_z
 _atom_site_occupancy
  V  V0  1  0.35260858  0.75120787  0.12451516  1
  V  V1  1  0.13368852  0.58091420  0.48918661  1
  V  V2  1  0.00723939  0.40131793  0.89723169  1
  V  V3  1  0.25685296  0.63730883  0.86919682  1
  V  V4  1  0.11941112  0.33519017  0.24424761  1
  V  V5  1  0.25710448  0.44105815  0.24292166  1
  V  V6  1  0.11329983  0.03254953  0.11460235  1
  V  V7  1  0.38920792  0.55606768  0.26009306  1
  V  V8  1  0.48306523  0.86808207  0.88255334  1
  V  V9  1  0.49579482  0.12409606  0.14548489  1
  V  V10  1  0.51208722  -0.00505493  0.02249263  1
  V  V11  1  0.22690040  0.00742382  0.28005972  1
  V  V12  1  0.87229132  0.77301653  0.17769052  1
  V  V13  1  0.65555081  0.48709272  0.80074140  1
  V  V14  1  0.38580853  0.03095322  0.88964627  1
  V  V15  1  0.74247986  0.22325340  0.49487157  1
  V  V16  1  -0.07762526  0.47351205  0.52583613  1
  V  V17  1  0.27985935  0.14716424  0.41143021  1
  V  V18  1  0.26998529  -0.00994536  0.69916717  1
  V  V19  1  0.73136657  0.81184920  0.53428089  1
  V  V20  1  0.89361878  0.83345887  0.49103765  1
  V  V21  1  0.29823553  0.26434376  -0.02764800  1
  V  V22  1  0.85563182  0.14328376  0.24743977  1
  V  V23  1  0.73751183  0.86560095  0.10811966  1
  V  V24  1  0.51842981  0.60655110  0.11103551  1
  V  V25  1  0.10191646  0.09817847  0.50596939  1
  V  V26  1  -0.05197113  0.19134724  0.07225564  1
  V  V27  1  0.17130129  0.34349003  0.72598745  1
  V  V28  1  0.69459310  0.53698157  0.61656907  1
  V  V29  1  0.54615290  -0.01192722  0.54137784  1
  V  V30  1  0.22991658  0.89145973  0.12104629  1
  V  V31  1  0.51201492  0.58696806  0.59790088  1
  V  V32  1  0.12463053  0.55347171  0.65763604  1
  V  V33  1  -0.00341837  0.36508179  0.36655483  1
  V  V34  1  0.88120618  -0.00576454  0.37700408  1
  V  V35  1  0.85500625  0.43716535  0.02628479  1
  V  V36  1  0.77971552  -0.02621499  0.24448452  1
  V  V37  1  0.76372105  0.21514854  0.05160923  1
  V  V38  1  0.14329742  0.47754471  0.10461129  1
  V  V39  1  0.36179441  0.88542393  0.01108431  1
  V  V40  1  0.46469279  0.78576024  0.24610163  1
  V  V41  1  0.59210477  0.77459562  0.34786781  1
  V  V42  1  0.38047532  0.69546562  0.55645670  1
  V  V43  1  0.37259158  0.12303022  0.26305885  1
  V  V44  1  0.50292927  0.32461521  0.44401598  1
  V  V45  1  0.54566071  0.24977182  0.73114165  1
  V  V46  1  0.88839820  0.48347655  0.31245808  1
  V  V47  1  0.35486026  -0.05276654  0.38346802  1
  V  V48  1  0.64534924  0.39303337  0.22828514  1
  V  V49  1  0.66959595  0.54416330  0.11610421  1
  V  V50  1  0.73770250  0.02129206  0.78433245  1
  Zn  Zn51  1  0.32448492  0.06762714  0.06708549  1
  Zn  Zn52  1  0.66906162  0.37063133  0.95971281  1
  Zn  Zn53  1  0.21216157  0.98848085  0.97604270  1
  Zn  Zn54  1  0.82375024  0.64183601  0.51977534  1
  Zn  Zn55  1  0.46171179  0.39083280  0.25393537  1
  Zn  Zn56  1  0.47153407  0.53605350  0.75855259  1
  Zn  Zn57  1  0.64072680  0.20876920  0.17492283  1
  Zn  Zn58  1  0.16359290  0.14793692  0.68717979  1
  Zn  Zn59  1  0.36033460  0.39429292  0.72805597  1
  Zn  Zn60  1  0.66452503  0.15526793  0.65643468  1
  Zn  Zn61  1  0.63562311  0.64416414  0.48789980  1
  Zn  Zn62  1  0.20566472  0.96285216  0.51010931  1
  Zn  Zn63  1  0.79508179  0.32288973  0.31509980  1
  Zn  Zn64  1  0.18517757  0.43493563  0.91001704  1
  Zn  Zn65  1  0.45309466  0.96629428  0.71283866  1
  Zn  Zn66  1  0.68240839  0.92925638  0.40151394  1
  Zn  Zn67  1  0.30149848  0.53972960  0.59134461  1
  Zn  Zn68  1  0.44297315  0.15335186  0.45760844  1
  Zn  Zn69  1  0.10404556  0.31826730  0.03939635  1
  Zn  Zn70  1  0.67659853  0.04957914  0.09094000  1
  Zn  Zn71  1  0.82353835  0.93779065  0.65159956  1
  Zn  Zn72  1  0.53215046  0.84873218  0.09675391  1
  Zn  Zn73  1  0.76011664  0.51137021  0.45447192  1
  Zn  Zn74  1  0.79344541  0.87952777  0.91330712  1
  Zn  Zn75  1  0.22950926  0.11955032  0.84559652  1
  Zn  Zn76  1  0.08383959  0.51612143  0.30553335  1
  Zn  Zn77  1  0.28855541  0.82534012  0.28041389  1
  Zn  Zn78  1  0.18673590  0.42582653  0.40501696  1
  Zn  Zn79  1  1.00556623  0.43792041  0.71645756  1
  Zn  Zn80  1  0.05064455  0.80451482  0.08839367  1
  Zn  Zn81  1  0.55279356  0.07942232  0.85792360  1
  Zn  Zn82  1  0.66394333  0.72285795  0.19346177  1
  Zn  Zn83  1  0.22046323  0.70295919  0.67042360  1
  Zn  Zn84  1  0.06430695  0.57327226  0.84390445  1
  Zn  Zn85  1  0.76941641  0.79305181  0.33344459  1
  Zn  Zn86  1  0.54477761  0.80163990  0.53079184  1
  Zn  Zn87  1  1.06964953  0.10511618  0.95359924  1
  Zn  Zn88  1  0.45443723  0.64941992  0.41279270  1
  Zn  Zn89  1  0.84732294  0.58163505  0.14480562  1
  Zn  Zn90  1  0.37000081  0.03746063  0.54570061  1
  Zn  Zn91  1  0.72442724  0.03735667  0.53470363  1
  Zn  Zn92  1  0.94493043  0.92485714  0.15731018  1
  Zn  Zn93  1  0.47650853  0.35171931  0.89764650  1
  Zn  Zn94  1  0.96142534  0.41776317  0.16841223  1
  Zn  Zn95  1  0.40964793  0.96379896  0.18919926  1
  Zn  Zn96  1  0.51519906  0.41211336  0.06437679  1
  Zn  Zn97  1  0.05588365  0.39899726  0.56520882  1
  Zn  Zn98  1  0.30104707  0.84059316  0.83308010  1
  Zn  Zn99  1  0.93497718  0.17139882  0.41464513  1
  Zn  Zn100  1  0.05458939  0.75781643  0.50559474  1
  Zn  Zn101  1  1.09985963  0.64286275  1.00901208  1
  O  O102  1  0.10819824  0.12395367  0.11112985  1
  O  O103  1  0.11038382  0.12964759  0.59818339  1
  O  O104  1  0.14895495  0.56812857  0.06809495  1
  O  O105  1  0.12793579  0.64924167  0.64470968  1
  O  O106  1  0.60163303  0.11273155  0.15088288  1
  O  O107  1  0.64227882  0.07597467  0.59595425  1
  O  O108  1  0.61285714  0.64192980  0.13623266  1
  O  O109  1  0.62235240  0.60943716  0.60305099  1
  O  O110  1  0.43525300  0.26439059  0.49942712  1
  O  O111  1  0.40185952  0.35480031  0.81739937  1
  O  O112  1  0.32724192  0.85446164  0.37612882  1
  O  O113  1  0.37499179  0.88820219  0.89818709  1
  O  O114  1  0.88484448  0.38466028  0.34088621  1
  O  O115  1  0.92480316  0.42712965  0.94912317  1
  O  O116  1  0.89327152  0.89191024  0.40730879  1
  O  O117  1  0.90190906  0.91458347  0.92862987  1
  O  O118  1  0.19524664  -0.03250148  0.36011649  1
  O  O119  1  0.27938406  0.03971985  0.90462821  1
  O  O120  1  0.25770855  0.47160241  0.33698196  1
  O  O121  1  0.24255209  0.53611765  0.87445389  1
  O  O122  1  0.77824484  -0.00564675  0.35908089  1
  O  O123  1  0.78560082  0.08475555  0.83394304  1
  O  O124  1  0.81707086  0.52756423  0.35774802  1
  O  O125  1  0.71082447  0.70233123  0.95826071  1
  O  O126  1  0.24587217  0.46781575  0.14316743  1
  O  O127  1  0.21735983  0.52570291  0.66604174  1
  O  O128  1  0.23052260  1.00296910  0.09531685  1
  O  O129  1  0.36129257  0.99672404  0.64947120  1
  O  O130  1  0.73965480  0.57936141  0.17464508  1
  O  O131  1  0.78221950  0.57852612  0.61353573  1
  O  O132  1  0.73650787  0.96916048  0.14647940  1
  O  O133  1  0.72097907  0.95489011  0.70152811  1
  O  O134  1  0.01034450  0.36589917  0.25917107  1
  O  O135  1  -0.02150594  0.38351899  0.80555143  1
  O  O136  1  0.03198748  0.93090100  0.33445500  1
  O  O137  1  -0.06343788  0.84555397  0.76224234  1
  O  O138  1  0.44841723  0.33953445  0.35436910  1
  O  O139  1  0.57424036  0.33563350  0.69248741  1
  O  O140  1  0.45517520  0.87853380  0.25392644  1
  O  O141  1  0.49770577  0.89808210  0.78917124  1
  O  O142  1  0.47679245  0.11775838  0.24934653  1
  O  O143  1  0.53723795  0.16168505  0.78677679  1
  O  O144  1  0.45477594  0.59960800  0.19057013  1
  O  O145  1  0.49435766  0.61833827  0.69009441  1
  O  O146  1  0.91545171  0.14981372  0.16471984  1
  O  O147  1  0.99537588  0.00716775  0.69492278  1
  O  O148  1  1.06243926  0.63712194  0.26701777  1
  O  O149  1  1.03476760  0.69402324  0.79578862  1
  O  O150  1  0.39649118  0.28123274  -0.04897434  1
  O  O151  1  0.30989942  0.23568600  0.64010651  1
  O  O152  1  0.37099982  0.78732249  0.02322289  1
  O  O153  1  0.36669919  0.69972492  0.46119891  1
  O  O154  1  0.70253519  0.27157215  0.00030766  1
  O  O155  1  0.84329394  0.21201159  0.47275597  1
  O  O156  1  0.94185464  0.85988298  -0.03256772  1
  O  O157  1  0.87576661  0.74295280  0.47184298  1
  O  O158  1  0.12812694  0.30610688  0.51174994  1
  O  O159  1  0.19732515  0.26102867  0.99616843  1
  O  O160  1  0.08405852  0.66388531  0.47699768  1
  O  O161  1  0.09875707  0.74499077  1.01824165  1
  O  O162  1  0.64504692  0.20768966  0.49599839  1
  O  O163  1  0.55299920  0.36731361  0.97249439  1
  O  O164  1  0.59756743  0.74456267  0.44624065  1
  O  O165  1  0.64054359  0.82217782  0.86143630  1
  O  O166  1  0.48616907  0.21279768  0.12610384  1
  O  O167  1  0.55401924  0.18917882  0.64559578  1
  O  O168  1  0.46302687  0.76966431  0.14011161  1
  O  O169  1  0.46555771  0.74107532  0.57750432  1
  O  O170  1  1.01464551  0.25767692  0.08156272  1
  O  O171  1  0.98497336  0.26883641  0.58990549  1
  O  O172  1  0.97215556  0.81291864  0.16583326  1
  O  O173  1  1.08898914  0.80799302  0.69752421  1
  O  O174  1  -0.02388251  0.27560166  0.38922437  1
  O  O175  1  -0.07506761  0.13881284  0.79234596  1
  O  O176  1  0.04709238  0.78112521  0.35405160  1
  O  O177  1  0.03488297  0.74918609  0.83796084  1
  O  O178  1  0.51645065  0.22603024  0.41010848  1
  O  O179  1  0.53644710  0.28582306  0.82289257  1
  O  O180  1  0.48670153  0.74156404  0.34268770  1
  O  O181  1  0.48008973  0.77673111  0.88076558  1
  O  O182  1  0.33498394  0.13600917  0.50002419  1
  O  O183  1  0.31120688  0.17044294  1.01405412  1
  O  O184  1  0.22558444  0.59086652  0.51452041  1
  O  O185  1  0.28789596  0.64517128  0.96179560  1
  O  O186  1  0.74472925  0.12532324  0.46624383  1
  O  O187  1  0.74168749  0.12220848  1.03723299  1
  O  O188  1  0.73577996  0.61778243  0.45358761  1
  O  O189  1  0.92837306  0.70797309  0.96430626  1
  O  O190  1  0.27545525  0.35358031  -0.07070366  1
  O  O191  1  0.24355310  0.40774419  0.50913051  1
  O  O192  1  0.25872549  0.88911831  0.00341136  1
  O  O193  1  0.19194870  0.84648332  0.48709696  1
  O  O194  1  0.76562508  0.41301732  -0.00142819  1
  O  O195  1  0.74484767  0.31119939  0.53558647  1
  O  O196  1  0.75054933  0.86821219  0.01241713  1
  O  O197  1  0.74130752  0.83483252  0.43434596  1
  O  O198  1  0.14529328  0.46758677  0.23358667  1
  O  O199  1  0.06222458  0.53739015  0.73827881  1
  O  O200  1  0.15223080  1.02617810  0.22007822  1
  O  O201  1  0.21350909  0.96976760  0.62508117  1
  O  O202  1  0.56355179  0.43933828  0.25981313  1
  O  O203  1  0.55575764  0.49609215  0.80730348  1
  O  O204  1  0.62788651  1.09125581  0.31190158  1
  O  O205  1  0.63934510  1.03714950  0.80176948  1
  O  O206  1  0.34148003  -0.00893069  0.28488529  1
  O  O207  1  0.39094557  0.01507746  0.79290266  1
  O  O208  1  0.36974824  0.45530895  0.24186501  1
  O  O209  1  0.37324325  0.49759895  0.74396403  1
  O  O210  1  0.87801311  -0.03451284  0.24961584  1
  O  O211  1  0.83364309  -0.01893999  0.75240163  1
  O  O212  1  0.89146947  0.50147839  0.21454315  1
  O  O213  1  0.86584835  0.63016304  0.78090208  1
  O  O214  1  0.10082594  0.37076536  0.36476554  1
  O  O215  1  0.16911591  0.37894566  0.81605631  1
  O  O216  1  0.21270400  0.71021267  0.37972592  1
  O  O217  1  0.04870124  0.90120153  0.86084651  1
  O  O218  1  0.58328532  0.35293509  0.39262226  1
  O  O219  1  0.67831494  0.40787617  0.85538930  1
  O  O220  1  0.60150128  0.86853621  0.35402463  1
  O  O221  1  0.60403700  0.85887558  0.91061507  1
  O  O222  1  0.38352550  0.07558556  0.15946240  1
  O  O223  1  0.33249678  0.17116979  0.65252900  1
  O  O224  1  0.33797126  0.66378047  0.11171900  1
  O  O225  1  0.39510313  0.59559298  0.57985855  1
  O  O226  1  0.86526581  0.23296593  0.03033835  1
  O  O227  1  0.81428424  0.02337022  0.58466239  1
  O  O228  1  0.88753261  0.68374257  0.14608534  1
  O  O229  1  0.89390339  0.67592665  0.73535454  1
  O  O230  1  0.31396855  0.29834800  0.06459278  1
  O  O231  1  0.17996982  0.27560421  0.54927062  1
  O  O232  1  0.25455745  0.79205846  0.12917636  1
  O  O233  1  0.30141150  0.72904998  0.60679012  1
  O  O234  1  0.74660403  0.22877333  0.14604375  1
  O  O235  1  0.75596436  0.19488511  0.59392964  1
  O  O236  1  0.75938050  0.76992691  0.15077445  1
  O  O237  1  0.74454350  0.72160511  0.55799148  1
  O  O238  1  0.27628193  0.23752695  0.39832513  1
  O  O239  1  0.28233911  0.21397352  0.88530189  1
  O  O240  1  0.20739632  0.73355825  0.31261587  1
  O  O241  1  0.25748674  0.73903097  0.86559034  1
  O  O242  1  0.73755892  0.26786754  0.40509052  1
  O  O243  1  0.66291987  0.18201825  0.91142750  1
  O  O244  1  0.67823735  0.73141773  0.31172657  1
  O  O245  1  0.81643037  0.78780375  0.85722630  1
  O  O246  1  -0.02138826  0.12839420  0.00706752  1
  O  O247  1  0.02068377  0.13433137  0.46715638  1
  O  O248  1  0.01165040  0.60755619  -0.06008133  1
  O  O249  1  -0.08485051  0.56903739  0.51291768  1
  O  O250  1  0.48730113  0.08840673  0.04566144  1
  O  O251  1  0.48224790  0.06121405  0.51177625  1
  O  O252  1  0.48456120  0.64507534  0.03424974  1
  O  O253  1  0.52510768  0.61359777  0.49196054  1
  O  O254  1  0.55820627  0.33502445  0.52216028  1
  O  O255  1  0.40807847  0.46772683  1.03794029  1
  O  O256  1  0.50840850  0.90420383  0.51885727  1
  O  O257  1  0.48284129  0.88661417  0.99797745  1
  O  O258  1  0.99201852  0.41058063  0.47049600  1
  O  O259  1  1.04962968  0.32621115  0.94060554  1
  O  O260  1  0.98481575  0.83322616  0.52759473  1
  O  O261  1  0.99503840  0.88699819  1.01028461  1
  O  O262  1  0.45310074  0.40416909  0.46414859  1
  O  O263  1  0.44561181  0.47343812  0.91305299  1
  O  O264  1  0.44641407  0.95148223  0.39400457  1
  O  O265  1  0.49867032  0.99827804  0.90806911  1
  O  O266  1  0.98117326  0.49869200  0.34547480  1
  O  O267  1  1.07728672  0.47510923  0.89407292  1
  O  O268  1  1.00337697  0.99349108  0.34810190  1
  O  O269  1  1.09044531  0.92317538  0.80794092  1
  O  O270  1  0.02244289  -0.00314930  0.13855623  1
  O  O271  1  -0.03391431  -0.02414639  0.64034204  1
  O  O272  1  0.04492166  0.47235294  0.12161061  1
  O  O273  1  -0.04745680  0.44508570  0.61855192  1
  O  O274  1  0.50266164  -0.04146037  0.12008969  1
  O  O275  1  0.53380070  -0.01338851  0.63924923  1
  O  O276  1  0.55487419  0.51573185  0.09200371  1
  O  O277  1  0.51924003  0.49565828  0.60738531  1
  O  O278  1  0.23080884  0.34791740  0.25480238  1
  O  O279  1  0.26216887  0.36456167  0.69528678  1
  O  O280  1  0.24028917  0.90766088  0.22290838  1
  O  O281  1  0.26333314  0.91451119  0.76314034  1
  O  O282  1  0.72078831  0.39584721  0.29113774  1
  O  O283  1  0.69930448  0.56210661  0.83119825  1
  O  O284  1  0.73847712  0.89030485  0.27296479  1
  O  O285  1  0.73378145  0.95554794  0.86108999  1
  O  O286  1  0.25873374  0.10275040  0.30837274  1
  O  O287  1  0.23337007  0.07844873  0.73828860  1
  O  O288  1  0.30747641  0.59950518  0.25533062  1
  O  O289  1  0.23000606  0.65169976  0.77069173  1
  O  O290  1  0.77564328  0.08438115  0.23546376  1
  O  O291  1  0.73865983  0.10224326  0.71513374  1
  O  O292  1  0.63342326  0.56325689  0.31166265  1
  O  O293  1  0.65914872  0.67513098  0.92221888  1
  O  O294  1  0.38442456  0.12453158  0.36704648  1
  O  O295  1  0.41837503  0.11854448  0.89434567  1
  O  O296  1  0.43208827  0.56868634  0.34598308  1
  O  O297  1  0.34932513  0.62136315  0.83793783  1
  O  O298  1  0.90195204  0.10211310  0.32889732  1
  O  O299  1  0.83027415  0.17851716  0.88662527  1
  O  O300  1  0.99672902  0.65990349  0.28182677  1
  O  O301  1  0.93340076  0.64543232  0.93494541  1
  O  O302  1  0.12428561  0.34374109  0.14620188  1
  O  O303  1  0.10039321  0.38975453  0.66551969  1
  O  O304  1  0.13403641  0.88288151  0.11076096  1
  O  O305  1  0.15686171  0.80796376  0.54018145  1
  O  O306  1  0.67386811  0.44143391  0.14293810  1
  O  O307  1  0.68125111  0.47810698  0.70007794  1
  O  O308  1  0.64012774  0.84632066  0.11426348  1
  O  O309  1  0.64672324  0.83725794  0.57324041  1
  O  O310  1  0.11182205  0.24688268  0.26645185  1
  O  O311  1  0.16209168  0.24668752  0.72564392  1
  O  O312  1  0.08706250  0.79277837  0.29645823  1
  O  O313  1  0.15891514  0.80022130  0.71054068  1
  O  O314  1  0.61957829  0.29970976  0.21994140  1
  O  O315  1  0.65608451  0.23428851  0.72988342  1
  O  O316  1  0.56829555  0.77446912  0.23506745  1
  O  O317  1  0.77578179  0.77679503  0.78940534  1
  O  O318  1  0.35233168  0.20818337  0.23647177  1
  O  O319  1  0.45388439  0.25929588  0.70383776  1
  O  O320  1  0.36155688  0.75608480  0.23555894  1
  O  O321  1  0.36422579  0.77730643  0.74835074  1
  O  O322  1  0.83184269  0.22972872  0.27806943  1
  O  O323  1  0.88482401  0.19467561  0.78365199  1
  O  O324  1  0.85869823  0.77024859  0.27420915  1
  O  O325  1  0.89904625  0.84261629  0.70266210  1
  O  O326  1  0.30411886  0.44639235  0.52096165  1
  O  O327  1  0.39997860  0.49521639  0.96858049  1
  O  O328  1  0.30964592  0.98106046  0.47124700  1
  O  O329  1  0.38289318  0.99599269  1.00043363  1
  O  O330  1  0.83587504  0.43989541  0.50238992  1
  O  O331  1  0.85998940  0.53002751  1.05065762  1
  O  O332  1  0.89433112  1.02951074  0.45988765  1
  O  O333  1  0.86775148  1.12403057  0.90289496  1
  O  O334  1  0.11232647  0.01829750  0.00667916  1
  O  O335  1  0.10243099  0.00121549  0.50628754  1
  O  O336  1  0.15883992  0.42360894  0.01975779  1
  O  O337  1  0.09182444  0.51940232  0.56517628  1
  O  O338  1  0.60937068  -0.00001192  0.01651624  1
  O  O339  1  0.64310551  -0.01684093  0.48980988  1
  O  O340  1  0.70110923  0.55405390  0.02959781  1
  O  O341  1  0.68759091  0.48358265  0.53664629  1
  O  O342  1  0.47773101  0.36080411  0.15339263  1
  O  O343  1  0.40934293  0.39996582  0.63501447  1
  O  O344  1  0.35281240  0.90044320  0.11334665  1
  O  O345  1  0.40467855  0.81523689  0.70251016  1
  O  O346  1  0.88304949  0.38198628  0.10328804  1
  O  O347  1  0.92963792  0.26344143  0.63447715  1
  O  O348  1  0.84762758  0.87007209  0.13195680  1
  O  O349  1  0.82188651  0.86169910  0.56758800  1
  O  O350  1  0.18560589  0.12282601  0.44985746  1
  O  O351  1  0.12706296  0.13887143  0.87197147  1
  O  O352  1  0.12874834  0.52762226  0.40815517  1
  O  O353  1  0.15445423  0.63295326  0.89527112  1
  O  O354  1  0.59188559  0.04440911  0.35111588  1
  O  O355  1  0.60576566  0.14408111  0.93556338  1
  O  O356  1  0.63492847  0.53713760  0.37670970  1
  O  O357  1  0.72691856  0.72495492  0.78866438  1
