# generated using pymatgen
data_V51Zn51O256
_symmetry_space_group_name_H-M   'P 1'
_cell_length_a   17.28969311
_cell_length_b   17.19111150
_cell_length_c   17.41258626
_cell_angle_alpha   91.72487664
_cell_angle_beta   90.14768595
_cell_angle_gamma   89.91065651
_symmetry_Int_Tables_number   1
_chemical_formula_structural   V51Zn51O256
_chemical_formula_sum   'V51 Zn51 O256'
_cell_volume   5173.15835774
_cell_formula_units_Z   1
loop_
 _symmetry_equiv_pos_site_id
 _symmetry_equiv_pos_as_xyz
  1  'x, y, z'
loop_
 _atom_site_type_symbol
 _atom_site_label
 _atom_site_symmetry_multiplicity
 _atom_site_fract_x
 _atom_site_fract_y
 _atom_site_fract_z
 _atom_site_occupancy
  V  V0  1  0.48927869  0.15028281  0.63417639  1
  V  V1  1  0.74997702  0.11764224  0.37189415  1
  V  V2  1  0.25157818  0.03183996  0.18750602  1
  V  V3  1  0.63880864  0.04267320  0.62766316  1
  V  V4  1  0.49448269  0.88768818  0.37485377  1
  V  V5  1  0.15019287  0.10164268  0.03703113  1
  V  V6  1  0.62222029  0.75879717  0.36094798  1
  V  V7  1  0.39786649  0.24711739  0.08501375  1
  V  V8  1  0.37344807  0.47547212  0.37034042  1
  V  V9  1  0.86175301  0.22249596  0.11780980  1
  V  V10  1  0.60733975  0.36549589  0.25850149  1
  V  V11  1  -0.01505007  0.24018220  0.25023254  1
  V  V12  1  0.35536317  0.59116458  0.75152005  1
  V  V13  1  0.60324192  0.51788713  0.60556189  1
  V  V14  1  0.99001307  0.68806028  0.16405132  1
  V  V15  1  -0.00824631  0.54437790  0.02012251  1
  V  V16  1  0.73123664  0.37356697  0.10080927  1
  V  V17  1  0.63140248  0.00568354  0.12427512  1
  V  V18  1  -0.11480831  0.68055414  0.66781035  1
  V  V19  1  0.25242518  0.51350260  0.23384742  1
  V  V20  1  0.12924539  0.37213422  0.24271074  1
  V  V21  1  0.02990406  0.35284857  0.90569978  1
  V  V22  1  0.63760498  0.92580883  0.78997141  1
  V  V23  1  0.12864046  0.72701598  0.41875332  1
  V  V24  1  0.49333224  -0.00149047  0.52728041  1
  V  V25  1  0.16743127  0.69618033  0.80870216  1
  V  V26  1  0.29684305  0.89703414  0.72508847  1
  V  V27  1  0.40095754  0.85402617  0.55787713  1
  V  V28  1  0.10903397  0.49759448  0.61088720  1
  V  V29  1  0.72023530  0.73725123  0.04042506  1
  V  V30  1  0.59083446  0.51040686  0.12563282  1
  V  V31  1  0.48703239  0.50856830  -0.00952250  1
  V  V32  1  0.36283448  0.88050832  -0.01242853  1
  V  V33  1  0.34716315  0.48028061  0.88282302  1
  V  V34  1  0.22402677  0.13705192  0.83073773  1
  V  V35  1  0.49430102  0.23889477  0.27313545  1
  V  V36  1  0.37687411  0.12173335  0.26206044  1
  V  V37  1  0.88396311  0.89957641  0.46834898  1
  V  V38  1  0.88091683  0.37385146  0.50709962  1
  V  V39  1  0.02115080  0.23763923  0.71936898  1
  V  V40  1  0.35983988  0.35099804  0.49374283  1
  V  V41  1  0.93545637  0.00916537  0.93495231  1
  V  V42  1  0.87419501  0.50628125  0.85317115  1
  V  V43  1  0.50049780  0.36503939  0.85736097  1
  V  V44  1  0.89115017  0.09992584  0.70943200  1
  V  V45  1  0.46052433  0.74135989  0.26738201  1
  V  V46  1  0.71995755  0.62771355  0.86176039  1
  V  V47  1  0.83875147  0.83509020  0.11681645  1
  V  V48  1  -0.01220706  0.40690280  0.35393459  1
  V  V49  1  0.71472563  0.60175832  0.35688928  1
  V  V50  1  0.39326255  0.04664482  0.85953716  1
  Zn  Zn51  1  0.69440010  0.43263861  0.91223785  1
  Zn  Zn52  1  0.14796194  0.68707317  0.21655898  1
  Zn  Zn53  1  0.55019480  0.32035566  0.03551166  1
  Zn  Zn54  1  0.92294494  0.20916919  0.42589774  1
  Zn  Zn55  1  0.91993420  0.02257740  0.12399700  1
  Zn  Zn56  1  0.18794794  0.44084109  0.42449912  1
  Zn  Zn57  1  0.74692106  0.93273063  0.96593994  1
  Zn  Zn58  1  0.39771608  0.67664730  0.93329982  1
  Zn  Zn59  1  0.33324955  0.07338585  0.03261789  1
  Zn  Zn60  1  0.22187262  0.96146970  0.91663689  1
  Zn  Zn61  1  0.31712544  0.06324422  0.68027706  1
  Zn  Zn62  1  0.06175969  0.78297779  0.66483502  1
  Zn  Zn63  1  0.95965947  0.42019234  0.68226181  1
  Zn  Zn64  1  0.08251318  -0.05678011  0.21585137  1
  Zn  Zn65  1  0.36403166  0.25979489  0.88094654  1
  Zn  Zn66  1  0.30683102  0.50670385  0.56811011  1
  Zn  Zn67  1  0.79699411  0.56258811  0.55827199  1
  Zn  Zn68  1  0.18510255  0.31682198  0.81337185  1
  Zn  Zn69  1  0.07511997  0.55561539  0.29970251  1
  Zn  Zn70  1  0.21446188  0.86715209  0.59352103  1
  Zn  Zn71  1  0.43154190  0.42112187  0.19009293  1
  Zn  Zn72  1  0.97768100  0.19151103  0.96679127  1
  Zn  Zn73  1  0.92677010  0.89451128  0.26352413  1
  Zn  Zn74  1  0.79777357  0.72876400  0.24754044  1
  Zn  Zn75  1  0.47333289  0.94858340  0.70960046  1
  Zn  Zn76  1  0.57432805  0.50223954  0.81528861  1
  Zn  Zn77  1  0.64910309  0.21424424  0.14276757  1
  Zn  Zn78  1  0.66944979  0.41897264  0.43708855  1
  Zn  Zn79  1  0.33231882  0.79186650  0.39574515  1
  Zn  Zn80  1  0.07000248  0.27924623  0.08233127  1
  Zn  Zn81  1  0.87918712  0.34775871  0.81545278  1
  Zn  Zn82  1  0.14359072  0.50470111  0.89377585  1
  Zn  Zn83  1  0.56520358  0.08859350  0.80068646  1
  Zn  Zn84  1  0.67744006  0.74879872  0.70765882  1
  Zn  Zn85  1  0.67091717  0.93325192  0.45140725  1
  Zn  Zn86  1  0.16829619  0.18247071  0.22105478  1
  Zn  Zn87  1  0.57316075  0.72009245  0.15147955  1
  Zn  Zn88  1  0.81856122  0.35127656  0.25546410  1
  Zn  Zn89  1  0.90744545  0.89513941  0.68332570  1
  Zn  Zn90  1  0.54015089  0.56493975  0.29805415  1
  Zn  Zn91  1  0.31195414  0.30404296  0.31109183  1
  Zn  Zn92  1  0.54685726  0.32677157  0.55047168  1
  Zn  Zn93  1  0.31677049  0.42233438  0.06335257  1
  Zn  Zn94  1  0.02832769  0.07649409  0.83123491  1
  Zn  Zn95  1  0.81035335  0.08723340  0.55190201  1
  Zn  Zn96  1  0.55048953  0.77355127  0.54792506  1
  Zn  Zn97  1  0.46710247  0.89213425  0.16425956  1
  Zn  Zn98  1  0.38290006  0.39343106  0.70347556  1
  Zn  Zn99  1  0.94901458  0.38830263  0.14611736  1
  Zn  Zn100  1  0.94172189  0.71262046  0.50936291  1
  Zn  Zn101  1  0.43490279  0.16988989  0.44500287  1
  O  O102  1  0.15787296  0.09385571  0.14170033  1
  O  O103  1  0.14952683  0.16470448  0.55953124  1
  O  O104  1  0.05174048  0.61893478  0.21299972  1
  O  O105  1  0.12220000  0.59313816  0.59194391  1
  O  O106  1  0.63352894  0.10504887  0.13454365  1
  O  O107  1  0.61386725  0.13598680  0.61802322  1
  O  O108  1  0.59371856  0.60577725  0.15038107  1
  O  O109  1  0.63481983  0.61645936  0.60639938  1
  O  O110  1  0.37500583  0.37101424  0.38041485  1
  O  O111  1  0.38127548  0.37759495  0.87051274  1
  O  O112  1  0.40682444  0.86686584  0.43104597  1
  O  O113  1  0.55770844  0.85219508  0.96763607  1
  O  O114  1  0.88572898  0.39657142  0.33302174  1
  O  O115  1  0.94346416  0.40656088  0.89155514  1
  O  O116  1  0.88425983  0.91448937  0.36696341  1
  O  O117  1  0.84530471  0.96654856  0.92995000  1
  O  O118  1  0.21783683  -0.01284785  0.48039310  1
  O  O119  1  0.26911380  0.05469432  0.87101105  1
  O  O120  1  0.26334563  0.49145235  0.34984658  1
  O  O121  1  0.25122526  0.46865448  0.88970840  1
  O  O122  1  0.72103530  0.02119596  0.39820557  1
  O  O123  1  0.77460330  0.15340898  0.92739839  1
  O  O124  1  0.70591175  0.50445248  0.36874436  1
  O  O125  1  0.79956182  0.43821002  0.86294855  1
  O  O126  1  0.26019618  0.48369903  0.13958860  1
  O  O127  1  0.20260482  0.45475266  0.60443209  1
  O  O128  1  0.26980122  1.00226735  0.09529933  1
  O  O129  1  0.25398390  0.96711610  0.66471192  1
  O  O130  1  0.68899220  0.46852997  0.12232613  1
  O  O131  1  0.70678760  0.49869421  0.59443024  1
  O  O132  1  0.84949815  0.93265574  0.10406169  1
  O  O133  1  0.73754894  1.04436236  0.61979356  1
  O  O134  1  0.00949560  0.38268224  0.24885957  1
  O  O135  1  -0.03928360  0.32301311  0.74056634  1
  O  O136  1  0.03133806  0.87283233  0.28537652  1
  O  O137  1  0.00332138  0.85978764  0.71520719  1
  O  O138  1  0.49377962  0.34390209  0.24526034  1
  O  O139  1  0.47849976  0.38032289  0.75867719  1
  O  O140  1  0.47141307  0.90473092  0.28242672  1
  O  O141  1  0.54138682  0.89899992  0.78156390  1
  O  O142  1  0.47874063  0.13528187  0.24056094  1
  O  O143  1  0.51259150  0.15416333  0.73166354  1
  O  O144  1  0.46514707  0.64267664  0.26117910  1
  O  O145  1  0.52806226  0.69526770  0.87773402  1
  O  O146  1  0.99153959  0.14563331  0.24639143  1
  O  O147  1  0.98813666  0.13630541  0.74382730  1
  O  O148  1  0.90006132  0.54539599  0.24579249  1
  O  O149  1  0.93160403  0.65851404  0.74518046  1
  O  O150  1  0.37959402  0.25258850  -0.00931515  1
  O  O151  1  0.36687783  0.25253904  0.48862085  1
  O  O152  1  0.39306976  0.78910012  -0.04919813  1
  O  O153  1  0.43466067  0.76106156  0.55352075  1
  O  O154  1  0.89240515  0.23962157  0.02419529  1
  O  O155  1  0.86686083  0.27523246  0.49467660  1
  O  O156  1  0.79028371  0.60312424  0.11339261  1
  O  O157  1  0.89512106  0.79606485  0.45391173  1
  O  O158  1  0.19609005  0.24526724  0.41697682  1
  O  O159  1  0.21331201  0.29489377  1.02345153  1
  O  O160  1  0.17784845  0.70845958  0.50294772  1
  O  O161  1  0.15315431  0.72828788  1.02181861  1
  O  O162  1  0.64350647  0.33501830  0.50394199  1
  O  O163  1  0.62282257  0.22326142  0.98120015  1
  O  O164  1  0.61369217  0.74497247  0.46099471  1
  O  O165  1  0.62541361  0.75127244  1.05953662  1
  O  O166  1  0.49681018  0.24345652  0.09661693  1
  O  O167  1  0.50118927  0.24437043  0.60451500  1
  O  O168  1  0.47226306  0.77548452  0.16958871  1
  O  O169  1  0.59269948  0.73645387  0.64094127  1
  O  O170  1  0.97284976  0.27245917  0.14063354  1
  O  O171  1  1.02253579  0.23081422  0.62538312  1
  O  O172  1  1.06077005  0.75711147  0.16499087  1
  O  O173  1  0.97111128  0.73110982  0.61542650  1
  O  O174  1  -0.02533982  0.26786743  0.34915667  1
  O  O175  1  0.01230533  0.25759172  0.87852924  1
  O  O176  1  0.03529580  0.70004079  0.45458278  1
  O  O177  1  0.09307597  0.75099749  0.87971458  1
  O  O178  1  0.49760934  0.23355187  0.36934521  1
  O  O179  1  0.49776692  0.26883842  0.86563790  1
  O  O180  1  0.49993208  0.77422330  0.36489752  1
  O  O181  1  0.54133061  0.74971745  0.83550713  1
  O  O182  1  0.20838400  0.12986817  0.54091539  1
  O  O183  1  0.23508577  0.13791607  1.00662614  1
  O  O184  1  0.22961888  0.53498409  0.48864689  1
  O  O185  1  0.21181368  0.68822090  1.02569626  1
  O  O186  1  0.74315010  0.13368171  0.47601035  1
  O  O187  1  0.77125849  0.22380179  0.92380715  1
  O  O188  1  0.74691561  0.63276493  0.46864547  1
  O  O189  1  0.75690895  0.62818235  1.04166456  1
  O  O190  1  0.23996890  0.36099744  -0.00490492  1
  O  O191  1  0.26074503  0.37090052  0.47585499  1
  O  O192  1  0.26462496  0.87990896  -0.01756777  1
  O  O193  1  0.30242298  0.84487489  0.53145177  1
  O  O194  1  0.73581768  0.38069236  0.00422713  1
  O  O195  1  0.78279483  0.41199571  0.47513835  1
  O  O196  1  0.76811585  0.82647082  0.01996327  1
  O  O197  1  0.77801616  0.89148652  0.45892367  1
  O  O198  1  0.14919897  0.48240196  0.24993298  1
  O  O199  1  0.13882853  0.51591371  0.70707479  1
  O  O200  1  0.19057940  0.96989945  0.23310704  1
  O  O201  1  0.09917271  1.01024127  0.61516475  1
  O  O202  1  0.58013476  0.46979328  0.22747640  1
  O  O203  1  0.59688484  0.52349462  0.70784633  1
  O  O204  1  0.64587386  0.96563541  0.23394458  1
  O  O205  1  0.63829909  1.01900009  0.73759292  1
  O  O206  1  0.35234770  0.02357970  0.22500525  1
  O  O207  1  0.38125064  0.00298403  0.76326321  1
  O  O208  1  0.35776351  0.48296101  0.25418520  1
  O  O209  1  0.35854083  0.48601303  0.77197776  1
  O  O210  1  0.97483799  -0.02025841  0.21082702  1
  O  O211  1  0.88302306  -0.00139220  0.70997886  1
  O  O212  1  0.84897420  0.51564583  0.28236293  1
  O  O213  1  0.91354693  0.48428521  0.76586203  1
  O  O214  1  0.10208589  0.39184908  0.36058797  1
  O  O215  1  0.11125361  0.39458916  0.85502948  1
  O  O216  1  0.09575043  0.82093447  0.43591931  1
  O  O217  1  0.14916357  0.79971250  0.86393722  1
  O  O218  1  0.60429968  0.37719469  0.35340256  1
  O  O219  1  0.60449157  0.39587852  0.85091833  1
  O  O220  1  0.60562228  0.87259316  0.38166627  1
  O  O221  1  0.66766237  0.93910580  0.88254699  1
  O  O222  1  0.36683059  0.15243122  0.10804374  1
  O  O223  1  0.39050072  0.13024176  0.63594304  1
  O  O224  1  0.28287997  0.75436990  0.13705877  1
  O  O225  1  0.32370444  0.57450792  0.65632433  1
  O  O226  1  0.86850161  0.12508669  0.12635861  1
  O  O227  1  0.88542865  0.13223195  0.61445533  1
  O  O228  1  0.82640525  0.54032463  0.10674078  1
  O  O229  1  0.82019861  0.59605183  0.66311539  1
  O  O230  1  0.23827357  0.27522504  0.09065583  1
  O  O231  1  0.29626069  0.25674721  0.62775474  1
  O  O232  1  0.22422332  0.77591649  0.17328833  1
  O  O233  1  0.24849453  0.81764774  0.69195618  1
  O  O234  1  0.76050018  0.24867005  0.11418954  1
  O  O235  1  0.74396318  0.28638842  0.64030803  1
  O  O236  1  0.76268872  0.74718788  0.13550911  1
  O  O237  1  0.79123973  0.74379745  0.65895245  1
  O  O238  1  0.24184106  0.21695579  0.35904732  1
  O  O239  1  0.25010057  0.23666770  0.86055408  1
  O  O240  1  0.22442202  0.75724869  0.39277915  1
  O  O241  1  0.27276886  0.72200887  0.82768320  1
  O  O242  1  0.76103759  0.21672666  0.35417985  1
  O  O243  1  0.67631430  0.26483627  0.80401521  1
  O  O244  1  0.71911053  0.75923169  0.33868781  1
  O  O245  1  0.71699305  0.69815461  0.93654409  1
  O  O246  1  0.07675878  0.17666580  0.02640344  1
  O  O247  1  0.00587944  0.14039846  0.46820203  1
  O  O248  1  -0.01280988  0.63551393  0.06920849  1
  O  O249  1  -0.11218621  0.63427892  0.55786655  1
  O  O250  1  0.58951483  0.16554661  -0.05661344  1
  O  O251  1  0.49024754  0.10526335  0.51821620  1
  O  O252  1  0.46336175  0.60633287  -0.00281023  1
  O  O253  1  0.35834432  0.67356758  0.43619155  1
  O  O254  1  0.46252030  0.37773693  0.50262077  1
  O  O255  1  0.50154922  0.38911373  0.96991228  1
  O  O256  1  0.50953905  0.88757609  0.54830039  1
  O  O257  1  0.51283063  0.90597986  0.95758736  1
  O  O258  1  0.96952156  0.38972006  0.45980309  1
  O  O259  1  1.05181942  0.35251406  1.00002587  1
  O  O260  1  0.97896653  0.92980881  0.46406926  1
  O  O261  1  1.07253966  0.85150290  0.99661704  1
  O  O262  1  0.46621574  0.50774600  0.35744944  1
  O  O263  1  0.48459614  0.50098597  0.88400122  1
  O  O264  1  0.50669281  0.98166978  0.42347444  1
  O  O265  1  0.49154400  1.03690233  0.86668925  1
  O  O266  1  0.99586190  0.50692589  0.35693161  1
  O  O267  1  0.95329115  0.56764359  0.91181809  1
  O  O268  1  1.03204628  1.09533092  0.40778375  1
  O  O269  1  1.00213010  0.97250572  0.86750482  1
  O  O270  1  0.05771387  -0.12241542  0.06354890  1
  O  O271  1  0.05019802  0.05566402  0.59252320  1
  O  O272  1  -0.02710093  0.47719429  0.08744221  1
  O  O273  1  0.00717712  0.52017265  0.62633455  1
  O  O274  1  0.54142375  -0.03660634  0.12168525  1
  O  O275  1  0.51742109  0.02350001  0.63662006  1
  O  O276  1  0.48920540  0.47845609  0.10718177  1
  O  O277  1  0.50875940  0.54784108  0.58914688  1
  O  O278  1  0.22446267  0.34711243  0.25931818  1
  O  O279  1  0.27768143  0.33548822  0.73464731  1
  O  O280  1  0.23706692  0.98019388  0.41271995  1
  O  O281  1  0.26985667  0.90605554  0.82003360  1
  O  O282  1  0.70756785  0.36342630  0.24069477  1
  O  O283  1  0.78521923  0.33484045  0.75241266  1
  O  O284  1  0.83982563  0.83846595  0.22387670  1
  O  O285  1  0.71049957  0.89322575  0.61758460  1
  O  O286  1  0.26549114  0.13306041  0.23471933  1
  O  O287  1  0.24089556  0.12866306  0.73446984  1
  O  O288  1  0.23404875  0.61210860  0.23202057  1
  O  O289  1  0.27524216  0.67458145  0.76053104  1
  O  O290  1  0.77758235  0.07910500  0.28403856  1
  O  O291  1  0.82197334  0.14361317  0.75947650  1
  O  O292  1  0.75475138  0.62242621  0.26954779  1
  O  O293  1  0.68547678  0.67004523  0.78307038  1
  O  O294  1  0.37720668  0.11405851  0.35826347  1
  O  O295  1  0.38423572  0.14471736  0.85585105  1
  O  O296  1  0.34328377  0.62851615  0.38070597  1
  O  O297  1  0.35047958  0.59166290  0.86988923  1
  O  O298  1  0.85514290  0.11622398  0.39503171  1
  O  O299  1  0.93503151  0.10823552  0.90451778  1
  O  O300  1  0.80321064  0.63954913  0.41367086  1
  O  O301  1  0.81454936  0.59162290  0.83933469  1
  O  O302  1  0.11944689  0.36418608  0.14462467  1
  O  O303  1  0.06815026  0.40247826  0.63804354  1
  O  O304  1  0.11761779  0.90257693  0.10649990  1
  O  O305  1  0.11042205  0.84069089  0.58757136  1
  O  O306  1  0.63401306  0.32621694  0.11017593  1
  O  O307  1  0.58586058  0.41658968  0.62551570  1
  O  O308  1  0.70896963  0.95493068  0.19302705  1
  O  O309  1  0.68285650  0.84489828  0.57100326  1
  O  O310  1  0.09627575  0.25877130  0.24659212  1
  O  O311  1  0.11481413  0.25758892  0.74465576  1
  O  O312  1  0.11066959  0.73872260  0.31564545  1
  O  O313  1  0.11979435  0.71221004  0.72512263  1
  O  O314  1  0.59764077  0.25055410  0.24424369  1
  O  O315  1  0.64252924  0.23190185  0.75103119  1
  O  O316  1  0.58520107  0.75260349  0.25995735  1
  O  O317  1  0.69306857  0.85261657  0.75003871  1
  O  O318  1  0.38247858  0.23559253  0.25488439  1
  O  O319  1  0.24781446  0.28825533  0.67189995  1
  O  O320  1  0.36608347  0.76674098  0.29121178  1
  O  O321  1  0.44222918  0.62724546  0.74503112  1
  O  O322  1  0.87341521  0.25212325  0.22925530  1
  O  O323  1  0.79583529  0.28380007  0.69108550  1
  O  O324  1  0.91348277  0.69789578  0.22618803  1
  O  O325  1  0.85094513  0.78453901  0.70006927  1
  O  O326  1  0.36455726  0.49984263  0.46932888  1
  O  O327  1  0.37405539  0.48249613  0.98804403  1
  O  O328  1  0.39802128  0.97754023  0.54271610  1
  O  O329  1  0.37519990  0.99170997  0.95405135  1
  O  O330  1  0.82947855  0.47914238  0.48131281  1
  O  O331  1  0.89350097  0.53788255  0.96650578  1
  O  O332  1  0.85859142  0.99556667  0.50180595  1
  O  O333  1  0.97381409  1.01357253  1.02660062  1
  O  O334  1  0.14099852  0.01675983  -0.01746949  1
  O  O335  1  0.09189333  0.05402309  0.41889031  1
  O  O336  1  0.08224919  0.52747061  -0.01565628  1
  O  O337  1  0.09930603  0.47020989  0.51180524  1
  O  O338  1  0.67984038  -0.02197766  0.04348899  1
  O  O339  1  0.61926876  -0.00698907  0.53401782  1
  O  O340  1  0.58951255  0.51297027  0.01730052  1
  O  O341  1  0.60168439  0.49501361  0.50426675  1
  O  O342  1  0.37200732  0.34541958  0.12368295  1
  O  O343  1  0.35733485  0.40309634  0.59543584  1
  O  O344  1  0.38899206  0.88914968  0.08073379  1
  O  O345  1  0.39250005  0.87629791  0.66561462  1
  O  O346  1  0.82895749  0.38364440  0.14084169  1
  O  O347  1  0.88631989  0.39543051  0.60280304  1
  O  O348  1  0.91987900  0.78506190  0.09698885  1
  O  O349  1  0.88987523  0.87413977  0.56645857  1
  O  O350  1  0.12964952  0.21606958  0.42089169  1
  O  O351  1  0.12828411  0.12163566  0.84730140  1
  O  O352  1  0.13024638  0.62610754  0.38098779  1
  O  O353  1  0.14924340  0.60670878  0.84405633  1
  O  O354  1  0.65479274  0.13654852  0.34775924  1
  O  O355  1  0.63293804  0.13397803  0.88678142  1
  O  O356  1  0.61616893  0.63523490  0.35270842  1
  O  O357  1  0.66342148  0.54510352  0.87585444  1
