# generated using pymatgen
data_V51Zn51O256
_symmetry_space_group_name_H-M   'P 1'
_cell_length_a   17.54851764
_cell_length_b   17.72378362
_cell_length_c   17.56773070
_cell_angle_alpha   91.22820314
_cell_angle_beta   88.66918919
_cell_angle_gamma   90.09298453
_symmetry_Int_Tables_number   1
_chemical_formula_structural   V51Zn51O256
_chemical_formula_sum   'V51 Zn51 O256'
_cell_volume   5461.29098461
_cell_formula_units_Z   1
loop_
 _symmetry_equiv_pos_site_id
 _symmetry_equiv_pos_as_xyz
  1  'x, y, z'
loop_
 _atom_site_type_symbol
 _atom_site_label
 _atom_site_symmetry_multiplicity
 _atom_site_fract_x
 _atom_site_fract_y
 _atom_site_fract_z
 _atom_site_occupancy
  V  V0  1  0.84388890  0.88075696  -0.00971624  1
  V  V1  1  0.11647600  0.37203572  0.21532141  1
  V  V2  1  0.70147965  0.18325574  0.03006111  1
  V  V3  1  -0.02197848  0.77100316  0.26539399  1
  V  V4  1  0.77711199  0.42352334  0.06959690  1
  V  V5  1  0.56346809  -0.01682494  0.15380744  1
  V  V6  1  0.21663647  0.12541909  0.88089372  1
  V  V7  1  0.45941448  0.14102074  0.15414035  1
  V  V8  1  0.13664364  0.89030978  0.69699513  1
  V  V9  1  0.35930669  0.35517869  -0.02072491  1
  V  V10  1  0.75608946  -0.05323511  0.74521885  1
  V  V11  1  0.48773836  0.00330434  -0.01584502  1
  V  V12  1  0.08725405  0.51967778  0.63262926  1
  V  V13  1  0.09871829  0.01715556  0.59087832  1
  V  V14  1  0.28483868  -0.00392704  0.69487948  1
  V  V15  1  0.23029478  0.46814081  0.73766768  1
  V  V16  1  0.80353173  0.63513252  0.40056135  1
  V  V17  1  0.12809709  0.75959747  0.36218210  1
  V  V18  1  0.03788263  0.52409107  0.01474173  1
  V  V19  1  0.21071420  0.18154157  0.39402984  1
  V  V20  1  0.06695030  0.65787274  0.51075675  1
  V  V21  1  0.67805704  0.62050471  0.54725102  1
  V  V22  1  0.19619677  0.71902838  -0.07430381  1
  V  V23  1  0.35945161  0.83244964  0.14136698  1
  V  V24  1  0.22496329  0.05165678  0.26222179  1
  V  V25  1  0.87656760  0.63856675  0.22502831  1
  V  V26  1  0.77630643  0.76079484  0.52372984  1
  V  V27  1  0.30129980  0.52844674  0.22004606  1
  V  V28  1  0.86716268  0.87915205  0.45648035  1
  V  V29  1  0.17165822  0.37217902  0.56812931  1
  V  V30  1  0.70491661  0.88646258  0.15754342  1
  V  V31  1  0.73208613  0.11552704  0.83629701  1
  V  V32  1  -0.02833553  0.00802201  0.45585253  1
  V  V33  1  0.94596627  0.61922841  0.91445993  1
  V  V34  1  0.66276697  0.29779608  0.34901479  1
  V  V35  1  0.64845952  0.71999862  0.37038021  1
  V  V36  1  0.60798585  0.22062737  0.88396755  1
  V  V37  1  0.81866300  0.59604600  0.76526161  1
  V  V38  1  0.44674528  0.23435852  0.61512102  1
  V  V39  1  0.60322861  0.45004925  0.14564283  1
  V  V40  1  0.80919015  0.29802405  0.56583704  1
  V  V41  1  0.61259531  0.70377922  0.89437072  1
  V  V42  1  0.70680068  0.74713554  0.03385675  1
  V  V43  1  0.82735360  0.47908680  0.30807147  1
  V  V44  1  0.05873903  0.64839106  0.13878718  1
  V  V45  1  0.29143872  0.91053896  -0.01393812  1
  V  V46  1  0.59135780  -0.10860068  0.65075129  1
  V  V47  1  0.36745070  0.01493111  0.86743596  1
  V  V48  1  0.55872919  0.50864858  0.48907155  1
  V  V49  1  0.32457835  0.00598339  0.38012460  1
  V  V50  1  0.49699485  0.83743804  0.87991400  1
  Zn  Zn51  1  0.45436954  0.91796692  0.72599068  1
  Zn  Zn52  1  0.71461399  0.75257886  0.72554423  1
  Zn  Zn53  1  0.65886767  0.56204637  1.00492996  1
  Zn  Zn54  1  0.04841261  0.04406223  0.28038496  1
  Zn  Zn55  1  0.23749728  0.69879628  0.23061578  1
  Zn  Zn56  1  0.37268959  0.99038457  0.16011233  1
  Zn  Zn57  1  0.15809550  0.94823665  0.40689925  1
  Zn  Zn58  1  0.38735042  0.31308264  0.45248874  1
  Zn  Zn59  1  0.42567741  0.40208152  0.16039970  1
  Zn  Zn60  1  0.91403748  0.61557936  0.61059009  1
  Zn  Zn61  1  0.81708496  0.73948692  0.87817087  1
  Zn  Zn62  1  0.82419504  0.60119590  0.02861924  1
  Zn  Zn63  1  0.52530517  0.82118559  1.05633972  1
  Zn  Zn64  1  0.05963644  0.84338203  0.51793986  1
  Zn  Zn65  1  0.59909826  0.28364639  0.52233323  1
  Zn  Zn66  1  0.49907706  0.64314085  0.44549752  1
  Zn  Zn67  1  0.32484379  0.32085969  0.66039802  1
  Zn  Zn68  1  0.57815097  0.79528553  0.51462815  1
  Zn  Zn69  1  0.67252659  0.90999365  0.45271208  1
  Zn  Zn70  1  0.58066692  0.01383231  0.81757282  1
  Zn  Zn71  1  0.42829553  0.17326177  0.93559893  1
  Zn  Zn72  1  0.15950015  0.10686881  0.72213488  1
  Zn  Zn73  1  0.36721386  0.14504757  0.48133345  1
  Zn  Zn74  1  0.84820031  0.28339553  0.35300667  1
  Zn  Zn75  1  0.73953379  0.45221314  0.46128759  1
  Zn  Zn76  1  0.69136616  0.86116523  0.88642704  1
  Zn  Zn77  1  0.51060866  0.19220514  0.35849011  1
  Zn  Zn78  1  0.18502010  0.42349121  0.93457574  1
  Zn  Zn79  1  0.11918086  0.55743980  0.83643170  1
  Zn  Zn80  1  0.54207196  0.29535128  0.05616773  1
  Zn  Zn81  1  0.60568182  0.03373636  0.32775463  1
  Zn  Zn82  1  0.89249138  0.83394482  0.14454182  1
  Zn  Zn83  1  1.00418857  0.18776920  0.41020503  1
  Zn  Zn84  1  0.94970456  0.47178213  0.16768545  1
  Zn  Zn85  1  0.62152613  0.18881364  0.21821093  1
  Zn  Zn86  1  0.13388224  0.18526288  0.19770237  1
  Zn  Zn87  1  0.81288355  0.26547338  0.94575138  1
  Zn  Zn88  1  0.65257814  0.53646986  0.31542188  1
  Zn  Zn89  1  0.34316731  0.16726287  0.76445386  1
  Zn  Zn90  1  0.17635040  0.20473086  0.56336384  1
  Zn  Zn91  1  0.95484970  0.94834005  0.70461611  1
  Zn  Zn92  1  0.68410813  -0.01415259  0.02175803  1
  Zn  Zn93  1  0.85633960  0.08664960  0.97597702  1
  Zn  Zn94  1  0.78347402  0.79559069  0.29945404  1
  Zn  Zn95  1  0.26181792  0.11931326  0.08127990  1
  Zn  Zn96  1  0.29012652  0.84200725  0.81081982  1
  Zn  Zn97  1  0.20443123  0.58360664  0.05128102  1
  Zn  Zn98  1  0.00639392  0.33536288  0.59269421  1
  Zn  Zn99  1  0.24186244  0.38651720  0.37050433  1
  Zn  Zn100  1  0.02250287  0.77694151  0.01439972  1
  Zn  Zn101  1  0.71730990  0.26908638  0.74586359  1
  O  O102  1  0.05304177  0.11892261  0.21077606  1
  O  O103  1  0.12827794  0.11612525  0.61039569  1
  O  O104  1  0.14154930  0.65551423  0.18750075  1
  O  O105  1  0.29825921  0.60353298  0.44070027  1
  O  O106  1  0.55099486  0.08990781  0.14850373  1
  O  O107  1  0.63303882  0.09574885  0.54368385  1
  O  O108  1  0.59382902  0.50458963  0.22585219  1
  O  O109  1  0.68199151  0.63121474  0.63950602  1
  O  O110  1  0.34127393  0.39378498  0.40929070  1
  O  O111  1  0.37544585  0.34631107  0.88171571  1
  O  O112  1  0.26949937  0.93663080  0.41913498  1
  O  O113  1  0.32695646  0.91549334  0.88213453  1
  O  O114  1  0.90510952  0.26444458  0.13087376  1
  O  O115  1  0.90548910  0.38197478  0.92364982  1
  O  O116  1  0.84700717  0.87114226  0.36394899  1
  O  O117  1  0.85987895  0.84316577  0.90103889  1
  O  O118  1  0.25481898  0.07881879  0.38001291  1
  O  O119  1  0.26704850  0.04155959  0.85327522  1
  O  O120  1  0.26639663  0.47030914  0.29344570  1
  O  O121  1  0.18776526  0.46596783  0.83588783  1
  O  O122  1  0.66698243  -0.00040416  0.40199146  1
  O  O123  1  0.70133690  0.01248698  0.81106943  1
  O  O124  1  0.81005702  0.51999066  0.40299922  1
  O  O125  1  0.90104228  0.54162680  0.80894110  1
  O  O126  1  0.25356147  0.53412919  0.13358999  1
  O  O127  1  0.20126661  0.44967582  0.63077547  1
  O  O128  1  0.22085790  1.04721525  0.16600446  1
  O  O129  1  0.31698747  0.97409591  0.61036804  1
  O  O130  1  0.75957331  0.50666099  0.01906799  1
  O  O131  1  0.83205028  0.57821347  0.66810417  1
  O  O132  1  0.67157995  0.98989735  0.13820119  1
  O  O133  1  0.70711950  0.94529058  0.66445739  1
  O  O134  1  0.01540261  0.39925350  0.22095527  1
  O  O135  1  -0.04138236  0.37758864  0.87689405  1
  O  O136  1  -0.03394504  0.85795176  0.22368787  1
  O  O137  1  0.05346848  0.92160021  0.74458759  1
  O  O138  1  0.38759542  0.32664015  0.25000393  1
  O  O139  1  0.63794775  0.38980970  0.69341773  1
  O  O140  1  0.43073225  0.87462505  0.41498944  1
  O  O141  1  0.43295298  0.84144468  0.80582380  1
  O  O142  1  0.45144003  0.16178192  0.24808466  1
  O  O143  1  0.67947534  0.08702938  0.59402882  1
  O  O144  1  0.54623748  0.65494189  0.16581610  1
  O  O145  1  0.43521858  0.56625746  0.85310738  1
  O  O146  1  0.83667468  0.02204889  0.30732886  1
  O  O147  1  0.97503177  0.17990683  0.67227689  1
  O  O148  1  0.97945464  0.66110907  0.23437738  1
  O  O149  1  0.98151690  0.70469278  0.93434618  1
  O  O150  1  0.36210848  0.25108619  -0.02024677  1
  O  O151  1  0.42381630  0.21772486  0.41838038  1
  O  O152  1  0.27158382  0.81792079  -0.01529560  1
  O  O153  1  0.40084458  0.66085339  0.56151739  1
  O  O154  1  0.80724986  0.18179708  0.02221936  1
  O  O155  1  0.90092163  0.32333892  0.59827405  1
  O  O156  1  0.80132670  0.77659515  0.02153052  1
  O  O157  1  0.87507918  0.78296713  0.50009720  1
  O  O158  1  0.00422826  0.30938334  0.45834935  1
  O  O159  1  0.12209421  0.26491749  0.92997821  1
  O  O160  1  0.07824961  0.74244372  0.55499346  1
  O  O161  1  0.12318196  0.77801960  0.96756608  1
  O  O162  1  0.70865282  0.28434806  0.54568483  1
  O  O163  1  0.62349813  0.24838599  0.99170713  1
  O  O164  1  0.66832503  0.72440302  0.51396553  1
  O  O165  1  0.60520914  0.75882312  1.00659013  1
  O  O166  1  0.47915005  0.22335060  0.10961327  1
  O  O167  1  0.54545444  0.24685246  0.60931234  1
  O  O168  1  0.43205584  0.78020076  0.09767939  1
  O  O169  1  0.43780163  0.71988214  0.57425498  1
  O  O170  1  1.02313879  0.13749008  -0.01822174  1
  O  O171  1  1.01267844  0.34256592  0.72867138  1
  O  O172  1  1.01904863  0.73602754  0.11752194  1
  O  O173  1  0.94905350  0.78217265  0.64381342  1
  O  O174  1  -0.05848406  0.22327099  0.17189484  1
  O  O175  1  -0.02794925  0.25485727  0.86670932  1
  O  O176  1  -0.03792308  0.77797599  0.35722380  1
  O  O177  1  0.04567681  0.80168768  0.83897981  1
  O  O178  1  0.59568002  0.25712253  0.41715554  1
  O  O179  1  0.51247064  0.22991272  0.89042804  1
  O  O180  1  0.55495919  0.68385166  0.36248974  1
  O  O181  1  0.51207169  0.73958621  0.89355803  1
  O  O182  1  0.25477318  0.17297759  0.48735208  1
  O  O183  1  0.21944231  0.12557266  0.97893604  1
  O  O184  1  0.30252815  0.55330073  0.48698745  1
  O  O185  1  0.24400939  0.66110362  0.98832314  1
  O  O186  1  0.82640817  0.20241430  0.56039301  1
  O  O187  1  0.68374353  0.09268973  1.00736244  1
  O  O188  1  0.78478223  0.64560291  0.51071084  1
  O  O189  1  0.71727412  0.65086153  1.04685668  1
  O  O190  1  0.25884965  0.35494760  -0.02062258  1
  O  O191  1  0.18748894  0.39510335  0.47672815  1
  O  O192  1  0.21019486  0.95632636  -0.01225151  1
  O  O193  1  0.30360013  0.76365107  0.47944651  1
  O  O194  1  0.77850080  0.34873656  0.00578725  1
  O  O195  1  0.79081380  0.39772944  0.54231338  1
  O  O196  1  0.73213651  0.89763556  -0.01825234  1
  O  O197  1  0.76661096  0.86538310  0.49633902  1
  O  O198  1  0.12276004  0.47102420  0.21792623  1
  O  O199  1  0.12750429  0.53017140  0.72394365  1
  O  O200  1  0.14997517  0.99452112  0.30214940  1
  O  O201  1  0.17026375  1.00102176  0.67324803  1
  O  O202  1  0.74261261  0.48291245  0.26634712  1
  O  O203  1  0.74762643  0.54361106  0.79476026  1
  O  O204  1  0.54853523  0.97680452  0.24867312  1
  O  O205  1  0.56014115  0.96721513  0.71900549  1
  O  O206  1  0.32195082  0.01110278  0.27167822  1
  O  O207  1  0.37130231  -0.01478468  0.75480382  1
  O  O208  1  0.39250340  0.49606284  0.19845311  1
  O  O209  1  0.28431917  0.38608820  0.73729635  1
  O  O210  1  0.79232792  0.05145670  0.35330856  1
  O  O211  1  0.85117617  -0.02953886  0.73079351  1
  O  O212  1  0.89927610  0.53042842  0.25221370  1
  O  O213  1  0.93913276  0.61299511  0.80223343  1
  O  O214  1  0.14144512  0.37293125  0.31612394  1
  O  O215  1  0.10554107  0.33233043  0.91863223  1
  O  O216  1  0.12307543  0.84295272  0.41984178  1
  O  O217  1  0.04795928  0.95464754  0.98602401  1
  O  O218  1  0.69223766  0.38286073  0.38887347  1
  O  O219  1  0.56203913  0.45873908  0.85812717  1
  O  O220  1  0.62516134  0.81398160  0.40942082  1
  O  O221  1  0.58581391  0.87330178  0.85594411  1
  O  O222  1  0.36927130  0.09887294  0.12510091  1
  O  O223  1  0.42139083  0.14932583  0.57751235  1
  O  O224  1  0.39785653  0.60829391  0.06355579  1
  O  O225  1  0.41818699  0.68572980  0.73299263  1
  O  O226  1  0.99764552  0.18949955  0.02718679  1
  O  O227  1  0.92623179  0.19207360  0.72288295  1
  O  O228  1  0.85077371  0.62369897  0.13545776  1
  O  O229  1  0.92956574  0.71859682  0.67581430  1
  O  O230  1  0.20529941  0.20472887  0.12193433  1
  O  O231  1  0.10230359  0.28932638  0.57218298  1
  O  O232  1  0.28870608  0.77529805  0.17614431  1
  O  O233  1  0.26510880  0.67040020  0.61519806  1
  O  O234  1  0.67995220  0.19801916  0.12422062  1
  O  O235  1  0.77586324  0.30309759  0.66214214  1
  O  O236  1  0.69204620  0.78815791  0.12666868  1
  O  O237  1  0.77431817  0.76391510  0.61857430  1
  O  O238  1  0.24317843  0.26751676  0.37061709  1
  O  O239  1  0.26539878  0.19994802  0.84239500  1
  O  O240  1  0.21903092  0.74284107  0.33718689  1
  O  O241  1  0.25642031  0.75304162  0.85114569  1
  O  O242  1  0.83789744  0.29581957  0.46579768  1
  O  O243  1  0.72360472  0.20273104  0.90278631  1
  O  O244  1  0.76818649  0.73617417  0.39947109  1
  O  O245  1  0.70739867  0.74941900  0.91664845  1
  O  O246  1  -0.02817234  0.09449681  -0.05452889  1
  O  O247  1  -0.02590918  0.10275059  0.47655980  1
  O  O248  1  0.09509807  0.62711028  0.04631333  1
  O  O249  1  -0.02594989  0.63398170  0.52124320  1
  O  O250  1  0.48535111  0.09941562  -0.00651096  1
  O  O251  1  0.59197157  0.13708025  0.30887765  1
  O  O252  1  0.45422154  0.61516916  0.02206296  1
  O  O253  1  0.57467334  0.60968843  0.52830255  1
  O  O254  1  0.55805614  0.39832913  0.51384933  1
  O  O255  1  0.46185271  0.34962284  0.99656679  1
  O  O256  1  0.47955458  0.74400910  0.50150141  1
  O  O257  1  0.46908880  0.87542518  0.96987150  1
  O  O258  1  0.97852101  0.36710403  0.42688670  1
  O  O259  1  1.00711226  0.43675253  1.02006583  1
  O  O260  1  0.97176224  0.89828917  0.48508607  1
  O  O261  1  0.93070704  0.84675934  1.03912217  1
  O  O262  1  0.59091719  0.49428641  0.39814043  1
  O  O263  1  0.52501882  0.42837453  0.80736273  1
  O  O264  1  0.41844955  0.91390106  0.35917852  1
  O  O265  1  0.47807352  0.99255799  0.87317524  1
  O  O266  1  1.00275964  0.51768735  0.38164228  1
  O  O267  1  1.03058848  0.54865871  0.90801722  1
  O  O268  1  0.99088511  1.00145780  0.35999090  1
  O  O269  1  1.03978921  0.95503613  0.91729174  1
  O  O270  1  -0.07880953  0.02702238  0.15670562  1
  O  O271  1  0.00782562  0.01537370  0.62526652  1
  O  O272  1  0.01498811  0.54951386  0.12381878  1
  O  O273  1  -0.00157914  0.54875395  0.65056853  1
  O  O274  1  0.47779373  -0.02153894  0.09259644  1
  O  O275  1  0.49718491  -0.14021016  0.64059199  1
  O  O276  1  0.53167702  0.37758156  0.13686304  1
  O  O277  1  0.53973773  0.44316494  0.57702078  1
  O  O278  1  0.20985558  0.36074460  0.18589911  1
  O  O279  1  0.24017864  0.30226835  0.59382170  1
  O  O280  1  0.11273881  0.91999200  0.12950293  1
  O  O281  1  0.23873276  0.90416105  0.73627212  1
  O  O282  1  0.85555751  0.38731299  0.31647177  1
  O  O283  1  0.83333448  0.38939599  0.78411224  1
  O  O284  1  0.71838726  0.88114608  0.25120351  1
  O  O285  1  0.74527021  0.85734058  0.78591091  1
  O  O286  1  0.20292835  0.14957342  0.28132673  1
  O  O287  1  0.27598353  0.09861636  0.70350865  1
  O  O288  1  0.30461669  0.61690837  0.25787106  1
  O  O289  1  0.29214823  0.53703343  0.73847842  1
  O  O290  1  0.77742644  0.09509867  0.19409171  1
  O  O291  1  0.74853905  0.16091454  0.75355496  1
  O  O292  1  0.79921157  0.63000248  0.28951213  1
  O  O293  1  0.79628499  0.69664389  0.77661786  1
  O  O294  1  0.39241708  0.04425521  0.43645350  1
  O  O295  1  0.39557805  0.11276758  0.84758779  1
  O  O296  1  0.48446313  0.63573912  0.19204635  1
  O  O297  1  0.38226671  0.60770946  0.87290177  1
  O  O298  1  0.92899474  0.21467151  0.34356299  1
  O  O299  1  0.81739943  0.08924771  0.87215925  1
  O  O300  1  0.89580840  0.64438515  0.39734077  1
  O  O301  1  0.84359909  0.63921807  0.92044604  1
  O  O302  1  0.09922375  0.34681090  0.12049122  1
  O  O303  1  0.06766868  0.42756084  0.58965996  1
  O  O304  1  0.06781726  0.97240735  0.13717724  1
  O  O305  1  0.11429004  0.90638812  0.59452736  1
  O  O306  1  0.69560945  0.40809879  0.13254892  1
  O  O307  1  0.67516728  0.44878304  0.69203067  1
  O  O308  1  0.58788620  0.88468549  0.12699096  1
  O  O309  1  0.63152789  0.81128031  0.68221279  1
  O  O310  1  0.08932646  0.27866935  0.24719895  1
  O  O311  1  0.06968488  0.31745934  0.76016319  1
  O  O312  1  0.08607579  0.77326249  0.27457786  1
  O  O313  1  0.13456973  0.79809225  0.70001665  1
  O  O314  1  0.61728788  0.29470741  0.26229155  1
  O  O315  1  0.63180562  0.28174487  0.81132167  1
  O  O316  1  0.68013943  0.73746001  0.28193271  1
  O  O317  1  0.63157462  0.70392649  0.80063011  1
  O  O318  1  0.34994522  0.26788390  0.24030272  1
  O  O319  1  0.39674029  0.24339491  0.70677735  1
  O  O320  1  0.39813704  0.88767187  0.21082909  1
  O  O321  1  0.43266162  0.62297619  0.70644088  1
  O  O322  1  0.81602314  0.14880921  0.21568500  1
  O  O323  1  0.90800139  0.22709344  0.88350022  1
  O  O324  1  0.86648684  0.75042909  0.22972174  1
  O  O325  1  1.00672101  0.77065239  0.79130755  1
  O  O326  1  0.46733398  0.53968781  0.47133718  1
  O  O327  1  0.36632531  0.45208532  0.96924924  1
  O  O328  1  0.31517079  0.81230209  0.52832958  1
  O  O329  1  0.37006538  1.01027706  0.97038900  1
  O  O330  1  1.05841727  0.51063664  0.42227976  1
  O  O331  1  0.93494290  0.57202118  1.00418720  1
  O  O332  1  0.87111996  0.98489148  0.46751908  1
  O  O333  1  0.86050462  0.97778420  0.99158394  1
  O  O334  1  -0.05565287  0.07064663  0.10789616  1
  O  O335  1  0.09184818  0.00412091  0.48866300  1
  O  O336  1  0.14249905  0.49887656  0.00211892  1
  O  O337  1  0.11971866  0.58705876  0.56160762  1
  O  O338  1  0.58228238  -0.01750407  -0.02219180  1
  O  O339  1  0.61015810  -0.10352273  0.54962126  1
  O  O340  1  0.59039703  0.50615814  0.06874424  1
  O  O341  1  0.67794285  0.51894330  0.52417767  1
  O  O342  1  0.35771008  0.35982069  0.08423266  1
  O  O343  1  0.40174890  0.30823366  0.56651949  1
  O  O344  1  0.32573777  0.91545819  0.08729794  1
  O  O345  1  0.27603453  0.72723580  0.65393208  1
  O  O346  1  0.86005290  0.43162745  0.11727405  1
  O  O347  1  0.79906659  0.33500123  0.81422469  1
  O  O348  1  0.79857151  0.89548478  0.12178133  1
  O  O349  1  0.91001546  0.84266199  0.66843578  1
  O  O350  1  0.11420846  0.18485441  0.41517266  1
  O  O351  1  0.13233621  0.12108535  0.82713270  1
  O  O352  1  0.09383905  0.67716422  0.41268885  1
  O  O353  1  0.14434408  0.65623570  0.87051891  1
  O  O354  1  0.74535042  0.24503628  0.33579522  1
  O  O355  1  0.61805171  0.12251803  0.85131276  1
  O  O356  1  0.68624462  0.61890088  0.38630425  1
  O  O357  1  0.61335828  0.61173046  0.92140429  1
