# generated using pymatgen
data_V51Zn51O256
_symmetry_space_group_name_H-M   'P 1'
_cell_length_a   17.51949316
_cell_length_b   17.47907512
_cell_length_c   17.56655462
_cell_angle_alpha   89.86503524
_cell_angle_beta   91.24693220
_cell_angle_gamma   89.37597173
_symmetry_Int_Tables_number   1
_chemical_formula_structural   V51Zn51O256
_chemical_formula_sum   'V51 Zn51 O256'
_cell_volume   5377.69914416
_cell_formula_units_Z   1
loop_
 _symmetry_equiv_pos_site_id
 _symmetry_equiv_pos_as_xyz
  1  'x, y, z'
loop_
 _atom_site_type_symbol
 _atom_site_label
 _atom_site_symmetry_multiplicity
 _atom_site_fract_x
 _atom_site_fract_y
 _atom_site_fract_z
 _atom_site_occupancy
  V  V0  1  0.13000342  0.10165949  -0.00597921  1
  V  V1  1  0.25252040  0.12518888  0.83932884  1
  V  V2  1  0.22937179  0.64659915  0.39542828  1
  V  V3  1  0.59704087  0.67479155  0.46730516  1
  V  V4  1  0.27332795  0.50520205  0.73801193  1
  V  V5  1  0.24275836  0.80511628  0.03355875  1
  V  V6  1  -0.01393516  0.63409027  0.62992460  1
  V  V7  1  0.21623700  -0.01572389  0.72826879  1
  V  V8  1  0.75373722  0.25179018  0.50962589  1
  V  V9  1  0.00998389  0.16203962  0.63516600  1
  V  V10  1  0.84520799  0.86552307  0.51822266  1
  V  V11  1  0.13740876  0.25628426  0.84048711  1
  V  V12  1  0.36980456  -0.01084026  0.83818219  1
  V  V13  1  0.52691041  0.02284142  -0.04046877  1
  V  V14  1  0.74252491  0.90580308  0.13257217  1
  V  V15  1  0.78434206  0.39386529  0.13370973  1
  V  V16  1  0.36418626  0.87663759  -0.03428845  1
  V  V17  1  0.63313181  0.49001615  0.60465211  1
  V  V18  1  0.73991650  0.69553965  0.33786836  1
  V  V19  1  0.46240968  0.10150875  0.08733015  1
  V  V20  1  0.59959319  0.02478450  0.58903125  1
  V  V21  1  0.11912700  0.51792824  0.61855284  1
  V  V22  1  0.26044069  0.28700851  -0.00180202  1
  V  V23  1  0.13110977  0.39749568  0.75141370  1
  V  V24  1  0.75823357  0.13857464  0.37751730  1
  V  V25  1  0.88287269  0.36700078  0.50658444  1
  V  V26  1  0.89218364  0.87322245  -0.00856419  1
  V  V27  1  0.21177659  -0.03064115  0.28996393  1
  V  V28  1  0.54990613  0.90027929  0.84796617  1
  V  V29  1  0.88642857  -0.00644907  0.39315935  1
  V  V30  1  0.58065203  0.57528677  0.04026126  1
  V  V31  1  0.56006476  0.18456159  0.19724892  1
  V  V32  1  0.37758037  0.88554242  0.49474108  1
  V  V33  1  0.45828024  0.44123698  0.03824348  1
  V  V34  1  -0.00480157  -0.03415384  0.53603819  1
  V  V35  1  0.50690817  0.75296585  0.76513429  1
  V  V36  1  0.73094377  0.76503683  0.00003192  1
  V  V37  1  0.88985823  0.54348516  0.89777098  1
  V  V38  1  0.14500299  0.59257594  0.05361747  1
  V  V39  1  0.24740032  0.23253396  0.50909623  1
  V  V40  1  -0.01857727  0.37544474  0.87139764  1
  V  V41  1  0.23632887  0.38491938  0.59910851  1
  V  V42  1  -0.01149459  0.50705425  0.47767034  1
  V  V43  1  0.00186068  0.36078362  0.37160572  1
  V  V44  1  0.88556966  0.65540458  0.25321124  1
  V  V45  1  0.87560644  0.78183078  0.13258295  1
  V  V46  1  0.33538741  0.69090183  0.69138385  1
  V  V47  1  0.87746762  0.00854318  0.88319225  1
  V  V48  1  0.39807289  0.36436981  0.51060121  1
  V  V49  1  0.49958029  0.24140753  0.74492779  1
  V  V50  1  0.89340198  0.14102055  0.26072248  1
  Zn  Zn51  1  0.46221514  0.34455657  0.20331781  1
  Zn  Zn52  1  0.45531157  0.92901587  0.68038044  1
  Zn  Zn53  1  0.47585824  0.19285643  0.54736407  1
  Zn  Zn54  1  0.72119403  1.01081668  0.98498072  1
  Zn  Zn55  1  0.31244597  0.31448203  0.77731178  1
  Zn  Zn56  1  0.27072842  0.81563945  0.82077010  1
  Zn  Zn57  1  0.61951471  0.67152086  0.65077604  1
  Zn  Zn58  1  1.01352393  1.02082431  0.26479556  1
  Zn  Zn59  1  0.52957460  0.75019172  0.96614919  1
  Zn  Zn60  1  0.04884700  0.78045355  0.49650770  1
  Zn  Zn61  1  0.91149382  0.69347802  0.44741632  1
  Zn  Zn62  1  0.74352883  0.88509183  0.88256579  1
  Zn  Zn63  1  0.74325110  0.09749761  0.17231753  1
  Zn  Zn64  1  0.45032543  0.28463016  0.03850638  1
  Zn  Zn65  1  0.94154871  0.46803983  0.22695720  1
  Zn  Zn66  1  0.06105635  0.26622676  -0.00568842  1
  Zn  Zn67  1  0.31073370  0.44139975  0.91494451  1
  Zn  Zn68  1  0.40379861  0.67195982  0.51116416  1
  Zn  Zn69  1  0.81924885  0.85530187  0.30545798  1
  Zn  Zn70  1  0.84810393  0.08640384  0.55890111  1
  Zn  Zn71  1  0.52279304  0.58236778  0.86986611  1
  Zn  Zn72  1  0.60238093  0.42208620  0.91996026  1
  Zn  Zn73  1  0.86736534  0.96165833  0.68232490  1
  Zn  Zn74  1  0.70607460  0.97464890  0.45307025  1
  Zn  Zn75  1  0.88177570  0.57554772  0.08769163  1
  Zn  Zn76  1  0.94263089  0.18598051  0.44656072  1
  Zn  Zn77  1  0.15890949  0.28716490  0.33325496  1
  Zn  Zn78  1  0.29364118  0.82050351  0.32164184  1
  Zn  Zn79  1  0.01163058  0.01407381  0.73769601  1
  Zn  Zn80  1  0.23214244  0.69930773  0.20030431  1
  Zn  Zn81  1  0.83213269  0.54059204  0.57242941  1
  Zn  Zn82  1  0.71891883  0.68142939  0.13755180  1
  Zn  Zn83  1  0.15979348  0.45480654  0.43277007  1
  Zn  Zn84  1  0.70069227  0.43562243  0.48127114  1
  Zn  Zn85  1  0.83133610  0.30896598  0.32317097  1
  Zn  Zn86  1  1.00274842  0.15733865  0.84877347  1
  Zn  Zn87  1  0.41253269  0.52402501  0.62855496  1
  Zn  Zn88  1  0.18055356  0.19361885  0.67543036  1
  Zn  Zn89  1  0.44823810  0.43048065  0.80041575  1
  Zn  Zn90  1  0.55297937  0.10332740  0.38426526  1
  Zn  Zn91  1  0.07922122  0.77505095  0.11045993  1
  Zn  Zn92  1  0.96359483  0.42913768  0.67717849  1
  Zn  Zn93  1  0.61167261  0.88344975  0.03940754  1
  Zn  Zn94  1  0.40678685  0.17939918  0.91390561  1
  Zn  Zn95  1  0.50288372  0.51828597  0.47765621  1
  Zn  Zn96  1  0.31593060  0.06222978  0.57421131  1
  Zn  Zn97  1  0.78904306  0.38280059  0.91848412  1
  Zn  Zn98  1  0.87467116  0.01776103  0.09445975  1
  Zn  Zn99  1  0.16585011  0.89920575  0.47628099  1
  Zn  Zn100  1  0.05099112  0.33517504  0.57288841  1
  Zn  Zn101  1  0.16965782  0.21265978  0.15444428  1
  O  O102  1  0.15116582  0.12964165  0.08617467  1
  O  O103  1  0.10240025  0.14053807  0.61617876  1
  O  O104  1  0.18172313  0.60965103  0.15581653  1
  O  O105  1  0.11666011  0.61203737  0.62634438  1
  O  O106  1  0.67215480  0.19539454  0.01913720  1
  O  O107  1  0.57011101  0.11920014  0.56308430  1
  O  O108  1  0.62654653  0.62327655  0.11070844  1
  O  O109  1  0.64473082  0.65098830  0.55276885  1
  O  O110  1  0.38548385  0.38362824  0.41954893  1
  O  O111  1  0.36865359  0.37528693  0.84929976  1
  O  O112  1  0.36626382  0.86266424  0.39438538  1
  O  O113  1  0.36020671  0.88562992  0.85334311  1
  O  O114  1  0.89271384  0.37291908  0.39154284  1
  O  O115  1  0.88873163  0.34738721  0.87639716  1
  O  O116  1  0.87025129  0.89277029  0.39789815  1
  O  O117  1  0.85749451  0.88721883  0.89457468  1
  O  O118  1  0.20425369  -0.03427971  0.39703244  1
  O  O119  1  0.26458819  0.00558859  0.82609417  1
  O  O120  1  0.22109370  0.54593637  0.40320375  1
  O  O121  1  0.26898275  0.50745446  0.83441743  1
  O  O122  1  0.78472542  0.02574357  0.39777996  1
  O  O123  1  0.77920171  0.02072070  0.88703811  1
  O  O124  1  0.68134556  0.44329890  0.35612174  1
  O  O125  1  0.81072130  0.49128604  0.90209018  1
  O  O126  1  0.37993674  0.39113648  0.26045337  1
  O  O127  1  0.22566380  0.49150092  0.61461926  1
  O  O128  1  0.19085697  0.97707016  0.19415030  1
  O  O129  1  0.25489895  1.00327226  0.63907391  1
  O  O130  1  0.80198746  0.49831766  0.12348511  1
  O  O131  1  0.73093292  0.50689123  0.57686542  1
  O  O132  1  0.75505574  1.01344080  0.09424000  1
  O  O133  1  0.69937213  1.02665431  0.56802492  1
  O  O134  1  -0.01407613  0.38244097  0.27649167  1
  O  O135  1  0.02332913  0.39506598  0.76345460  1
  O  O136  1  0.05169699  0.92230060  0.12581568  1
  O  O137  1  0.07408025  0.83229378  0.68734484  1
  O  O138  1  0.54999977  0.28798340  0.20235042  1
  O  O139  1  0.49337109  0.34588191  0.74052903  1
  O  O140  1  0.51853582  0.86088890  0.25150381  1
  O  O141  1  0.51230154  0.87299628  0.75253126  1
  O  O142  1  0.49974665  0.09615911  0.18215783  1
  O  O143  1  0.49137652  0.14269623  0.75229907  1
  O  O144  1  0.45244995  0.65085777  0.29500090  1
  O  O145  1  0.49207575  0.66368961  0.80591094  1
  O  O146  1  0.99091166  0.12587537  0.25086466  1
  O  O147  1  0.99320693  0.12914904  0.73118550  1
  O  O148  1  0.97607912  0.67143442  0.25861846  1
  O  O149  1  0.99551136  0.65978246  0.71896846  1
  O  O150  1  0.35834753  0.25458842  -0.02231264  1
  O  O151  1  0.33653255  0.26767637  0.49536713  1
  O  O152  1  0.43618466  0.81517382  -0.00791879  1
  O  O153  1  0.39115572  0.78548027  0.50885260  1
  O  O154  1  0.89678546  0.22349625  0.02106245  1
  O  O155  1  0.88825533  0.26843948  0.50353636  1
  O  O156  1  0.84670776  0.78066823  0.01697283  1
  O  O157  1  0.85334294  0.76830170  0.50001671  1
  O  O158  1  0.12049533  0.10869054  0.45942121  1
  O  O159  1  0.16954922  0.26501688  0.94675599  1
  O  O160  1  0.14576911  0.81055230  0.53738793  1
  O  O161  1  0.07416926  0.67245694  1.06623825  1
  O  O162  1  0.65924011  0.25673534  0.49803168  1
  O  O163  1  0.63408193  0.25430500  1.01210982  1
  O  O164  1  0.58189092  0.76608306  0.46368771  1
  O  O165  1  0.62647022  0.77398513  1.02042554  1
  O  O166  1  0.49830410  0.20182222  0.09129541  1
  O  O167  1  0.51695031  0.23095766  0.64780694  1
  O  O168  1  0.44813822  0.74684553  0.14873220  1
  O  O169  1  0.43122270  0.75230433  0.69935094  1
  O  O170  1  1.07879837  0.27862107  0.10603058  1
  O  O171  1  1.00624396  0.26014904  0.63577564  1
  O  O172  1  0.97096418  0.77867176  0.12406486  1
  O  O173  1  1.00985334  0.71491420  0.57648823  1
  O  O174  1  0.00470022  0.26316714  0.38646247  1
  O  O175  1  0.03352241  0.27243965  0.85071965  1
  O  O176  1  0.00485652  0.73355493  0.41062862  1
  O  O177  1  0.03989232  0.88963046  0.84515186  1
  O  O178  1  0.55361273  0.16813630  0.29261367  1
  O  O179  1  0.47236045  0.23964904  0.84409390  1
  O  O180  1  0.46438428  0.71855242  0.31073202  1
  O  O181  1  0.53164717  0.79657170  0.86430928  1
  O  O182  1  0.25387513  0.13530446  0.52330252  1
  O  O183  1  0.21648340  0.10726895  0.93183773  1
  O  O184  1  0.18326565  0.65701071  0.47966963  1
  O  O185  1  0.18295876  0.67531836  1.00531609  1
  O  O186  1  0.78546678  0.14830740  0.48776179  1
  O  O187  1  0.75976956  0.19362839  0.82859827  1
  O  O188  1  0.68900047  0.50276548  0.31712170  1
  O  O189  1  0.74329396  0.67155120  1.02449820  1
  O  O190  1  0.26159416  0.38388279  -0.00740781  1
  O  O191  1  0.22151770  0.39235746  0.50285132  1
  O  O192  1  0.28048699  0.80261402  -0.06209111  1
  O  O193  1  0.27366866  0.88043248  0.50581008  1
  O  O194  1  0.79833017  0.39511958  0.03249771  1
  O  O195  1  0.77736346  0.36211946  0.49068475  1
  O  O196  1  0.72645048  0.89508370  0.00326247  1
  O  O197  1  0.74945127  0.88368474  0.49378003  1
  O  O198  1  0.11721483  0.37795850  0.18400940  1
  O  O199  1  0.14509056  0.49741325  0.73318558  1
  O  O200  1  0.11395146  0.99440908  0.29344225  1
  O  O201  1  0.11954663  0.99597113  0.73658685  1
  O  O202  1  0.51831629  0.50349300  0.30009164  1
  O  O203  1  0.59928053  0.56128384  0.68466545  1
  O  O204  1  0.61862062  0.98378991  0.30307620  1
  O  O205  1  0.63125509  1.05614278  0.67767892  1
  O  O206  1  0.30566563  -0.07698481  0.27036200  1
  O  O207  1  0.38996306  -0.01130178  0.74370118  1
  O  O208  1  0.47805281  0.48545837  0.35493634  1
  O  O209  1  0.37511471  0.48380031  0.72404591  1
  O  O210  1  0.91455759  -0.00878717  0.29720605  1
  O  O211  1  0.76177835  -0.10769298  0.74465350  1
  O  O212  1  0.88103234  0.55616320  0.25805992  1
  O  O213  1  0.77318424  0.43287578  0.74448364  1
  O  O214  1  0.10844656  0.38006407  0.37117322  1
  O  O215  1  0.15004936  0.37954516  0.84545542  1
  O  O216  1  0.09081283  0.84729234  0.41353784  1
  O  O217  1  0.10870440  0.87493865  0.86592051  1
  O  O218  1  0.59190199  0.29808448  0.37565387  1
  O  O219  1  0.68676353  0.35772504  0.90440406  1
  O  O220  1  0.65012031  0.93764117  0.34805986  1
  O  O221  1  0.64343663  0.91654557  0.83563398  1
  O  O222  1  0.36997450  0.09771885  0.09165990  1
  O  O223  1  0.40011645  0.12714409  0.59023134  1
  O  O224  1  0.44703372  0.67685201  0.14583868  1
  O  O225  1  0.38980098  0.63205306  0.61147978  1
  O  O226  1  0.86141733  0.10133063  0.16538481  1
  O  O227  1  0.81885633  0.05744396  0.65788894  1
  O  O228  1  0.85737179  0.66950223  0.14498510  1
  O  O229  1  0.88624782  0.61861270  0.61809673  1
  O  O230  1  0.24613844  0.26675793  0.09042620  1
  O  O231  1  0.21358327  0.27373179  0.60015808  1
  O  O232  1  0.27613290  0.74242347  0.10290454  1
  O  O233  1  0.27900676  0.74173864  0.63783164  1
  O  O234  1  0.76437713  0.30029491  0.11036716  1
  O  O235  1  0.76372094  0.24707439  0.60337719  1
  O  O236  1  0.75081532  0.79812158  0.12142978  1
  O  O237  1  0.81989404  0.72895385  0.71077779  1
  O  O238  1  0.18836046  0.24537314  0.43199321  1
  O  O239  1  0.25826465  0.23079160  0.83492428  1
  O  O240  1  0.26132240  0.74755272  0.39560405  1
  O  O241  1  0.33802848  0.63834879  0.91432101  1
  O  O242  1  0.76343508  0.24238607  0.37831579  1
  O  O243  1  0.83903355  0.21666485  0.97993779  1
  O  O244  1  0.73163399  0.79122877  0.34025664  1
  O  O245  1  0.73302376  0.77249626  0.90332248  1
  O  O246  1  0.04678319  0.15909493  -0.03596380  1
  O  O247  1  -0.04519694  0.13220800  0.55257037  1
  O  O248  1  0.07301601  0.53416302  0.08577775  1
  O  O249  1  -0.02973103  0.60320185  0.48502886  1
  O  O250  1  0.47763530  0.11366311  -0.03066583  1
  O  O251  1  0.48597599  0.15927508  0.44775622  1
  O  O252  1  0.51012104  0.51547481  0.08597180  1
  O  O253  1  0.50105068  0.63064327  0.46763970  1
  O  O254  1  0.47578485  0.30367133  0.52331837  1
  O  O255  1  0.51619596  0.37743445  0.98743966  1
  O  O256  1  0.46873687  0.90869437  0.46953413  1
  O  O257  1  0.54770319  0.91324143  0.95491072  1
  O  O258  1  0.99605420  0.38367351  0.49039069  1
  O  O259  1  1.01805509  0.36673627  0.96161537  1
  O  O260  1  0.97367417  0.87044473  0.52205351  1
  O  O261  1  0.98201000  0.84994928  0.98669699  1
  O  O262  1  0.52933334  0.32893484  0.37032260  1
  O  O263  1  0.53334092  0.47812390  0.84979574  1
  O  O264  1  0.47745415  1.03261429  0.36304705  1
  O  O265  1  0.49275037  0.99351917  0.85491146  1
  O  O266  1  1.00070384  0.49085833  0.38501507  1
  O  O267  1  0.96584205  0.48077724  0.87362229  1
  O  O268  1  0.97916404  1.01273603  0.43758318  1
  O  O269  1  0.91389407  0.97985335  0.78935957  1
  O  O270  1  0.00953859  -0.02516117  0.15116050  1
  O  O271  1  -0.02544255  -0.01293889  0.63343801  1
  O  O272  1  -0.03747103  0.51609900  0.13350521  1
  O  O273  1  0.00882487  0.51803097  0.62940852  1
  O  O274  1  0.50964427  0.00680448  0.05790728  1
  O  O275  1  0.50209645  0.00887185  0.61552494  1
  O  O276  1  0.41777978  0.37556526  0.10341633  1
  O  O277  1  0.53854728  0.54159618  0.62920946  1
  O  O278  1  0.25837829  0.36817766  0.28993809  1
  O  O279  1  0.24501393  0.39015160  0.72196266  1
  O  O280  1  0.19180287  0.86326289  0.30273898  1
  O  O281  1  0.23201548  0.88807180  0.74285748  1
  O  O282  1  0.78605375  0.37603626  0.23526175  1
  O  O283  1  0.72464072  0.48098204  0.75982665  1
  O  O284  1  0.77212286  0.92058408  0.22368665  1
  O  O285  1  0.72091367  0.84499411  0.71084664  1
  O  O286  1  0.25888047  0.05218425  0.30635460  1
  O  O287  1  0.23303257  0.11415962  0.73880746  1
  O  O288  1  0.25767777  0.62987748  0.29287457  1
  O  O289  1  0.27666295  0.59917633  0.70846876  1
  O  O290  1  0.77536804  0.12225591  0.27817182  1
  O  O291  1  0.86645085  0.22358187  0.72803273  1
  O  O292  1  0.73056285  0.66469490  0.24595202  1
  O  O293  1  0.81144904  0.60324286  0.77152613  1
  O  O294  1  0.35474037  0.19040969  0.35578377  1
  O  O295  1  0.35445193  0.10400734  0.85408848  1
  O  O296  1  0.32828044  0.64112025  0.43262344  1
  O  O297  1  0.37355641  0.65212367  0.97355588  1
  O  O298  1  0.88693010  0.12455245  0.36997119  1
  O  O299  1  0.91588559  0.09816516  0.88259427  1
  O  O300  1  0.84113987  0.67326971  0.35465794  1
  O  O301  1  0.86445837  0.62078134  0.81955387  1
  O  O302  1  0.08140463  0.36134606  0.12350754  1
  O  O303  1  0.11910820  0.39516309  0.63343475  1
  O  O304  1  0.15008643  0.83100536  0.04768789  1
  O  O305  1  0.10459991  0.77687833  0.71712021  1
  O  O306  1  0.69061513  0.42336475  0.14317106  1
  O  O307  1  0.63384615  0.40816060  0.64711538  1
  O  O308  1  0.64495326  0.91132895  0.13944979  1
  O  O309  1  0.60298283  0.92545646  0.60781106  1
  O  O310  1  0.17250203  0.21274425  0.25913201  1
  O  O311  1  0.14364654  0.28189576  0.74154711  1
  O  O312  1  0.13829723  0.75691101  0.20212909  1
  O  O313  1  0.13458114  0.80489773  0.85543455  1
  O  O314  1  0.65007804  0.15790026  0.16878195  1
  O  O315  1  0.59395449  0.25066988  0.77174129  1
  O  O316  1  0.57398593  0.82073066  0.26852568  1
  O  O317  1  0.59336543  0.74355982  0.71905813  1
  O  O318  1  0.37590735  0.18497688  0.28987519  1
  O  O319  1  0.39549987  0.25884015  0.72297160  1
  O  O320  1  0.31748690  0.75325343  0.24578711  1
  O  O321  1  0.31396714  0.72254565  0.78369939  1
  O  O322  1  0.88503937  0.23730311  0.25659892  1
  O  O323  1  0.84151450  0.28878152  0.72958437  1
  O  O324  1  0.86605267  0.78365531  0.23307249  1
  O  O325  1  0.86219528  0.75421937  0.76023051  1
  O  O326  1  0.43177577  0.46439679  0.53856192  1
  O  O327  1  0.39318573  0.48473884  0.97956690  1
  O  O328  1  0.35323165  0.98635181  0.49277586  1
  O  O329  1  0.38806832  0.97417715  0.95389256  1
  O  O330  1  0.88648911  0.48272169  0.49498518  1
  O  O331  1  0.90484862  0.58725502  0.98271619  1
  O  O332  1  0.87379987  0.98166483  0.51240889  1
  O  O333  1  0.89898297  0.98651072  0.98915589  1
  O  O334  1  0.10587515  0.01175822  -0.00375174  1
  O  O335  1  0.09309890  -0.03201407  0.53097463  1
  O  O336  1  0.23012515  0.54033410  0.06056735  1
  O  O337  1  0.09598074  0.50317025  0.51360339  1
  O  O338  1  0.61962426  0.05101646  -0.04531524  1
  O  O339  1  0.59577388  0.00802278  0.48400297  1
  O  O340  1  0.63337948  0.51277180  -0.01022956  1
  O  O341  1  0.60126110  0.47278294  0.50411963  1
  O  O342  1  0.32358387  0.33841729  0.27405182  1
  O  O343  1  0.33448596  0.37540155  0.60118139  1
  O  O344  1  0.30382364  0.88552053  0.04917179  1
  O  O345  1  0.39886463  0.88882601  0.59376280  1
  O  O346  1  0.88600080  0.38728638  0.15639878  1
  O  O347  1  0.89358904  0.38534536  0.60657466  1
  O  O348  1  0.86550605  0.89315501  0.10217740  1
  O  O349  1  0.84808658  0.87515078  0.61675514  1
  O  O350  1  0.07729339  0.12810574  0.40724971  1
  O  O351  1  0.12632507  0.15965238  0.83013670  1
  O  O352  1  0.14347014  0.67277983  0.34937840  1
  O  O353  1  0.12653007  0.54928629  0.96639665  1
  O  O354  1  0.66348755  0.11834574  0.38801320  1
  O  O355  1  0.71516320  0.17393032  0.87759320  1
  O  O356  1  0.66813080  0.65115718  0.39442300  1
  O  O357  1  0.53475886  0.63692464  0.96986098  1
