# generated using pymatgen
data_V51Zn51O256
_symmetry_space_group_name_H-M   'P 1'
_cell_length_a   17.63843912
_cell_length_b   17.26713898
_cell_length_c   17.77881991
_cell_angle_alpha   89.84118642
_cell_angle_beta   88.70783048
_cell_angle_gamma   88.80574664
_symmetry_Int_Tables_number   1
_chemical_formula_structural   V51Zn51O256
_chemical_formula_sum   'V51 Zn51 O256'
_cell_volume   5412.24578923
_cell_formula_units_Z   1
loop_
 _symmetry_equiv_pos_site_id
 _symmetry_equiv_pos_as_xyz
  1  'x, y, z'
loop_
 _atom_site_type_symbol
 _atom_site_label
 _atom_site_symmetry_multiplicity
 _atom_site_fract_x
 _atom_site_fract_y
 _atom_site_fract_z
 _atom_site_occupancy
  V  V0  1  0.02452876  0.19223333  0.25204236  1
  V  V1  1  0.84158631  0.15654647  0.69174083  1
  V  V2  1  0.36576434  0.08541338  0.26573100  1
  V  V3  1  0.23868207  0.48681538  0.24527779  1
  V  V4  1  0.37075857  0.73656598  0.11016327  1
  V  V5  1  0.78677924  0.33172520  -0.01744628  1
  V  V6  1  0.00543285  0.72776076  0.23646922  1
  V  V7  1  0.77462220  0.53556477  0.22310741  1
  V  V8  1  0.86982073  0.87349791  0.51660052  1
  V  V9  1  0.11230156  -0.05447707  0.62560459  1
  V  V10  1  0.51633556  0.74769003  0.77127480  1
  V  V11  1  0.00215824  0.52973589  0.48195097  1
  V  V12  1  0.41341264  0.61975444  0.26807275  1
  V  V13  1  0.44293091  0.34240674  0.09875287  1
  V  V14  1  0.62635696  0.88850383  0.75953878  1
  V  V15  1  0.00190781  -0.02292058  0.50375147  1
  V  V16  1  0.76417857  0.75171420  0.49193651  1
  V  V17  1  0.86158387  0.08226276  0.26971138  1
  V  V18  1  0.34086551  0.83027861  0.48299319  1
  V  V19  1  -0.01278385  0.88511066  0.34953666  1
  V  V20  1  0.50522663  0.64685056  0.62905324  1
  V  V21  1  0.56002853  0.47557035  0.16193176  1
  V  V22  1  0.03817619  -0.01475152  -0.00864818  1
  V  V23  1  0.74830166  0.15694767  0.37427786  1
  V  V24  1  0.10204549  0.50583806  0.12586573  1
  V  V25  1  0.65068394  0.52713757  0.63706160  1
  V  V26  1  0.89421953  0.77718557  0.12599701  1
  V  V27  1  0.91360831  0.25667198  0.10766188  1
  V  V28  1  0.53813310  0.48697041  0.51063292  1
  V  V29  1  0.00887053  0.32717579  0.36665670  1
  V  V30  1  0.30330726  -0.01433382  0.39494650  1
  V  V31  1  -0.00003811  0.16030896  0.59482679  1
  V  V32  1  0.24834379  0.34800583  0.11362127  1
  V  V33  1  0.80833061  0.10087864  0.88533758  1
  V  V34  1  0.35119398  0.17039288  0.59434896  1
  V  V35  1  0.62060891  0.94265032  0.27849243  1
  V  V36  1  0.65093852  0.13087662  -0.01770709  1
  V  V37  1  0.87308378  0.73746949  0.64808383  1
  V  V38  1  0.50527880  0.78675955  0.31308377  1
  V  V39  1  0.21317776  -0.01176293  0.74869011  1
  V  V40  1  0.63469434  0.65154576  0.49404852  1
  V  V41  1  0.16075461  0.86806326  0.24902674  1
  V  V42  1  0.86372807  0.54207765  0.37961520  1
  V  V43  1  0.73998546  0.54178397  0.78333845  1
  V  V44  1  0.61608591  0.31612983  0.26019162  1
  V  V45  1  0.73560613  0.00987095  0.69143293  1
  V  V46  1  0.08703176  0.72630577  0.88090194  1
  V  V47  1  0.48780688  0.25992707  0.73964517  1
  V  V48  1  0.21296284  0.41162490  0.58888672  1
  V  V49  1  0.36895473  0.62848846  0.74451045  1
  V  V50  1  0.10896937  0.73530201  0.36873095  1
  Zn  Zn51  1  0.05361644  0.55765851  0.30692299  1
  Zn  Zn52  1  0.63541706  0.28620935  0.07505135  1
  Zn  Zn53  1  0.33160524  0.81387965  0.80621622  1
  Zn  Zn54  1  0.69761647  0.70969695  0.69347554  1
  Zn  Zn55  1  0.17245866  0.43343288  0.40813370  1
  Zn  Zn56  1  0.69014702  0.42982453  0.39191834  1
  Zn  Zn57  1  0.30234909  0.75047757  0.31807884  1
  Zn  Zn58  1  0.60481948  0.63184562  0.28603670  1
  Zn  Zn59  1  0.15220851  0.87578813  0.44882574  1
  Zn  Zn60  1  0.36601237  0.18385219  0.10908638  1
  Zn  Zn61  1  0.08947146  0.80441245  0.07424048  1
  Zn  Zn62  1  0.36599351  0.33716053  0.26744988  1
  Zn  Zn63  1  0.46244003  0.66602680  0.43945442  1
  Zn  Zn64  1  0.73426491  0.18357786  0.16693182  1
  Zn  Zn65  1  0.92012136  0.95997417  0.67354279  1
  Zn  Zn66  1  0.60076093  0.80853287  0.59881349  1
  Zn  Zn67  1  0.73877539  0.48201388  0.07121046  1
  Zn  Zn68  1  0.16078510  0.23922700  0.63800387  1
  Zn  Zn69  1  0.20197821  0.88303248  0.92432389  1
  Zn  Zn70  1  0.50149351  0.26338754  0.96169074  1
  Zn  Zn71  1  0.84546193  0.86593728  0.79773488  1
  Zn  Zn72  1  0.84633743  0.33277566  0.79415306  1
  Zn  Zn73  1  0.17018164  0.62494232  0.71831476  1
  Zn  Zn74  1  0.40387622  0.78597464  0.63753357  1
  Zn  Zn75  1  0.96805965  0.17200020  0.96524478  1
  Zn  Zn76  1  1.01319785  0.74190870  0.53072940  1
  Zn  Zn77  1  0.92654856  0.42646554  0.22565964  1
  Zn  Zn78  1  0.69961317  0.95262738  0.92039506  1
  Zn  Zn79  1  0.88902917  0.73555743  0.92919691  1
  Zn  Zn80  1  0.97356927  0.57210296  0.62771327  1
  Zn  Zn81  1  0.04021394  -0.08496031  0.80075006  1
  Zn  Zn82  1  0.55829573  0.13976981  0.31295487  1
  Zn  Zn83  1  0.86640573  0.75758322  0.34144174  1
  Zn  Zn84  1  0.95437904  0.12533101  0.40404263  1
  Zn  Zn85  1  -0.03535961  0.57358234  0.83424475  1
  Zn  Zn86  1  0.09778276  0.38381342  0.23545973  1
  Zn  Zn87  1  0.20161843  0.47095970  1.00232517  1
  Zn  Zn88  1  0.68187612  0.94217952  0.50447041  1
  Zn  Zn89  1  0.82414856  0.06557172  0.55068915  1
  Zn  Zn90  1  0.02968414  0.36161618  0.56456050  1
  Zn  Zn91  1  0.31797656  -0.02469829  0.59392780  1
  Zn  Zn92  1  0.23020497  0.62140626  0.11777766  1
  Zn  Zn93  1  0.35821482  0.88282104  0.22880816  1
  Zn  Zn94  1  0.30365309  0.18379511  0.41477640  1
  Zn  Zn95  1  0.64011182  0.17892732  0.67662688  1
  Zn  Zn96  1  0.81743516  0.58211935  0.55988501  1
  Zn  Zn97  1  0.43222328  0.45527751  0.65461319  1
  Zn  Zn98  1  0.20612272  0.21498578  0.20895952  1
  Zn  Zn99  1  0.61951543  0.78647015  0.16511420  1
  Zn  Zn100  1  0.56589503  0.34235861  0.58740528  1
  Zn  Zn101  1  0.40332518  0.68822796  0.92136480  1
  O  O102  1  0.16488789  0.21416265  -0.03585461  1
  O  O103  1  0.09385987  0.15461962  0.61526993  1
  O  O104  1  0.12077096  0.60374491  0.12704036  1
  O  O105  1  0.08902056  0.55142457  0.73209736  1
  O  O106  1  0.67339308  0.16728786  0.07301551  1
  O  O107  1  0.58549079  0.17235708  0.57067216  1
  O  O108  1  0.56141392  0.56374549  0.20491403  1
  O  O109  1  0.62757940  0.63817022  0.63514564  1
  O  O110  1  0.43303376  0.37868204  0.36704156  1
  O  O111  1  0.42424220  0.34907838  0.92322432  1
  O  O112  1  0.36206230  0.89373674  0.40744972  1
  O  O113  1  0.29639283  0.83329886  0.90160224  1
  O  O114  1  0.93544979  0.37890659  0.32747841  1
  O  O115  1  0.96097023  0.35578217  0.76805176  1
  O  O116  1  0.89437596  0.86673755  0.38880058  1
  O  O117  1  0.84613070  0.82888751  0.89713074  1
  O  O118  1  0.21617490  -0.04635516  0.38707398  1
  O  O119  1  0.21279118  -0.04570689  0.84187385  1
  O  O120  1  0.24979967  0.48033225  0.34015082  1
  O  O121  1  0.21070368  0.48362779  0.87326043  1
  O  O122  1  0.70659884  0.03631241  0.44155906  1
  O  O123  1  0.79231720  0.00383167  0.89603128  1
  O  O124  1  0.77694140  0.49105980  0.38599721  1
  O  O125  1  0.72357416  0.53685785  0.87396582  1
  O  O126  1  0.19710339  0.45907554  0.13295965  1
  O  O127  1  0.18544468  0.49991895  0.61298192  1
  O  O128  1  0.20866560  1.15765822  -0.03395755  1
  O  O129  1  0.20875410  0.97857505  0.63138311  1
  O  O130  1  0.78124915  0.56559449  0.13086449  1
  O  O131  1  0.74602554  0.52279976  0.61950867  1
  O  O132  1  0.69427029  0.92921813  0.19959912  1
  O  O133  1  0.71728463  0.99340890  0.59827099  1
  O  O134  1  0.03050244  0.29368931  0.25170255  1
  O  O135  1  -0.00600844  0.42257520  0.78028271  1
  O  O136  1  -0.02315475  0.90810771  0.26232922  1
  O  O137  1  -0.05735409  0.91003042  0.76631333  1
  O  O138  1  0.56426834  0.40146182  0.23429104  1
  O  O139  1  0.45885397  0.35689637  0.72759040  1
  O  O140  1  0.53459549  0.88546251  0.28913985  1
  O  O141  1  0.53060199  0.86023006  0.76419247  1
  O  O142  1  0.45132152  0.11341159  0.29448762  1
  O  O143  1  0.53535110  0.16429624  0.73380783  1
  O  O144  1  0.48935321  0.65772998  0.32728788  1
  O  O145  1  0.48885756  0.64490696  0.73426069  1
  O  O146  1  0.96363576  0.10638023  0.28050150  1
  O  O147  1  0.94603454  0.14136139  0.67979871  1
  O  O148  1  1.00271801  0.63083957  0.23621938  1
  O  O149  1  1.01603493  0.58229357  0.73076329  1
  O  O150  1  0.42158837  0.24820822  0.04502367  1
  O  O151  1  0.36636603  0.18593753  0.50060791  1
  O  O152  1  0.40827145  0.71769945  0.02106215  1
  O  O153  1  0.37595181  0.73868531  0.46334466  1
  O  O154  1  0.97184936  0.25922140  0.02858232  1
  O  O155  1  0.81929480  0.37083907  0.51148109  1
  O  O156  1  0.89219032  0.73407332  0.03681543  1
  O  O157  1  0.87183091  0.76299017  0.50407793  1
  O  O158  1  0.20380028  0.23691334  0.44725815  1
  O  O159  1  0.07721841  0.18550027  0.83596412  1
  O  O160  1  0.08970276  0.77253879  0.46320540  1
  O  O161  1  0.06495434  0.73389325  0.97957800  1
  O  O162  1  0.55377405  0.23024554  0.53791645  1
  O  O163  1  0.69098170  0.31864759  0.98493491  1
  O  O164  1  0.65909421  0.75926539  0.51544803  1
  O  O165  1  0.63380011  0.78318257  1.05656711  1
  O  O166  1  0.53639314  0.32671707  0.05121699  1
  O  O167  1  0.43834972  0.23504574  0.65498599  1
  O  O168  1  0.59810085  0.62943144  0.03273282  1
  O  O169  1  0.51719927  0.76072279  0.65262081  1
  O  O170  1  0.98053103  0.19381978  0.16212877  1
  O  O171  1  0.98346898  0.25521173  0.58003206  1
  O  O172  1  1.00399422  0.76471081  0.13741826  1
  O  O173  1  0.97133270  0.74833747  0.62828140  1
  O  O174  1  0.00107570  0.21875966  0.36190119  1
  O  O175  1  0.00838628  0.19106531  0.85468912  1
  O  O176  1  -0.01122062  0.76604784  0.33847575  1
  O  O177  1  -0.01086675  0.75395574  0.86396105  1
  O  O178  1  0.45244790  0.32991516  0.41472515  1
  O  O179  1  0.52513881  0.27767061  0.82765121  1
  O  O180  1  0.51879928  0.78514245  0.40429518  1
  O  O181  1  0.47827295  0.74524208  0.86110531  1
  O  O182  1  0.15451054  0.11792498  0.43585631  1
  O  O183  1  0.34645472  0.08209922  0.91025718  1
  O  O184  1  0.20030066  0.69487498  0.57371883  1
  O  O185  1  0.26290771  0.56426357  1.01686848  1
  O  O186  1  0.73694499  0.09925102  0.47624827  1
  O  O187  1  0.87367120  0.12816572  0.94987978  1
  O  O188  1  0.74554994  0.64607448  0.49987571  1
  O  O189  1  0.75026965  0.68575042  0.94742419  1
  O  O190  1  0.21326510  0.36096274  0.02454539  1
  O  O191  1  0.23252622  0.40569791  0.49382935  1
  O  O192  1  0.18111487  0.82019781  0.01111388  1
  O  O193  1  0.24518693  0.83103583  0.49272826  1
  O  O194  1  0.80257393  0.42802127  0.00325335  1
  O  O195  1  0.67921730  0.30465999  0.55178959  1
  O  O196  1  0.65849606  0.85650688  0.03665035  1
  O  O197  1  0.76772918  0.86791842  0.50251380  1
  O  O198  1  0.13366248  0.49830844  0.25352956  1
  O  O199  1  0.17694334  0.44807908  0.82326149  1
  O  O200  1  0.16190800  0.96249934  0.24465370  1
  O  O201  1  0.10871879  0.96330394  0.73086688  1
  O  O202  1  0.71117904  0.44999609  0.23400864  1
  O  O203  1  0.65052628  0.51401037  0.73679077  1
  O  O204  1  0.59427682  1.03609399  0.27512237  1
  O  O205  1  0.63455240  0.98599055  0.72927091  1
  O  O206  1  0.35791019  -0.01787814  0.28075732  1
  O  O207  1  0.31987166  -0.04012206  0.72305356  1
  O  O208  1  0.41776032  0.52464197  0.26689732  1
  O  O209  1  0.38580942  0.53344927  0.71674497  1
  O  O210  1  0.84488444  -0.00889876  0.26225217  1
  O  O211  1  0.83942082  0.03757706  0.66446973  1
  O  O212  1  0.86748444  0.51994925  0.26451807  1
  O  O213  1  0.84423268  0.50674728  0.76555551  1
  O  O214  1  0.10113121  0.37008714  0.34948762  1
  O  O215  1  0.10131831  0.33579360  0.88276412  1
  O  O216  1  0.09771247  0.86286244  0.34694089  1
  O  O217  1  0.10094519  0.82891031  0.85911429  1
  O  O218  1  0.66970406  0.33728591  0.33544921  1
  O  O219  1  0.53536525  0.40754067  0.90225824  1
  O  O220  1  0.64372326  0.91666488  0.38484150  1
  O  O221  1  0.65813684  0.88121128  0.84987396  1
  O  O222  1  0.35868878  0.09332172  0.16761743  1
  O  O223  1  0.36501873  0.07651473  0.61759440  1
  O  O224  1  0.41360545  0.66887470  0.17543087  1
  O  O225  1  0.41001700  0.66163384  0.61367568  1
  O  O226  1  0.87152646  0.09397009  0.16051706  1
  O  O227  1  0.82533240  0.16877706  0.59511414  1
  O  O228  1  0.77787257  0.74384842  0.13711949  1
  O  O229  1  0.87884516  0.62874592  0.63931996  1
  O  O230  1  0.27100852  0.24425087  0.11651052  1
  O  O231  1  0.26512555  0.20446592  0.62151511  1
  O  O232  1  0.27496114  0.72068705  0.11136363  1
  O  O233  1  0.14434233  0.67638154  0.61338469  1
  O  O234  1  0.82174485  0.27239809  0.05744830  1
  O  O235  1  0.70932097  0.26130659  0.60021283  1
  O  O236  1  0.74023044  0.78603026  0.18448947  1
  O  O237  1  0.77710976  0.74066342  0.61029952  1
  O  O238  1  0.31916028  0.24800110  0.32095669  1
  O  O239  1  0.24395006  0.28528097  0.84265280  1
  O  O240  1  0.20489739  0.73880180  0.36923576  1
  O  O241  1  0.18036238  0.71312284  0.91033622  1
  O  O242  1  0.77144346  0.24106229  0.40573117  1
  O  O243  1  0.82920223  0.30809143  0.89628480  1
  O  O244  1  0.76690968  0.75930186  0.39704767  1
  O  O245  1  0.71885028  0.85738281  0.99292639  1
  O  O246  1  0.04469978  0.08805555  -0.01766889  1
  O  O247  1  -0.01902079  0.09966829  0.50953652  1
  O  O248  1  -0.04757603  0.57917596  0.05620928  1
  O  O249  1  0.00998718  0.62068552  0.52418693  1
  O  O250  1  0.56693253  0.17365385  -0.04403227  1
  O  O251  1  0.52200685  0.07678871  0.45926704  1
  O  O252  1  0.58045357  0.65090861  -0.03035420  1
  O  O253  1  0.53518387  0.67596093  0.52607761  1
  O  O254  1  0.48049708  0.41092181  0.56042137  1
  O  O255  1  0.46367627  0.40955063  0.89521520  1
  O  O256  1  0.58163279  0.90395398  0.54031485  1
  O  O257  1  0.50731187  0.86595252  0.98467961  1
  O  O258  1  0.99969332  0.34664663  0.46029256  1
  O  O259  1  1.05745744  0.35626796  0.93328955  1
  O  O260  1  0.98204610  0.87640877  0.50610326  1
  O  O261  1  1.03258263  0.88463271  1.01695280  1
  O  O262  1  0.59175651  0.43217647  0.44609529  1
  O  O263  1  0.34748376  0.53421806  1.03120804  1
  O  O264  1  0.47908311  1.02228963  0.45132143  1
  O  O265  1  0.44746083  0.88914197  0.95851731  1
  O  O266  1  0.97142864  0.52428233  0.37791667  1
  O  O267  1  0.97228378  0.45985902  0.84613565  1
  O  O268  1  1.00083484  0.98349112  0.40293971  1
  O  O269  1  1.04513386  0.97933845  0.88827614  1
  O  O270  1  0.03786628  0.00854344  0.08694835  1
  O  O271  1  0.01039358  -0.01168941  0.61337159  1
  O  O272  1  0.02376177  0.45992435  0.17457563  1
  O  O273  1  -0.00917728  0.47248180  0.56903857  1
  O  O274  1  0.49302269  0.00848185  0.06951266  1
  O  O275  1  0.53420594  -0.03884705  0.59200797  1
  O  O276  1  0.47632201  0.44886811  0.11733745  1
  O  O277  1  0.51762676  0.54348675  0.61675260  1
  O  O278  1  0.29120582  0.39788425  0.21710195  1
  O  O279  1  0.27368248  0.36766552  0.67235760  1
  O  O280  1  0.25852436  0.83794938  0.26065691  1
  O  O281  1  0.28651715  0.88645482  0.72661075  1
  O  O282  1  0.77182983  0.42405845  0.18716636  1
  O  O283  1  0.80210635  0.43907152  0.75885199  1
  O  O284  1  0.70674090  0.93129736  0.33895723  1
  O  O285  1  0.77309464  0.93426386  0.74431070  1
  O  O286  1  0.31042502  0.19392674  0.25730039  1
  O  O287  1  0.21522869  0.08202981  0.76023007  1
  O  O288  1  0.27431024  0.56982266  0.20788998  1
  O  O289  1  0.27311705  0.64244947  0.72373719  1
  O  O290  1  0.77121642  0.14511447  0.26504330  1
  O  O291  1  0.72369840  0.11775812  0.70780342  1
  O  O292  1  0.71323706  0.59933275  0.26725410  1
  O  O293  1  0.74997934  0.63772061  0.76036272  1
  O  O294  1  0.30398668  0.08869281  0.35635476  1
  O  O295  1  0.36816308  0.02250089  0.87815687  1
  O  O296  1  0.33680949  0.64496291  0.32449726  1
  O  O297  1  0.36658893  0.62725129  0.84204001  1
  O  O298  1  0.84861176  0.10357406  0.37405379  1
  O  O299  1  0.84572092  0.11600636  0.79643605  1
  O  O300  1  0.85351149  0.63673307  0.36487740  1
  O  O301  1  0.89420914  0.63805242  0.88193120  1
  O  O302  1  0.17122054  0.32113268  0.17993218  1
  O  O303  1  0.13206342  0.34525690  0.60433074  1
  O  O304  1  0.13945769  0.84686896  0.15643765  1
  O  O305  1  0.11269057  0.85151356  0.62481653  1
  O  O306  1  0.67095812  0.27923102  0.18079204  1
  O  O307  1  0.62094569  0.43544767  0.60874215  1
  O  O308  1  0.62240867  0.90575245  0.17438815  1
  O  O309  1  0.66702120  0.82560902  0.68924269  1
  O  O310  1  0.11717348  0.16130441  0.24140698  1
  O  O311  1  0.16263773  0.28319205  0.74824559  1
  O  O312  1  0.10299895  0.75042120  0.25673558  1
  O  O313  1  0.11599727  0.70635439  0.78616269  1
  O  O314  1  0.55099103  0.24891991  0.28412431  1
  O  O315  1  0.57794050  0.28425784  0.68724174  1
  O  O316  1  0.58265005  0.74101530  0.25221588  1
  O  O317  1  0.60675228  0.72158419  0.78148403  1
  O  O318  1  0.43764764  0.30562046  0.18754830  1
  O  O319  1  0.40806636  0.22544748  0.78748953  1
  O  O320  1  0.40878029  0.79492115  0.29165158  1
  O  O321  1  0.38751358  0.75083482  0.73974492  1
  O  O322  1  0.84516209  0.16339146  0.13152509  1
  O  O323  1  0.83000392  0.25088122  0.72248168  1
  O  O324  1  0.89741663  0.75141267  0.23153019  1
  O  O325  1  0.85886399  0.76448723  0.73811358  1
  O  O326  1  0.47785229  0.54552347  0.46395555  1
  O  O327  1  0.39255200  0.54636511  0.97791211  1
  O  O328  1  0.30969005  1.01096460  0.48688136  1
  O  O329  1  0.45514027  1.02478056  1.01432547  1
  O  O330  1  0.88400919  0.53550659  0.48158467  1
  O  O331  1  0.93587159  0.54050731  1.00167052  1
  O  O332  1  0.88381210  0.97999093  0.50948210  1
  O  O333  1  0.94153762  0.97918861  0.97792603  1
  O  O334  1  0.13956530  -0.03442465  -0.01977714  1
  O  O335  1  0.10375350  -0.03846135  0.51368704  1
  O  O336  1  0.09459344  0.48723269  0.03068985  1
  O  O337  1  0.09115892  0.50043982  0.45504304  1
  O  O338  1  0.64406362  0.03191628  -0.01979350  1
  O  O339  1  0.55601748  0.02901003  0.59055528  1
  O  O340  1  0.63397142  0.46672999  0.09758789  1
  O  O341  1  0.62941930  0.55008900  0.52012374  1
  O  O342  1  0.34803739  0.37722214  0.08257143  1
  O  O343  1  0.32179195  0.40319558  0.62315806  1
  O  O344  1  0.38634835  0.83235668  0.13494500  1
  O  O345  1  0.37284417  0.86867668  0.57208118  1
  O  O346  1  0.91155139  0.34008542  0.15632893  1
  O  O347  1  0.83551365  0.34361795  0.57269948  1
  O  O348  1  0.87409213  0.86830583  0.11821461  1
  O  O349  1  0.87293513  0.86627112  0.61317829  1
  O  O350  1  0.14203871  0.19080852  0.43952408  1
  O  O351  1  0.21489188  0.24601400  0.79042931  1
  O  O352  1  0.08827115  0.64026814  0.37212141  1
  O  O353  1  0.06141515  0.62763660  0.88140526  1
  O  O354  1  0.65076907  0.15853988  0.36609710  1
  O  O355  1  0.72062623  0.15275869  0.91068433  1
  O  O356  1  0.62406048  0.64555335  0.40132699  1
  O  O357  1  0.69624265  0.70296931  0.90895456  1
