# generated using pymatgen
data_V51Zn51O256
_symmetry_space_group_name_H-M   'P 1'
_cell_length_a   17.53767813
_cell_length_b   17.88929186
_cell_length_c   17.61322940
_cell_angle_alpha   90.97285360
_cell_angle_beta   90.48978274
_cell_angle_gamma   91.52794412
_symmetry_Int_Tables_number   1
_chemical_formula_structural   V51Zn51O256
_chemical_formula_sum   'V51 Zn51 O256'
_cell_volume   5522.93042908
_cell_formula_units_Z   1
loop_
 _symmetry_equiv_pos_site_id
 _symmetry_equiv_pos_as_xyz
  1  'x, y, z'
loop_
 _atom_site_type_symbol
 _atom_site_label
 _atom_site_symmetry_multiplicity
 _atom_site_fract_x
 _atom_site_fract_y
 _atom_site_fract_z
 _atom_site_occupancy
  V  V0  1  0.34331651  0.19237356  0.62214731  1
  V  V1  1  0.25800831  0.21652756  0.48258543  1
  V  V2  1  0.77331900  0.31445157  0.10263375  1
  V  V3  1  0.30244185  0.51550822  0.74513289  1
  V  V4  1  0.59174687  0.25100446  0.80469970  1
  V  V5  1  0.62885983  0.90375320  0.79331447  1
  V  V6  1  0.88339273  0.57849727  0.35513250  1
  V  V7  1  0.39132180  0.39066928  -0.05132436  1
  V  V8  1  0.25774770  0.41019806  0.62218654  1
  V  V9  1  0.23366547  0.17976714  0.89693686  1
  V  V10  1  0.23619955  0.67769054  0.93270708  1
  V  V11  1  0.43071708  0.92833471  0.47931598  1
  V  V12  1  -0.00249057  0.05254109  0.18617645  1
  V  V13  1  0.76829990  0.72463348  -0.01439835  1
  V  V14  1  0.78080131  -0.09490577  0.19784752  1
  V  V15  1  0.02654150  -0.02293849  -0.06824592  1
  V  V16  1  0.62592869  0.51773578  0.61566141  1
  V  V17  1  0.09155265  0.10972131  0.50192015  1
  V  V18  1  0.48600785  0.72910725  0.74869143  1
  V  V19  1  0.26153624  0.49211768  0.21833745  1
  V  V20  1  0.85098211  0.63024678  0.20689320  1
  V  V21  1  -0.05528543  0.62686316  0.62582661  1
  V  V22  1  0.64026464  0.00276287  0.11434042  1
  V  V23  1  -0.01141199  0.28323621  0.26786406  1
  V  V24  1  0.41442835  0.75587448  0.57986753  1
  V  V25  1  0.52004167  0.76118113  0.20871302  1
  V  V26  1  -0.00831620  0.12727663  0.66696531  1
  V  V27  1  0.59359446  0.49212225  0.12498845  1
  V  V28  1  0.26700678  0.92508259  0.14929593  1
  V  V29  1  0.33453266  0.23527118  0.16891133  1
  V  V30  1  0.02308861  0.84626015  0.40851991  1
  V  V31  1  0.72568158  0.85418304  0.63491344  1
  V  V32  1  0.71778932  0.50689266  0.77640472  1
  V  V33  1  0.62799785  0.08976806  0.47901477  1
  V  V34  1  -0.03093595  0.49321249  -0.03604197  1
  V  V35  1  0.76288271  0.27836889  0.43862750  1
  V  V36  1  0.90821451  0.29376690  -0.04197468  1
  V  V37  1  0.12392532  0.24812841  0.37725194  1
  V  V38  1  0.28855555  0.86993912  0.67284232  1
  V  V39  1  0.50487510  0.06246103  -0.01918083  1
  V  V40  1  0.74244786  0.38861768  0.65312359  1
  V  V41  1  0.23656800  0.06583180  0.40628276  1
  V  V42  1  0.39595843  0.91048820  0.01076706  1
  V  V43  1  0.92448847  0.74403538  0.10690270  1
  V  V44  1  0.35099852  0.72601401  0.10250471  1
  V  V45  1  0.76874196  0.07509728  0.37188301  1
  V  V46  1  0.06690045  0.49486710  0.12371478  1
  V  V47  1  0.82828724  0.63391945  0.80043095  1
  V  V48  1  -0.06629139  0.75967090  0.75698786  1
  V  V49  1  0.59631978  0.71276707  0.88234403  1
  V  V50  1  0.47481088  0.26254521  0.69830739  1
  Zn  Zn51  1  0.75031945  0.46475999  0.45690684  1
  Zn  Zn52  1  0.24946225  0.69652716  0.26794000  1
  Zn  Zn53  1  0.76766506  0.80637477  0.83313971  1
  Zn  Zn54  1  0.58152017  0.36597752  0.02048009  1
  Zn  Zn55  1  0.12701583  0.26027832  0.59630892  1
  Zn  Zn56  1  0.54370470  0.56970955  0.78374510  1
  Zn  Zn57  1  0.53042058  0.87807175  0.64176463  1
  Zn  Zn58  1  0.72101227  0.89939798  0.97054474  1
  Zn  Zn59  1  0.91984648  -0.06468573  0.07747470  1
  Zn  Zn60  1  0.32179629  0.33036545  0.77941793  1
  Zn  Zn61  1  0.42566881  0.87795726  0.80570625  1
  Zn  Zn62  1  0.41930447  0.23510338  0.98177741  1
  Zn  Zn63  1  0.89148218  0.47636956  0.70475262  1
  Zn  Zn64  1  0.04953274  0.31218749  0.08589218  1
  Zn  Zn65  1  0.29306787  0.02636026  0.57631244  1
  Zn  Zn66  1  0.81923643  0.06747474  0.16301770  1
  Zn  Zn67  1  0.67062125  0.68351891  0.69741321  1
  Zn  Zn68  1  0.01786920  0.15553894  0.86455974  1
  Zn  Zn69  1  0.44041040  0.44287837  0.63272010  1
  Zn  Zn70  1  0.44384052  0.40550403  0.18314909  1
  Zn  Zn71  1  0.28231418  0.88802362  0.34521210  1
  Zn  Zn72  1  0.80224994  0.20973602  0.26158143  1
  Zn  Zn73  1  0.45233942  0.77282240  0.95069468  1
  Zn  Zn74  1  0.31232797  0.54366101  0.02529247  1
  Zn  Zn75  1  0.84953551  0.79654439  0.28371629  1
  Zn  Zn76  1  0.59195821  0.07511611  0.81601752  1
  Zn  Zn77  1  0.62600585  0.01403806  0.28145786  1
  Zn  Zn78  1  0.84028232  0.13696416  0.52846744  1
  Zn  Zn79  1  0.99335890  0.14408646  1.03790253  1
  Zn  Zn80  1  0.67274082  0.67583509  0.11307705  1
  Zn  Zn81  1  0.72267183  0.93293680  0.47547808  1
  Zn  Zn82  1  0.13260277  0.93209484  0.57612989  1
  Zn  Zn83  1  0.65748289  0.55475183  0.96014030  1
  Zn  Zn84  1  0.10991692  0.81359723  0.06786856  1
  Zn  Zn85  1  0.24289280  0.70577091  0.76618878  1
  Zn  Zn86  1  0.06689439  0.64905615  0.34669625  1
  Zn  Zn87  1  -0.04197014  0.04200075  0.38722854  1
  Zn  Zn88  1  0.42208212  0.10407271  0.46389034  1
  Zn  Zn89  1  0.23010765  1.00648889  1.01100817  1
  Zn  Zn90  1  0.79189986  0.54248548  0.58121670  1
  Zn  Zn91  1  1.00749474  0.93341274  0.72269133  1
  Zn  Zn92  1  0.92710619  0.20288508  0.40955253  1
  Zn  Zn93  1  0.12826670  0.19577451  0.17249001  1
  Zn  Zn94  1  0.36956932  0.76723564  0.40220481  1
  Zn  Zn95  1  0.27384226  0.61167918  0.61081163  1
  Zn  Zn96  1  0.89763530  0.43225876  0.21860928  1
  Zn  Zn97  1  0.58740525  0.83040763  0.05417958  1
  Zn  Zn98  1  0.03370788  0.78828288  0.60187381  1
  Zn  Zn99  1  0.53588910  0.60202986  0.22843471  1
  Zn  Zn100  1  0.47686249  0.92444654  0.16610350  1
  Zn  Zn101  1  0.66285016  0.23605897  0.60386225  1
  O  O102  1  0.08474552  0.09629924  0.17046860  1
  O  O103  1  0.07325768  0.16259058  0.61003881  1
  O  O104  1  0.08080650  0.61353851  0.15167231  1
  O  O105  1  0.13169272  0.72231109  0.59858992  1
  O  O106  1  0.71004269  0.06927881  0.12348840  1
  O  O107  1  0.63594407  0.13786859  0.56638438  1
  O  O108  1  0.59614578  0.59602481  0.13172069  1
  O  O109  1  0.61906980  0.61253677  0.62628680  1
  O  O110  1  0.39002072  0.41811023  0.43759194  1
  O  O111  1  0.38825708  0.38080047  0.84992137  1
  O  O112  1  0.36007199  0.87587120  0.42669858  1
  O  O113  1  0.42538272  0.87959343  0.91708108  1
  O  O114  1  0.61448197  0.37079702  0.29441825  1
  O  O115  1  0.87642571  0.31893809  0.87623371  1
  O  O116  1  0.93870879  0.81706514  0.36015250  1
  O  O117  1  0.85750039  0.97139383  0.83099610  1
  O  O118  1  0.23148409  -0.02975206  0.40124982  1
  O  O119  1  0.23548814  0.10340422  0.96399828  1
  O  O120  1  0.28463000  0.49670265  0.31280892  1
  O  O121  1  0.30547820  0.51605698  0.83718688  1
  O  O122  1  0.77389160  -0.01787933  0.38874967  1
  O  O123  1  0.73579626  0.00762271  0.93725484  1
  O  O124  1  0.62148223  0.43471575  0.31950967  1
  O  O125  1  0.69510878  0.50475672  0.86969028  1
  O  O126  1  0.26089297  0.50038210  0.11324165  1
  O  O127  1  0.24770164  0.50401527  0.60647119  1
  O  O128  1  0.24112326  1.01288448  0.11924271  1
  O  O129  1  0.23740310  0.93832633  0.61760677  1
  O  O130  1  0.66995255  0.46574271  0.16852593  1
  O  O131  1  0.72554464  0.51282715  0.66584144  1
  O  O132  1  0.82145519  0.96227199  0.12088839  1
  O  O133  1  0.79503854  1.01499591  0.64653685  1
  O  O134  1  -0.03565010  0.37398614  0.28830400  1
  O  O135  1  0.07817216  0.34483241  0.83346926  1
  O  O136  1  0.07828821  0.87101337  0.33102786  1
  O  O137  1  -0.07018435  0.85284197  0.72998113  1
  O  O138  1  0.44422447  0.36876681  0.28019463  1
  O  O139  1  0.48126227  0.35384037  0.68043257  1
  O  O140  1  0.50425470  0.84961927  0.24271925  1
  O  O141  1  0.53218520  0.88081230  0.75746483  1
  O  O142  1  0.52053805  0.21442292  0.33791751  1
  O  O143  1  0.50841585  0.08217123  0.73091509  1
  O  O144  1  0.43036189  0.59625084  0.33626335  1
  O  O145  1  0.46898027  0.63563655  0.74146973  1
  O  O146  1  0.97635712  0.05252653  0.28158949  1
  O  O147  1  0.99569927  0.16470900  0.75931275  1
  O  O148  1  1.05140639  0.63713427  0.21258658  1
  O  O149  1  0.91909940  0.64004162  0.75960650  1
  O  O150  1  0.35717528  0.22735846  0.06874212  1
  O  O151  1  0.35703600  0.18336782  0.51493487  1
  O  O152  1  0.38282827  0.79436597  0.03418158  1
  O  O153  1  0.42814243  0.73597134  0.48459121  1
  O  O154  1  0.95596461  0.20763324  -0.05412652  1
  O  O155  1  0.84850621  0.24189513  0.47990962  1
  O  O156  1  0.86077310  0.71494104  0.02862827  1
  O  O157  1  0.74949962  0.70554977  0.48438034  1
  O  O158  1  0.14081251  0.21595310  0.49027515  1
  O  O159  1  0.07729415  0.21173701  1.07427052  1
  O  O160  1  0.13015068  0.67386262  0.53949945  1
  O  O161  1  0.17209781  0.72405016  1.01622393  1
  O  O162  1  0.68610513  0.27169725  0.49725734  1
  O  O163  1  0.59071121  0.31768553  0.89408326  1
  O  O164  1  0.66339026  0.85281576  0.39897811  1
  O  O165  1  0.56609695  0.75205318  0.97365771  1
  O  O166  1  0.41890750  0.23796879  0.22025464  1
  O  O167  1  0.45690872  0.20342551  0.62028828  1
  O  O168  1  0.59303246  0.76076304  0.14175525  1
  O  O169  1  0.49819115  0.75814674  0.64346767  1
  O  O170  1  0.98049427  0.28422403  0.17159372  1
  O  O171  1  1.01315741  0.30221100  0.64434341  1
  O  O172  1  1.02012733  0.75223070  0.08528389  1
  O  O173  1  0.98087707  0.72174039  0.66732696  1
  O  O174  1  0.02433152  0.25563316  0.39343863  1
  O  O175  1  -0.05506613  0.37488777  0.72000709  1
  O  O176  1  0.05629870  0.75281357  0.39631560  1
  O  O177  1  -0.01268199  0.76172367  0.83304828  1
  O  O178  1  0.46133603  0.22069435  0.37366434  1
  O  O179  1  0.48964199  0.24039041  0.80168546  1
  O  O180  1  0.38120759  0.64510744  0.34321864  1
  O  O181  1  0.49571736  0.74217082  0.85499719  1
  O  O182  1  0.23200794  0.09056401  0.50624114  1
  O  O183  1  0.19548048  0.23186996  0.97113620  1
  O  O184  1  0.18463445  0.62462885  0.53493924  1
  O  O185  1  0.23212341  0.58807373  0.96434611  1
  O  O186  1  0.74011336  0.11877413  0.46502671  1
  O  O187  1  0.80108409  0.04233357  0.96608071  1
  O  O188  1  0.70036577  0.67709371  0.44295555  1
  O  O189  1  0.71537096  0.63749454  1.00567379  1
  O  O190  1  0.30789320  0.35268003  -0.02700329  1
  O  O191  1  0.28058779  0.30290565  0.46745271  1
  O  O192  1  0.30059394  0.92690833  -0.00826808  1
  O  O193  1  0.22905367  0.78273481  0.49779686  1
  O  O194  1  0.83422916  0.27984865  0.02560111  1
  O  O195  1  0.77526008  0.37293687  0.41637237  1
  O  O196  1  0.79156604  0.82343192  -0.06046972  1
  O  O197  1  0.76875192  0.87054053  0.54851243  1
  O  O198  1  0.15983741  0.50900550  0.21241170  1
  O  O199  1  0.26091357  0.60710442  0.72214378  1
  O  O200  1  0.15678991  1.01557558  0.25990760  1
  O  O201  1  0.18747226  0.95013480  0.79601710  1
  O  O202  1  0.51325412  0.50189240  0.20448060  1
  O  O203  1  0.61271331  0.50635955  0.73562664  1
  O  O204  1  0.69655197  0.95440081  0.22001939  1
  O  O205  1  0.64867479  0.99527008  0.77458581  1
  O  O206  1  0.41576317  0.01730417  0.26185521  1
  O  O207  1  0.49312394  -0.00260348  0.63656385  1
  O  O208  1  0.35894947  0.47985019  0.19207645  1
  O  O209  1  0.39273527  0.50796649  0.70891765  1
  O  O210  1  0.84765871  -0.08744583  0.26810634  1
  O  O211  1  0.85418228  0.03731191  0.81439151  1
  O  O212  1  0.86662796  0.53513283  0.26055404  1
  O  O213  1  0.82726413  0.52554165  0.78267985  1
  O  O214  1  0.15534556  0.33330811  0.38608828  1
  O  O215  1  0.01403680  0.52261594  0.87026204  1
  O  O216  1  0.10095187  0.87654040  0.47111687  1
  O  O217  1  0.21994415  0.93012674  0.85411969  1
  O  O218  1  0.54744210  0.33869156  0.43040024  1
  O  O219  1  0.64616704  0.33634079  0.84004460  1
  O  O220  1  0.70636224  0.81092691  0.35603817  1
  O  O221  1  0.63510812  0.88949760  0.88819575  1
  O  O222  1  0.34764024  0.14046692  0.17124859  1
  O  O223  1  0.32826271  0.10485761  0.65268639  1
  O  O224  1  0.35572577  0.63941387  0.06309269  1
  O  O225  1  0.36293955  0.67793089  0.60482951  1
  O  O226  1  0.92668080  0.09971691  0.12686536  1
  O  O227  1  0.90769163  0.14476232  0.61749057  1
  O  O228  1  0.90358785  0.61782818  0.12865731  1
  O  O229  1  0.84633131  0.62997407  0.60691407  1
  O  O230  1  0.23052454  0.22532951  0.14245902  1
  O  O231  1  0.25067201  0.22360261  0.59784505  1
  O  O232  1  0.27734208  0.73274734  0.16625345  1
  O  O233  1  0.33922752  0.82229220  0.60128965  1
  O  O234  1  0.76474530  0.24140460  0.16520632  1
  O  O235  1  0.74982437  0.29268847  0.64771145  1
  O  O236  1  0.71890467  0.76904262  0.05464564  1
  O  O237  1  0.72002504  0.75900575  0.63877671  1
  O  O238  1  0.22373833  0.18980801  0.38531819  1
  O  O239  1  0.25464778  0.25326302  0.83327071  1
  O  O240  1  0.25295777  0.72784462  0.46280007  1
  O  O241  1  0.24876018  0.74894540  1.01505696  1
  O  O242  1  0.74524056  0.23318408  0.35211075  1
  O  O243  1  0.80417752  0.18652588  0.79474370  1
  O  O244  1  0.78029512  0.80906834  0.37732258  1
  O  O245  1  0.69378371  0.73217555  0.89043830  1
  O  O246  1  0.02456790  0.07757932  -0.05375729  1
  O  O247  1  -0.00317063  0.11269801  0.47264936  1
  O  O248  1  -0.10808721  0.53752774  -0.02339130  1
  O  O249  1  -0.01250608  0.63371321  0.54280713  1
  O  O250  1  0.48819019  0.15584865  -0.01608102  1
  O  O251  1  0.53224735  0.10541669  0.45617766  1
  O  O252  1  0.43914872  0.58268649  -0.08490104  1
  O  O253  1  0.55268367  0.61276235  0.45048374  1
  O  O254  1  0.43897235  0.45918028  0.41014149  1
  O  O255  1  0.46855692  0.33290707  0.98157391  1
  O  O256  1  0.49620241  0.95398701  0.41848404  1
  O  O257  1  0.49623915  0.89384299  1.05915787  1
  O  O258  1  1.02814325  0.46510387  0.46239637  1
  O  O259  1  1.00180514  0.34835077  0.98487945  1
  O  O260  1  0.98477204  0.81518535  0.50061704  1
  O  O261  1  1.09244385  0.89652344  0.97305696  1
  O  O262  1  0.56696845  0.40191067  0.45124312  1
  O  O263  1  0.45793581  0.53326962  0.86977725  1
  O  O264  1  0.45914272  1.06274324  0.29460227  1
  O  O265  1  0.52402233  1.03499704  0.89058930  1
  O  O266  1  0.98051527  0.59182647  0.36914121  1
  O  O267  1  0.97633366  0.45444780  0.86163561  1
  O  O268  1  0.98309939  0.93644716  0.41476086  1
  O  O269  1  1.02668340  0.96447426  0.83596893  1
  O  O270  1  0.00289629  -0.03666931  0.14853643  1
  O  O271  1  -0.00511176  0.03293425  0.67877147  1
  O  O272  1  -0.01268644  0.48482905  0.17192707  1
  O  O273  1  -0.03308277  0.53667893  0.65536486  1
  O  O274  1  0.56520069  0.00109324  0.18664716  1
  O  O275  1  0.53414444  0.05236553  0.66572150  1
  O  O276  1  0.52840181  0.40052032  0.11544438  1
  O  O277  1  0.53344996  0.48790042  0.59356689  1
  O  O278  1  0.23430942  0.40044722  0.22648763  1
  O  O279  1  0.26490873  0.41274934  0.72741335  1
  O  O280  1  0.27166486  0.92584260  0.24580734  1
  O  O281  1  0.35070790  0.91647447  0.73325902  1
  O  O282  1  0.57972977  0.26397376  0.17905794  1
  O  O283  1  0.73786216  0.40795927  0.75484981  1
  O  O284  1  0.76232287  0.81109374  0.19991675  1
  O  O285  1  0.71048811  0.85822822  0.75517737  1
  O  O286  1  0.20016348  0.06604519  0.28417830  1
  O  O287  1  0.23834079  0.10273479  0.83103404  1
  O  O288  1  0.26852331  0.59396958  0.22820058  1
  O  O289  1  0.32132950  0.66512242  0.85650782  1
  O  O290  1  0.79121941  0.09601919  0.27200580  1
  O  O291  1  0.78716825  0.14405128  0.74187522  1
  O  O292  1  0.76000726  0.64173034  0.17938654  1
  O  O293  1  0.72757707  0.61958213  0.76633332  1
  O  O294  1  0.33034438  0.08886140  0.38833442  1
  O  O295  1  0.33387179  0.19445839  0.91517808  1
  O  O296  1  0.33978996  0.57435455  0.48121815  1
  O  O297  1  0.33718081  0.71918493  0.91200530  1
  O  O298  1  0.86768787  0.10136907  0.41006068  1
  O  O299  1  0.81810930  0.10598554  0.93947072  1
  O  O300  1  0.84788727  0.66200431  0.32478494  1
  O  O301  1  0.82474654  0.65087233  0.89390138  1
  O  O302  1  0.09759450  0.40712398  0.10578728  1
  O  O303  1  0.17725295  0.35670123  0.60027804  1
  O  O304  1  0.19399814  0.86451222  0.11568605  1
  O  O305  1  0.06777295  0.88147451  0.64386088  1
  O  O306  1  0.68569356  0.33328447  0.06212275  1
  O  O307  1  0.65628244  0.40216679  0.60975076  1
  O  O308  1  0.66462844  0.91708260  0.06611098  1
  O  O309  1  0.63799050  0.89011785  0.62441230  1
  O  O310  1  0.09351662  0.24398890  0.27024856  1
  O  O311  1  0.11824418  0.35289179  0.77684994  1
  O  O312  1  0.29531008  0.77826054  0.32599210  1
  O  O313  1  0.23580510  0.80256578  0.71930046  1
  O  O314  1  0.60510164  0.20828294  0.20896816  1
  O  O315  1  0.59026461  0.25254301  0.70144428  1
  O  O316  1  0.54204582  0.69546618  0.27753297  1
  O  O317  1  0.59643541  0.72566459  0.77192026  1
  O  O318  1  0.28492221  0.25533804  0.25181418  1
  O  O319  1  0.36337611  0.25524565  0.70845383  1
  O  O320  1  0.43397399  0.72521464  0.16664834  1
  O  O321  1  0.40018946  0.77388277  0.75718555  1
  O  O322  1  0.91033127  0.22463629  0.29507173  1
  O  O323  1  0.99823253  0.37034904  0.66588518  1
  O  O324  1  0.90058419  0.72809864  0.21093713  1
  O  O325  1  0.82840194  0.74046063  0.77344361  1
  O  O326  1  0.40962151  0.57242319  0.48851092  1
  O  O327  1  0.38895222  0.47646661  0.99617431  1
  O  O328  1  0.38718133  1.01059802  0.51742559  1
  O  O329  1  0.42189995  1.01245220  1.00970595  1
  O  O330  1  0.83297440  0.53766579  0.42820755  1
  O  O331  1  0.93909115  0.39841181  1.00668757  1
  O  O332  1  0.80495399  1.01785691  0.57285689  1
  O  O333  1  0.94299780  0.94652599  0.97204264  1
  O  O334  1  0.12187435  -0.02875118  -0.01134856  1
  O  O335  1  0.09772163  0.02669058  0.54670388  1
  O  O336  1  0.04395180  0.52512282  0.03049687  1
  O  O337  1  0.07718401  0.50118391  0.49772222  1
  O  O338  1  0.58445563  0.04503092  0.04168721  1
  O  O339  1  0.63898341  -0.00197342  0.50107228  1
  O  O340  1  0.60552886  0.48088626  0.02120991  1
  O  O341  1  0.69088540  0.52198127  0.52543794  1
  O  O342  1  0.36233003  0.33312267  0.13919087  1
  O  O343  1  0.34683580  0.38858839  0.59004619  1
  O  O344  1  0.36792614  0.91521434  0.12388176  1
  O  O345  1  0.46812492  0.86966263  0.55118521  1
  O  O346  1  0.82326199  0.38630062  0.14915927  1
  O  O347  1  0.82663654  0.43361585  0.61150170  1
  O  O348  1  0.89839389  0.83288159  0.11213894  1
  O  O349  1  0.79483081  0.94826961  0.68032697  1
  O  O350  1  0.12403703  0.08794958  0.40859159  1
  O  O351  1  0.13584072  0.17817000  0.86452217  1
  O  O352  1  0.16902413  0.66177217  0.33227479  1
  O  O353  1  0.17743774  0.69644410  0.85778444  1
  O  O354  1  0.65821104  0.07733775  0.36247347  1
  O  O355  1  0.63582185  0.17288971  0.83280520  1
  O  O356  1  0.56968447  0.56336762  0.40503806  1
  O  O357  1  0.58744301  0.61571527  0.88598444  1
