# generated using pymatgen
data_V51Zn51O256
_symmetry_space_group_name_H-M   'P 1'
_cell_length_a   17.81927722
_cell_length_b   17.47154303
_cell_length_c   17.31624313
_cell_angle_alpha   91.29861414
_cell_angle_beta   89.15732146
_cell_angle_gamma   90.59912790
_symmetry_Int_Tables_number   1
_chemical_formula_structural   V51Zn51O256
_chemical_formula_sum   'V51 Zn51 O256'
_cell_volume   5388.82671150
_cell_formula_units_Z   1
loop_
 _symmetry_equiv_pos_site_id
 _symmetry_equiv_pos_as_xyz
  1  'x, y, z'
loop_
 _atom_site_type_symbol
 _atom_site_label
 _atom_site_symmetry_multiplicity
 _atom_site_fract_x
 _atom_site_fract_y
 _atom_site_fract_z
 _atom_site_occupancy
  V  V0  1  0.75386447  0.09906852  0.85971408  1
  V  V1  1  0.75180682  0.36574390  0.68148063  1
  V  V2  1  0.39157976  0.14194247  0.25882911  1
  V  V3  1  0.48327987  0.37434294  0.40387447  1
  V  V4  1  0.28179239  0.72755890  0.42453152  1
  V  V5  1  0.13659151  0.27887660  0.36629668  1
  V  V6  1  0.67921871  0.51981992  0.78774210  1
  V  V7  1  0.07471441  0.70369174  0.01578904  1
  V  V8  1  0.56914093  0.91370058  0.23506848  1
  V  V9  1  0.40889352  0.72894869  0.00227267  1
  V  V10  1  0.80051772  0.39618165  0.11145414  1
  V  V11  1  0.91529770  -0.01199500  0.87089003  1
  V  V12  1  0.01752565  0.86217043  0.82363359  1
  V  V13  1  0.06018994  0.12329368  0.60698321  1
  V  V14  1  -0.03039494  0.43466709  0.02688564  1
  V  V15  1  0.15891909  0.20914759  0.90444091  1
  V  V16  1  0.10278516  0.48670816  0.11541241  1
  V  V17  1  0.38676879  0.58661636  0.72599537  1
  V  V18  1  0.43308039  0.12420927  0.63855610  1
  V  V19  1  0.86732898  0.49157977  0.39323989  1
  V  V20  1  0.77578669  0.59800426  0.91786520  1
  V  V21  1  0.48147420  0.85026802  0.40118386  1
  V  V22  1  0.08937454  0.46987944  0.60086294  1
  V  V23  1  0.25057860  0.30769700  0.51438491  1
  V  V24  1  0.65321074  0.12758313  0.52098451  1
  V  V25  1  0.62120292  0.80860267  0.88200151  1
  V  V26  1  -0.02567626  0.24569089  0.71424598  1
  V  V27  1  0.22791722  -0.00398257  0.25915546  1
  V  V28  1  0.00525808  0.31673386  0.90008956  1
  V  V29  1  0.64634201  -0.03598725  0.60813853  1
  V  V30  1  0.51330311  0.26585261  0.75000874  1
  V  V31  1  0.62630202  0.23816184  0.90401145  1
  V  V32  1  -0.03601767  0.68559865  0.17574045  1
  V  V33  1  0.00294672  0.25524645  0.24365570  1
  V  V34  1  0.24516266  0.60516836  0.17590089  1
  V  V35  1  0.85597006  0.69640646  0.62550436  1
  V  V36  1  0.22064508  0.11946897  0.38352347  1
  V  V37  1  0.11993920  0.62084370  0.47885468  1
  V  V38  1  0.59916708  0.33241512  0.25804747  1
  V  V39  1  0.54614056  0.49265156  0.51993096  1
  V  V40  1  0.32741488  0.22160516  0.09929700  1
  V  V41  1  0.66203673  0.24937078  0.40024713  1
  V  V42  1  0.86817998  0.44863665  0.88685667  1
  V  V43  1  0.39422850  -0.01284667  0.89713126  1
  V  V44  1  0.17247032  0.40294522  0.75760353  1
  V  V45  1  0.38709730  0.78922956  0.64427250  1
  V  V46  1  0.79553482  -0.01695707  0.71957205  1
  V  V47  1  0.70448787  0.90265297  0.12025781  1
  V  V48  1  0.10788173  0.08599740  0.04051260  1
  V  V49  1  0.23614526  0.63536237  0.82420918  1
  V  V50  1  0.40751357  0.01983772  0.37951314  1
  Zn  Zn51  1  0.25385431  -0.01679274  0.05512591  1
  Zn  Zn52  1  0.28765963  0.91273614  0.40262199  1
  Zn  Zn53  1  0.32172570  0.79620725  0.84051401  1
  Zn  Zn54  1  0.48029859  0.93713898  0.69427443  1
  Zn  Zn55  1  0.96097058  0.67239401  0.87692603  1
  Zn  Zn56  1  0.58349312  0.96149683  0.43529013  1
  Zn  Zn57  1  0.92816551  0.14229884  0.94656120  1
  Zn  Zn58  1  0.78465735  0.60051488  0.12218276  1
  Zn  Zn59  1  0.04452692  0.55964334  0.30671938  1
  Zn  Zn60  1  0.68702256  0.67658823  0.73480474  1
  Zn  Zn61  1  0.93579943  0.89106998  0.19024388  1
  Zn  Zn62  1  0.28583057  0.79468597  0.24757522  1
  Zn  Zn63  1  0.67646997  0.73094299  0.16194120  1
  Zn  Zn64  1  0.37889218  0.94063333  0.18603135  1
  Zn  Zn65  1  0.56963538  0.78842631  0.61878869  1
  Zn  Zn66  1  0.12394361  0.28206623  0.09340194  1
  Zn  Zn67  1  0.54120835  0.27979109  0.54289662  1
  Zn  Zn68  1  0.03746099  0.06211058  0.22011874  1
  Zn  Zn69  1  0.23079946  0.66834671  0.63376065  1
  Zn  Zn70  1  0.51473062  0.45400036  0.72642575  1
  Zn  Zn71  1  0.80715674  0.26480956  0.80659551  1
  Zn  Zn72  1  0.82040691  0.30795813  0.29584516  1
  Zn  Zn73  1  0.72440854  0.38698581  0.93369395  1
  Zn  Zn74  1  0.67646675  0.17137770  0.71679182  1
  Zn  Zn75  1  0.51618917  0.91209169  0.04477436  1
  Zn  Zn76  1  0.97250325  1.00600795  0.05567375  1
  Zn  Zn77  1  0.54320250  0.61112565  0.63974220  1
  Zn  Zn78  1  0.10130691  0.52664931  0.91042055  1
  Zn  Zn79  1  0.04351933  0.73284808  0.56596291  1
  Zn  Zn80  1  0.31983430  0.30666643  0.82126895  1
  Zn  Zn81  1  0.41901770  0.19472021  0.45995340  1
  Zn  Zn82  1  0.93978622  0.41729992  0.72562096  1
  Zn  Zn83  1  0.79393629  0.02150662  -0.00405552  1
  Zn  Zn84  1  0.93897863  0.86161444  0.65935836  1
  Zn  Zn85  1  0.56621207  0.10463680  0.32124380  1
  Zn  Zn86  1  0.48351441  0.74576766  0.78409984  1
  Zn  Zn87  1  1.02227045  0.15158257  0.40167913  1
  Zn  Zn88  1  0.65874789  0.44889346  0.38603864  1
  Zn  Zn89  1  0.15507748  0.45293649  0.44209352  1
  Zn  Zn90  1  0.04203837  0.08485345  0.80503898  1
  Zn  Zn91  1  0.11600870  0.88544464  -0.01683121  1
  Zn  Zn92  1  0.18545594  0.24333569  0.66074151  1
  Zn  Zn93  1  0.42560991  0.19664543  0.91720194  1
  Zn  Zn94  1  0.23180070  0.61858979  0.00545222  1
  Zn  Zn95  1  0.32674180  0.29357989  0.36498132  1
  Zn  Zn96  1  0.65307060  0.29248476  0.07426707  1
  Zn  Zn97  1  0.31371498  0.07012802  0.54184113  1
  Zn  Zn98  1  0.24349958  0.79270659  0.08862406  1
  Zn  Zn99  1  0.18592271  0.17245677  0.20642687  1
  Zn  Zn100  1  0.05069686  0.28500313  0.52353874  1
  Zn  Zn101  1  0.45363575  0.68029886  0.49300097  1
  O  O102  1  0.11202848  0.10560962  0.14052076  1
  O  O103  1  0.15410778  0.14993426  0.61739910  1
  O  O104  1  0.03590880  0.66400263  0.10217983  1
  O  O105  1  0.13801206  0.68146025  0.57660475  1
  O  O106  1  0.66538475  0.14303858  0.17081884  1
  O  O107  1  0.63762125  0.13653469  0.62013966  1
  O  O108  1  0.69267974  0.63013367  0.17626399  1
  O  O109  1  0.61166527  0.69560432  0.65906843  1
  O  O110  1  0.38947870  0.38338302  0.38983686  1
  O  O111  1  0.31075199  0.43746232  0.96896303  1
  O  O112  1  0.40214747  0.90488923  0.36725614  1
  O  O113  1  0.35222748  0.89421138  0.87958296  1
  O  O114  1  0.86296171  0.38959414  0.36523446  1
  O  O115  1  0.82095673  0.35704713  0.87565860  1
  O  O116  1  0.90043433  0.90916604  0.30503638  1
  O  O117  1  0.91227713  0.89151584  0.84026475  1
  O  O118  1  0.24101768  0.01470470  0.37108749  1
  O  O119  1  0.31772983  0.03679665  0.86224850  1
  O  O120  1  0.22958402  0.59991805  0.28552664  1
  O  O121  1  0.19818040  0.58175572  0.90352659  1
  O  O122  1  0.69776063  -0.06773480  0.39504249  1
  O  O123  1  0.81983518  0.00644109  0.83311662  1
  O  O124  1  0.76897295  0.46375235  0.40101874  1
  O  O125  1  0.76646508  0.49332402  0.90179610  1
  O  O126  1  0.18912813  0.55744528  0.09521905  1
  O  O127  1  0.31492071  0.50608992  0.54835283  1
  O  O128  1  0.27349508  0.99229804  0.16593515  1
  O  O129  1  0.17974697  0.93838297  0.57090746  1
  O  O130  1  0.79539602  0.49058856  0.12930946  1
  O  O131  1  0.68976365  0.56574769  0.70388035  1
  O  O132  1  0.77057714  0.96214093  0.19180906  1
  O  O133  1  0.73969279  0.99199769  0.62979656  1
  O  O134  1  0.01671450  0.34558093  0.27368447  1
  O  O135  1  -0.01015305  0.32383300  0.77972540  1
  O  O136  1  0.01953180  0.81703876  0.34504542  1
  O  O137  1  0.03120331  0.87007897  0.72621327  1
  O  O138  1  0.51078395  0.35256726  0.30115969  1
  O  O139  1  0.51012181  0.36017383  0.78269151  1
  O  O140  1  0.47845336  0.89033786  0.21908514  1
  O  O141  1  0.50830679  0.82890274  0.70508371  1
  O  O142  1  0.48679543  0.14494369  0.25625508  1
  O  O143  1  0.46107705  0.17052557  0.72367928  1
  O  O144  1  0.65463738  0.58784195  0.33092830  1
  O  O145  1  0.47244730  0.64105142  0.73169309  1
  O  O146  1  1.00416326  0.14374201  0.29079813  1
  O  O147  1  1.02561756  0.15442200  0.70991451  1
  O  O148  1  0.99680732  0.64861862  0.25985865  1
  O  O149  1  1.04240848  0.61460410  0.72320858  1
  O  O150  1  0.35678972  0.20189817  0.00436790  1
  O  O151  1  0.33235293  0.26246898  0.47670593  1
  O  O152  1  0.41386543  0.74505709  -0.10180018  1
  O  O153  1  0.34744578  0.67638351  0.47151401  1
  O  O154  1  0.87247018  0.20170567  0.10020028  1
  O  O155  1  0.85020422  0.21136626  0.56072947  1
  O  O156  1  0.85025994  0.76891418  0.01140108  1
  O  O157  1  0.79932839  0.68884444  0.54758365  1
  O  O158  1  0.16164747  0.26836497  0.48883345  1
  O  O159  1  0.13385348  0.19913769  1.00343475  1
  O  O160  1  0.04500313  0.67571163  0.45951711  1
  O  O161  1  0.04367877  0.79404756  1.00980021  1
  O  O162  1  0.64175819  0.23542159  0.50889525  1
  O  O163  1  0.66389691  0.21793956  0.99487224  1
  O  O164  1  0.68829171  0.75514306  0.41953634  1
  O  O165  1  0.58545855  0.84724881  0.97043683  1
  O  O166  1  0.51865833  0.16004391  0.08146346  1
  O  O167  1  0.53301779  0.28309525  0.65531497  1
  O  O168  1  0.48426671  0.67072893  -0.01227039  1
  O  O169  1  0.46277631  0.74442036  0.58842483  1
  O  O170  1  1.03119402  0.25073950  0.14710836  1
  O  O171  1  0.98987838  0.27834369  0.62274814  1
  O  O172  1  0.95329747  0.78460545  0.18378765  1
  O  O173  1  0.93595644  0.67544263  0.56636832  1
  O  O174  1  0.04347664  0.26560214  0.40815414  1
  O  O175  1  -0.05887458  0.24607829  0.90813765  1
  O  O176  1  0.08093436  0.78902181  0.35522915  1
  O  O177  1  -0.01225151  0.76791207  0.83805061  1
  O  O178  1  0.49344953  0.27434779  0.43571354  1
  O  O179  1  0.53480588  0.21322157  0.92385742  1
  O  O180  1  0.47436034  0.75345404  0.40772093  1
  O  O181  1  0.54140507  0.84964555  0.83624465  1
  O  O182  1  0.24835126  0.12554802  0.47715784  1
  O  O183  1  0.19884629  0.06667172  1.00961882  1
  O  O184  1  0.19688639  0.67259629  0.43258565  1
  O  O185  1  0.17254808  0.71178718  1.02551928  1
  O  O186  1  0.74219662  0.11511005  0.50619565  1
  O  O187  1  0.81762739  0.11461732  0.94663999  1
  O  O188  1  0.65291082  0.71147089  0.46140425  1
  O  O189  1  0.75477982  0.61888597  1.01031046  1
  O  O190  1  0.32398046  0.43509378  0.03833101  1
  O  O191  1  0.24805974  0.39739413  0.47692189  1
  O  O192  1  0.20812036  0.88362649  0.04032219  1
  O  O193  1  0.27104297  0.82149563  0.45814456  1
  O  O194  1  0.72670300  0.37141624  0.04533090  1
  O  O195  1  0.73123031  0.35927508  0.57212071  1
  O  O196  1  0.72812718  0.95388432  0.03938562  1
  O  O197  1  0.83505274  0.85570360  0.43849458  1
  O  O198  1  0.08954397  0.51799518  0.20872628  1
  O  O199  1  0.11701126  0.44959508  0.82657817  1
  O  O200  1  0.13410887  0.99818114  0.24873183  1
  O  O201  1  0.14708287  0.99975034  0.74799647  1
  O  O202  1  0.65568929  0.41017340  0.27893382  1
  O  O203  1  0.58583993  0.51002626  0.80050853  1
  O  O204  1  0.58181150  1.00872310  0.25706942  1
  O  O205  1  0.58799383  0.97579317  0.68507006  1
  O  O206  1  0.38436710  0.02402855  0.27576127  1
  O  O207  1  0.43716917  -0.03553465  0.80599358  1
  O  O208  1  0.33134074  0.58204401  0.15406433  1
  O  O209  1  0.41134482  0.49252266  0.71972170  1
  O  O210  1  0.94128997  -0.03060444  0.33333487  1
  O  O211  1  0.88330899  -0.04371969  0.68374925  1
  O  O212  1  0.86827226  0.52137360  0.29354754  1
  O  O213  1  0.88772951  0.48709787  0.80055951  1
  O  O214  1  0.15079316  0.37356779  0.35828432  1
  O  O215  1  0.09807651  0.28653070  0.88106200  1
  O  O216  1  0.10053274  0.94226904  0.42515122  1
  O  O217  1  0.10160128  0.86879925  0.87465061  1
  O  O218  1  0.63096386  0.34248393  0.41299465  1
  O  O219  1  0.63258121  0.33690626  0.90392632  1
  O  O220  1  0.56267702  0.88425120  0.34576829  1
  O  O221  1  0.67576651  0.88761776  0.86852034  1
  O  O222  1  0.36319946  0.14230597  0.15873279  1
  O  O223  1  0.33444073  0.12491100  0.63284976  1
  O  O224  1  0.34204749  0.65126298  -0.00757692  1
  O  O225  1  0.33100530  0.61005386  0.65088068  1
  O  O226  1  0.86549546  0.09989616  0.25706905  1
  O  O227  1  0.86859793  0.14885725  0.58271060  1
  O  O228  1  0.88139416  0.64558977  0.14719550  1
  O  O229  1  0.85364143  0.60471362  0.66047096  1
  O  O230  1  0.22730564  0.23562220  0.12359492  1
  O  O231  1  0.25757544  0.30983558  0.61315633  1
  O  O232  1  0.32087316  0.78015359  0.00186841  1
  O  O233  1  0.29912368  0.75926182  0.61849565  1
  O  O234  1  0.80630810  0.18438193  0.11110122  1
  O  O235  1  0.73859069  0.27232552  0.71108394  1
  O  O236  1  0.71165892  0.80739801  0.09490376  1
  O  O237  1  0.78722838  0.70722367  0.70432262  1
  O  O238  1  0.23013767  0.23067823  0.36166846  1
  O  O239  1  0.24647513  0.23992223  0.87886342  1
  O  O240  1  0.30737787  0.72948021  0.32842921  1
  O  O241  1  0.23936738  0.73071993  0.85161404  1
  O  O242  1  0.75513621  0.25786774  0.37619258  1
  O  O243  1  0.72700518  0.20165234  0.85644841  1
  O  O244  1  0.89290567  0.81889154  0.43125223  1
  O  O245  1  0.67802187  0.75556044  0.93944708  1
  O  O246  1  0.00929225  0.11001858  0.01166731  1
  O  O247  1  0.02332503  0.15642129  0.51849334  1
  O  O248  1  0.04679447  0.64121520  -0.06297074  1
  O  O249  1  0.05708237  0.55645266  0.55567415  1
  O  O250  1  0.54655428  0.10010360  0.05728858  1
  O  O251  1  0.46993842  0.16442785  0.55217732  1
  O  O252  1  0.46495327  0.51559614  -0.06530039  1
  O  O253  1  0.50799690  0.58911449  0.52101013  1
  O  O254  1  0.50688846  0.39369772  0.51800783  1
  O  O255  1  0.46858085  0.36524153  1.01450014  1
  O  O256  1  0.50577136  0.88593602  0.48814119  1
  O  O257  1  0.45402597  0.81693690  1.02194583  1
  O  O258  1  1.08125624  0.39799014  0.53019094  1
  O  O259  1  1.02126203  0.34383793  1.00125255  1
  O  O260  1  1.04574436  0.91962708  0.46215150  1
  O  O261  1  0.84571589  0.81027270  0.95562895  1
  O  O262  1  0.51860568  0.47055566  0.40559419  1
  O  O263  1  0.45165718  0.35516080  0.94662337  1
  O  O264  1  0.50196714  1.03367735  0.39476336  1
  O  O265  1  0.47942597  0.96037122  0.94936000  1
  O  O266  1  0.96629824  0.50376970  0.37026029  1
  O  O267  1  0.96618204  0.41125390  0.89522860  1
  O  O268  1  0.92946759  0.98911433  0.40422054  1
  O  O269  1  1.01607876  0.97864606  0.84654686  1
  O  O270  1  -0.03181520  -0.00910217  0.16476663  1
  O  O271  1  0.05712190  0.03030524  0.60572274  1
  O  O272  1  -0.00764846  0.46004645  0.11986621  1
  O  O273  1  0.01483056  0.45856534  0.66180798  1
  O  O274  1  0.44464377  -0.03063461  0.10113289  1
  O  O275  1  0.45439341  0.03039986  0.64424011  1
  O  O276  1  0.58829588  0.50258778  0.09578428  1
  O  O277  1  0.55157585  0.49732555  0.62671327  1
  O  O278  1  0.23230402  0.52779021  0.25631997  1
  O  O279  1  0.26334685  0.39181866  0.79073717  1
  O  O280  1  0.25115897  0.89923074  0.28954619  1
  O  O281  1  0.22617819  0.87151179  0.76523889  1
  O  O282  1  0.78806611  0.34505863  0.19400195  1
  O  O283  1  0.71517908  0.42523839  0.76066462  1
  O  O284  1  0.67612509  0.87215090  0.23458892  1
  O  O285  1  0.75669772  0.90201523  0.74253781  1
  O  O286  1  0.24753771  0.10792061  0.27126376  1
  O  O287  1  0.19970104  0.02798258  0.71161491  1
  O  O288  1  0.24224983  0.70859284  0.17178220  1
  O  O289  1  0.19445049  0.62848867  0.73758479  1
  O  O290  1  0.80373405  0.10577229  0.22860732  1
  O  O291  1  0.74593312  0.08817173  0.75345560  1
  O  O292  1  0.78385840  0.78631444  0.30199318  1
  O  O293  1  0.70661350  0.61306018  0.84522104  1
  O  O294  1  0.38192163  0.12332495  0.37784735  1
  O  O295  1  0.43495802  0.08100826  0.90198253  1
  O  O296  1  0.37593380  0.54554825  0.32863570  1
  O  O297  1  0.33138934  0.60468809  0.81323295  1
  O  O298  1  0.77926656  0.02222966  0.35869856  1
  O  O299  1  0.93943910  0.09031042  0.84407381  1
  O  O300  1  0.83599589  0.58230708  0.42068352  1
  O  O301  1  0.85894319  0.63798649  0.88891779  1
  O  O302  1  0.13738205  0.39681432  0.11303856  1
  O  O303  1  0.16613143  0.45543064  0.66971261  1
  O  O304  1  0.08907426  0.86387310  0.19565903  1
  O  O305  1  -0.00006244  0.82895004  0.57059497  1
  O  O306  1  0.59401774  0.31735383  0.15932764  1
  O  O307  1  0.68009190  0.40365382  0.61019672  1
  O  O308  1  0.59939397  0.91841198  0.12203431  1
  O  O309  1  0.63966460  0.86793854  0.58443178  1
  O  O310  1  0.11772645  0.23928080  0.27194267  1
  O  O311  1  0.13987864  0.31100682  0.73368453  1
  O  O312  1  0.12817025  0.80674402  0.20380071  1
  O  O313  1  0.25762892  0.89906178  0.70829353  1
  O  O314  1  0.62701197  0.24347484  0.29735593  1
  O  O315  1  0.59785881  0.22421588  0.78564802  1
  O  O316  1  0.62486976  0.80726777  0.23242831  1
  O  O317  1  0.66867007  0.77537994  0.79610708  1
  O  O318  1  0.36619765  0.23396338  0.28126458  1
  O  O319  1  0.41294564  0.25799812  0.82430495  1
  O  O320  1  0.41305056  0.71484965  0.09985032  1
  O  O321  1  0.38108801  0.77110308  0.75097133  1
  O  O322  1  0.90412963  0.25227796  0.25561108  1
  O  O323  1  0.88403963  0.22151697  0.73636772  1
  O  O324  1  0.84188942  0.74937649  0.30462330  1
  O  O325  1  0.93188292  0.74099022  0.68697817  1
  O  O326  1  0.35095542  0.53782160  0.39399607  1
  O  O327  1  0.46168147  0.50918543  1.00535771  1
  O  O328  1  0.35664588  1.00092456  0.46751900  1
  O  O329  1  0.34766238  0.98557689  0.98999873  1
  O  O330  1  0.89932342  0.47780906  0.48668023  1
  O  O331  1  0.89881892  0.49796551  0.97793101  1
  O  O332  1  0.75411794  0.98021955  0.41220165  1
  O  O333  1  0.90031197  0.98274385  0.97442912  1
  O  O334  1  0.08009119  -0.01531941  0.03125460  1
  O  O335  1  0.14761448  -0.12157592  0.58619335  1
  O  O336  1  0.06326178  0.49394723  0.00905312  1
  O  O337  1  0.16876063  0.53113863  0.53558313  1
  O  O338  1  0.67801860  0.08734702  0.12814370  1
  O  O339  1  0.61735094  0.02021895  0.52311993  1
  O  O340  1  0.61749636  0.51323711  0.03217717  1
  O  O341  1  0.63646159  0.49736526  0.48779964  1
  O  O342  1  0.37123149  0.30026544  0.12459812  1
  O  O343  1  0.36703179  0.46447692  0.56214555  1
  O  O344  1  0.32517604  0.84361057  0.15892872  1
  O  O345  1  0.38984102  0.88555242  0.63415961  1
  O  O346  1  0.88669958  0.37601494  0.06084768  1
  O  O347  1  0.84537342  0.38393861  0.67686529  1
  O  O348  1  0.81334484  0.90444308  0.16087655  1
  O  O349  1  0.84346626  0.80279337  0.61390207  1
  O  O350  1  0.12693268  0.11433679  0.38775874  1
  O  O351  1  0.13027844  0.13051138  0.85163232  1
  O  O352  1  0.11017365  0.54793202  0.39771493  1
  O  O353  1  0.00333980  0.59430844  0.77956681  1
  O  O354  1  0.62664884  0.14158078  0.40549027  1
  O  O355  1  0.67990777  0.06035548  0.89995978  1
  O  O356  1  0.70354928  0.62397887  0.29540256  1
  O  O357  1  0.56240548  0.72182425  0.86285141  1
