# generated using pymatgen
data_V51Zn51O256
_symmetry_space_group_name_H-M   'P 1'
_cell_length_a   17.22608437
_cell_length_b   17.70687945
_cell_length_c   17.69393350
_cell_angle_alpha   89.32943203
_cell_angle_beta   88.94373314
_cell_angle_gamma   89.40386575
_symmetry_Int_Tables_number   1
_chemical_formula_structural   V51Zn51O256
_chemical_formula_sum   'V51 Zn51 O256'
_cell_volume   5395.44027652
_cell_formula_units_Z   1
loop_
 _symmetry_equiv_pos_site_id
 _symmetry_equiv_pos_as_xyz
  1  'x, y, z'
loop_
 _atom_site_type_symbol
 _atom_site_label
 _atom_site_symmetry_multiplicity
 _atom_site_fract_x
 _atom_site_fract_y
 _atom_site_fract_z
 _atom_site_occupancy
  V  V0  1  -0.02653162  -0.02233786  0.53942226  1
  V  V1  1  0.01008837  0.01861723  0.01975828  1
  V  V2  1  0.71093035  0.47812580  0.31249253  1
  V  V3  1  0.50894395  0.10192811  0.63825397  1
  V  V4  1  0.35724980  0.76885321  0.12624613  1
  V  V5  1  0.47956549  0.05151229  0.09569827  1
  V  V6  1  0.89391946  0.01029660  0.89813803  1
  V  V7  1  0.52717999  0.74906857  0.74859273  1
  V  V8  1  0.28011585  -0.05609357  0.40400429  1
  V  V9  1  0.15813870  0.56182600  0.00232396  1
  V  V10  1  0.86671348  0.52723737  0.38696722  1
  V  V11  1  0.36399821  0.63464029  0.23866596  1
  V  V12  1  0.85179585  0.65541165  0.27649705  1
  V  V13  1  0.54761747  0.86867532  0.87806409  1
  V  V14  1  0.25594047  0.63134852  0.86430726  1
  V  V15  1  0.87725867  0.29671929  0.48557094  1
  V  V16  1  0.50946284  0.29066057  0.21533010  1
  V  V17  1  0.86459232  0.11486283  0.75799360  1
  V  V18  1  0.37204036  0.09868318  0.75875663  1
  V  V19  1  0.16340951  0.90025913  0.78455595  1
  V  V20  1  0.28255168  0.23935364  -0.02227605  1
  V  V21  1  0.74969121  0.12457113  0.89747436  1
  V  V22  1  0.61083790  0.52259238  0.13877597  1
  V  V23  1  0.64450231  -0.00926002  0.66746866  1
  V  V24  1  0.02381318  0.23297768  0.29176763  1
  V  V25  1  -0.00800585  0.53090101  0.51651723  1
  V  V26  1  0.59950961  0.75227443  0.41244437  1
  V  V27  1  -0.03316004  0.71556201  0.76855608  1
  V  V28  1  0.21499703  -0.01306363  0.24465766  1
  V  V29  1  0.09306233  0.76231220  0.31039636  1
  V  V30  1  0.11938301  0.16983497  -0.01477074  1
  V  V31  1  0.19702864  0.78199273  0.02895910  1
  V  V32  1  0.62408941  0.35699745  0.75464562  1
  V  V33  1  0.55473768  0.52669768  -0.03006668  1
  V  V34  1  0.26362777  0.35085945  0.11126526  1
  V  V35  1  0.73406243  0.03567294  0.22382635  1
  V  V36  1  0.90875606  0.22403445  0.64111951  1
  V  V37  1  0.62431676  0.23719178  0.88380847  1
  V  V38  1  0.33962843  0.00459733  0.90430533  1
  V  V39  1  0.13646586  0.37737587  0.75055136  1
  V  V40  1  0.87229908  0.00822159  0.33715099  1
  V  V41  1  0.03293703  0.57345505  0.10758627  1
  V  V42  1  0.38300092  0.80916561  0.61704151  1
  V  V43  1  0.00051569  0.18452057  0.11400933  1
  V  V44  1  0.23373999  0.64895373  0.37896385  1
  V  V45  1  0.74394037  0.32988447  0.62599264  1
  V  V46  1  0.49804189  0.76478233  0.25533508  1
  V  V47  1  0.12074022  0.68309019  0.54649154  1
  V  V48  1  0.85413452  0.27342130  0.13386971  1
  V  V49  1  0.36997369  0.51564517  0.37298817  1
  V  V50  1  0.69500206  0.11457028  0.38627187  1
  Zn  Zn51  1  0.88791828  0.15729761  0.98390350  1
  Zn  Zn52  1  0.45220418  0.15415698  0.94224057  1
  Zn  Zn53  1  0.29146966  0.08534066  0.08170859  1
  Zn  Zn54  1  0.50882882  0.11867988  0.44898764  1
  Zn  Zn55  1  0.06535850  0.54151807  0.83846696  1
  Zn  Zn56  1  0.77874534  0.45094246  0.51117938  1
  Zn  Zn57  1  0.78831375  0.82331633  0.36291946  1
  Zn  Zn58  1  0.88309679  0.43505360  0.64878031  1
  Zn  Zn59  1  0.50715951  0.74935670  0.03429829  1
  Zn  Zn60  1  0.96390422  0.42284985  0.23505265  1
  Zn  Zn61  1  0.16560109  0.49778411  0.41920595  1
  Zn  Zn62  1  0.27727529  0.22798683  0.77686036  1
  Zn  Zn63  1  0.27380897  0.81210693  0.29034758  1
  Zn  Zn64  1  0.49772100  0.22835738  0.76554711  1
  Zn  Zn65  1  0.18830878  0.66275368  0.17924801  1
  Zn  Zn66  1  0.03485497  0.60953316  0.33962274  1
  Zn  Zn67  1  0.02349227  0.04759610  0.22719916  1
  Zn  Zn68  1  0.39172302  0.00338347  0.56680100  1
  Zn  Zn69  1  0.16335077  0.25452680  0.17551435  1
  Zn  Zn70  1  0.39596691  0.77197915  0.41889839  1
  Zn  Zn71  1  0.79112217  0.54117750  0.17298349  1
  Zn  Zn72  1  0.95437540  0.13541776  0.45841464  1
  Zn  Zn73  1  0.80076239  0.27866067  0.79150706  1
  Zn  Zn74  1  0.71073597  0.94530565  0.84511967  1
  Zn  Zn75  1  0.46560021  0.65681449  0.86069064  1
  Zn  Zn76  1  0.60021127  0.35304707  0.03812577  1
  Zn  Zn77  1  0.56604186  0.05666282  0.82313662  1
  Zn  Zn78  1  1.05891522  0.67931685  0.94454822  1
  Zn  Zn79  1  0.59282788  0.55785718  0.76977759  1
  Zn  Zn80  1  0.77671200  0.28604378  0.32096544  1
  Zn  Zn81  1  0.30008201  0.83756767  0.87762224  1
  Zn  Zn82  1  0.04700057  0.32819050  0.57273979  1
  Zn  Zn83  1  0.78386289  1.03591059  0.53471251  1
  Zn  Zn84  1  0.68463824  0.16777129  0.69370674  1
  Zn  Zn85  1  0.45670345  0.89767903  0.15829296  1
  Zn  Zn86  1  0.62473985  0.80104950  0.60085370  1
  Zn  Zn87  1  0.45283144  0.93658921  0.72408451  1
  Zn  Zn88  1  0.09915871  0.05055441  0.84452596  1
  Zn  Zn89  1  0.20529192  0.74609788  0.70457003  1
  Zn  Zn90  1  0.06931697  0.94454804  0.36657614  1
  Zn  Zn91  1  0.16613505  0.94998375  0.96300431  1
  Zn  Zn92  1  0.91971476  0.69994060  0.41671566  1
  Zn  Zn93  1  0.54093389  0.59216952  0.34529504  1
  Zn  Zn94  1  0.56836578  0.10049055  0.26208758  1
  Zn  Zn95  1  0.93905932  0.93291141  0.72306742  1
  Zn  Zn96  1  0.41467478  0.46338607  0.18460465  1
  Zn  Zn97  1  0.53457903  0.30455466  0.61478840  1
  Zn  Zn98  1  0.86744079  1.06209984  0.12552022  1
  Zn  Zn99  1  0.05575770  0.83503447  0.63010373  1
  Zn  Zn100  1  0.35407670  0.63860416  0.00240693  1
  Zn  Zn101  1  0.86373741  0.82273081  0.85605859  1
  O  O102  1  0.10298424  0.18497566  0.10991630  1
  O  O103  1  0.21163363  0.13932153  0.47519020  1
  O  O104  1  0.14221819  0.58886234  0.10839820  1
  O  O105  1  0.16574969  0.67327766  0.62978854  1
  O  O106  1  0.54046281  0.04808903  0.17336614  1
  O  O107  1  0.61769571  0.09793181  0.64026089  1
  O  O108  1  0.61353840  0.60755585  0.17480369  1
  O  O109  1  0.60489040  0.57571532  0.53542535  1
  O  O110  1  0.37454607  0.42561412  0.39109931  1
  O  O111  1  0.37776810  0.39031143  0.73590085  1
  O  O112  1  0.32438308  0.85499299  0.37970612  1
  O  O113  1  0.37355800  0.91078359  0.90603674  1
  O  O114  1  0.86561603  0.29073398  0.39187585  1
  O  O115  1  0.88387899  0.43292535  0.76470363  1
  O  O116  1  0.84011738  0.91888318  0.36107576  1
  O  O117  1  0.88526020  0.91452702  0.90362317  1
  O  O118  1  0.18363334  -0.06560476  0.41821601  1
  O  O119  1  0.23891335  0.00185060  0.89231153  1
  O  O120  1  0.27271215  0.54812661  0.40695427  1
  O  O121  1  0.26841768  0.55437718  0.81644052  1
  O  O122  1  0.74984261  0.04217825  0.34265790  1
  O  O123  1  0.77651267  0.01895418  0.88969049  1
  O  O124  1  0.76617546  0.48946771  0.41061241  1
  O  O125  1  0.76156182  0.54349345  0.76603436  1
  O  O126  1  0.38773473  0.40476429  -0.06865933  1
  O  O127  1  0.26900682  0.41741650  0.62559977  1
  O  O128  1  0.23418762  1.03716483  0.16437953  1
  O  O129  1  0.23117173  1.01717727  0.61789649  1
  O  O130  1  0.69457713  0.48912479  0.20441686  1
  O  O131  1  0.77527987  0.43638623  0.61808991  1
  O  O132  1  0.76030938  1.03768447  0.12663147  1
  O  O133  1  0.73580451  1.01690153  0.63276605  1
  O  O134  1  -0.01510505  0.32059022  0.27155901  1
  O  O135  1  0.06053234  0.33595334  0.79553640  1
  O  O136  1  -0.05120142  0.80605939  0.17567810  1
  O  O137  1  -0.04080287  0.83171827  0.78759131  1
  O  O138  1  0.47096714  0.37884819  0.24841545  1
  O  O139  1  0.52687814  0.33014905  0.72303984  1
  O  O140  1  0.46584078  0.86110452  0.25696630  1
  O  O141  1  0.50706543  0.85556860  0.77653285  1
  O  O142  1  0.52657939  0.19309929  0.20197819  1
  O  O143  1  0.50144060  0.11245595  0.75011816  1
  O  O144  1  0.46277252  0.65986274  0.27207534  1
  O  O145  1  0.51513943  0.64195168  0.75998829  1
  O  O146  1  0.99303314  0.16265576  0.22063108  1
  O  O147  1  1.12513454  0.13587172  0.66761795  1
  O  O148  1  0.94667476  0.62452595  0.27177926  1
  O  O149  1  0.98937587  0.62292452  0.81329480  1
  O  O150  1  0.37696029  0.21980865  -0.00638507  1
  O  O151  1  0.44022028  0.21357511  0.45775721  1
  O  O152  1  0.38946699  0.73486306  0.03554124  1
  O  O153  1  0.40326221  0.78507279  0.52555510  1
  O  O154  1  0.92893718  0.28414264  -0.07445710  1
  O  O155  1  0.89073855  0.20576263  0.53203155  1
  O  O156  1  0.82851568  0.72476574  -0.01943134  1
  O  O157  1  0.85836608  0.78019811  0.46484673  1
  O  O158  1  0.14881472  0.30064493  0.51635636  1
  O  O159  1  0.12294950  0.26131750  0.97506852  1
  O  O160  1  0.08110557  0.77169745  0.54594621  1
  O  O161  1  0.11003887  0.73718169  1.01751299  1
  O  O162  1  0.60149902  0.28498721  0.46674363  1
  O  O163  1  0.62705216  0.26789615  0.97486977  1
  O  O164  1  0.59457029  0.76231927  0.50935412  1
  O  O165  1  0.62515575  0.72791857  1.04360172  1
  O  O166  1  0.52585003  0.30808031  0.11479356  1
  O  O167  1  0.50846771  0.19876271  0.61745997  1
  O  O168  1  0.46935979  0.76600916  0.14662377  1
  O  O169  1  0.44751755  0.75986961  0.68092916  1
  O  O170  1  0.97254738  0.27812712  0.11400031  1
  O  O171  1  1.00484294  0.23450160  0.63169706  1
  O  O172  1  0.98010053  0.64785490  0.12397833  1
  O  O173  1  0.96225702  0.77536703  0.68035535  1
  O  O174  1  0.00670112  0.19604615  0.38076078  1
  O  O175  1  0.16369603  0.16937603  0.61927578  1
  O  O176  1  0.02410688  0.72293198  0.37369850  1
  O  O177  1  -0.00725218  0.73357240  0.87519449  1
  O  O178  1  0.51382146  0.25936163  0.30983147  1
  O  O179  1  0.52287739  0.21820729  0.87758215  1
  O  O180  1  0.50137214  0.77084769  0.37048503  1
  O  O181  1  0.53765772  0.74829595  0.84959377  1
  O  O182  1  0.31809572  0.24267935  0.49709972  1
  O  O183  1  0.22681545  0.15756095  1.01650236  1
  O  O184  1  0.19232120  0.66708545  0.47122359  1
  O  O185  1  0.25138624  0.60501711  0.98097809  1
  O  O186  1  0.71102837  0.09576819  0.48052821  1
  O  O187  1  0.76542168  0.13896089  0.98808986  1
  O  O188  1  0.81235169  0.74623661  0.53030078  1
  O  O189  1  0.77338767  0.58824243  0.91472184  1
  O  O190  1  0.26534431  0.33363025  0.01078487  1
  O  O191  1  0.21603291  0.39648482  0.46037380  1
  O  O192  1  0.18293305  0.87633125  0.04139922  1
  O  O193  1  0.17231888  1.00077971  0.58410556  1
  O  O194  1  0.89096047  0.32451660  -0.11847034  1
  O  O195  1  0.78462264  0.33367235  0.51817165  1
  O  O196  1  0.65435326  0.76384637  0.10421669  1
  O  O197  1  0.71752521  0.92462480  0.48076174  1
  O  O198  1  0.11579349  0.43739400  0.26336346  1
  O  O199  1  0.10713344  0.47320695  0.76160676  1
  O  O200  1  0.11970977  1.01174613  0.27563257  1
  O  O201  1  0.12739030  0.99085084  0.76193799  1
  O  O202  1  0.61897674  0.50882128  0.33537187  1
  O  O203  1  0.61464878  0.45214279  0.74069132  1
  O  O204  1  0.68299108  0.95768334  0.23505410  1
  O  O205  1  0.65195315  0.99634038  0.76667794  1
  O  O206  1  0.28254312  0.00605419  0.32082492  1
  O  O207  1  0.37631644  -0.00209934  0.77905006  1
  O  O208  1  0.37907612  0.53088227  0.26898853  1
  O  O209  1  0.37983611  0.45702050  0.71764744  1
  O  O210  1  0.84808113  0.03740292  0.24116901  1
  O  O211  1  0.90818523  0.01987301  0.78487425  1
  O  O212  1  0.92812784  0.47365619  0.33110754  1
  O  O213  1  0.94664036  0.47176441  0.78238341  1
  O  O214  1  0.14603652  0.41041864  0.32086998  1
  O  O215  1  0.19441430  0.38950961  0.83155046  1
  O  O216  1  0.07380920  0.85471432  0.29913545  1
  O  O217  1  0.12855357  0.88334573  0.87490100  1
  O  O218  1  0.61146246  0.34984264  0.44274577  1
  O  O219  1  0.62401858  0.34346013  0.85159421  1
  O  O220  1  0.54366526  0.94625669  0.35080994  1
  O  O221  1  0.64907908  0.86230386  0.87700204  1
  O  O222  1  0.39280543  0.08879753  0.12908537  1
  O  O223  1  0.39791026  0.08087975  0.65543788  1
  O  O224  1  0.36693252  0.62378406  0.14556654  1
  O  O225  1  0.28963519  0.52712534  0.58820561  1
  O  O226  1  0.88306250  0.17340697  0.09932525  1
  O  O227  1  0.89274251  0.11679534  0.66150633  1
  O  O228  1  0.80837774  0.64630903  0.18935865  1
  O  O229  1  0.92928817  0.65287141  0.70413110  1
  O  O230  1  0.27622493  0.25870505  0.14722869  1
  O  O231  1  0.37107681  0.19299312  0.49544742  1
  O  O232  1  0.24850943  0.73785764  0.11141501  1
  O  O233  1  0.29075604  0.78649739  0.64055442  1
  O  O234  1  0.78901450  0.29459973  0.07168998  1
  O  O235  1  0.75766065  0.23138118  0.63354080  1
  O  O236  1  0.72691213  0.76981530  0.10483396  1
  O  O237  1  0.78015288  0.79530702  0.57196576  1
  O  O238  1  0.16647659  0.33978898  0.45264291  1
  O  O239  1  0.27056275  0.24384460  0.88356563  1
  O  O240  1  0.19171432  0.74728344  0.34319092  1
  O  O241  1  0.25209620  0.77010959  0.94750143  1
  O  O242  1  0.72132148  0.20565168  0.37045624  1
  O  O243  1  0.74169874  0.22748593  0.86901579  1
  O  O244  1  0.68001273  0.80188991  0.38169801  1
  O  O245  1  0.79405145  0.77301719  0.94074703  1
  O  O246  1  0.00704192  0.15780416  0.00924276  1
  O  O247  1  0.00381860  0.07020428  0.53307686  1
  O  O248  1  0.04243635  0.57218802  0.00291554  1
  O  O249  1  0.04221805  0.61695886  0.54661255  1
  O  O250  1  0.51274852  0.10360920  0.01828286  1
  O  O251  1  0.48711666  0.06554214  0.54049489  1
  O  O252  1  0.50608338  0.63882728  -0.03202890  1
  O  O253  1  0.45898424  0.56117057  0.63186129  1
  O  O254  1  0.40465182  0.37874161  0.54958144  1
  O  O255  1  0.53841320  0.43313672  0.98497761  1
  O  O256  1  0.50095724  0.94788000  0.40706879  1
  O  O257  1  0.51694573  0.83539910  0.96542534  1
  O  O258  1  0.96174838  0.34445159  0.50495693  1
  O  O259  1  0.87592516  0.42689862  1.08616482  1
  O  O260  1  1.01442734  0.93125558  0.46395269  1
  O  O261  1  1.00732050  0.92800451  1.03249833  1
  O  O262  1  0.45163662  0.55846195  0.40568979  1
  O  O263  1  0.58630864  0.53825996  0.87829420  1
  O  O264  1  0.44033720  1.08011644  0.29383489  1
  O  O265  1  0.53205581  0.96620768  0.87767508  1
  O  O266  1  0.96133777  0.58987196  0.42798702  1
  O  O267  1  0.96661814  0.47484058  0.85595232  1
  O  O268  1  0.97323986  0.99627866  0.31381786  1
  O  O269  1  1.00031423  1.02313660  0.90553064  1
  O  O270  1  -0.01355024  0.05619255  0.12090984  1
  O  O271  1  -0.00127824  -0.07015438  0.63077235  1
  O  O272  1  0.00250536  0.49659364  0.16168866  1
  O  O273  1  -0.03484988  0.49321977  0.60418581  1
  O  O274  1  0.47541221  -0.04456926  0.07323291  1
  O  O275  1  0.53230390  -0.00460825  0.66557973  1
  O  O276  1  0.51538805  0.49586797  0.14965172  1
  O  O277  1  0.48393324  0.38420045  0.54864507  1
  O  O278  1  0.33076717  0.41816835  0.13633170  1
  O  O279  1  0.23459991  0.43733758  0.68552503  1
  O  O280  1  0.22429030  0.89156842  0.23193029  1
  O  O281  1  0.26135076  0.87770027  0.78423003  1
  O  O282  1  0.72196580  0.38265873  0.31676547  1
  O  O283  1  0.73562207  0.34560969  0.73258821  1
  O  O284  1  0.83866921  0.88241138  0.12477011  1
  O  O285  1  0.78832303  0.86975895  0.77241100  1
  O  O286  1  0.30275604  0.20157401  0.33747713  1
  O  O287  1  0.27387930  0.11670755  0.75571055  1
  O  O288  1  0.25918455  0.63122157  0.26399898  1
  O  O289  1  0.22880116  0.70125894  0.80105015  1
  O  O290  1  0.67769110  0.11813619  0.24184438  1
  O  O291  1  0.76603069  0.11405545  0.76031803  1
  O  O292  1  0.80110291  0.53455222  0.28753626  1
  O  O293  1  0.74726303  0.58110466  0.70550043  1
  O  O294  1  0.41786022  0.08763645  0.36128950  1
  O  O295  1  0.38993203  0.09625879  0.87025257  1
  O  O296  1  0.32640748  0.68602921  0.38435625  1
  O  O297  1  0.35756787  0.65630208  0.88669127  1
  O  O298  1  0.87788301  0.07299445  0.41003963  1
  O  O299  1  0.86758938  0.12678784  0.87230450  1
  O  O300  1  0.83288343  0.62918448  0.38078499  1
  O  O301  1  0.84019929  0.56476551  0.92135550  1
  O  O302  1  0.17035206  0.36639930  0.14239719  1
  O  O303  1  0.09481668  0.37158379  0.65958937  1
  O  O304  1  -0.00188198  0.80919164  0.12556590  1
  O  O305  1  0.13401767  0.83858520  0.70901261  1
  O  O306  1  0.65504593  0.42010048  0.09864270  1
  O  O307  1  0.64545488  0.33929893  0.61435883  1
  O  O308  1  0.66299661  0.90915181  0.06041195  1
  O  O309  1  0.64326144  0.90052046  0.63112273  1
  O  O310  1  0.12236311  0.23843693  0.27640737  1
  O  O311  1  0.19617995  0.29595719  0.73383326  1
  O  O312  1  0.09832162  0.71480122  0.22577079  1
  O  O313  1  0.06650773  0.71828306  0.75124376  1
  O  O314  1  0.60291440  0.33040429  0.21432451  1
  O  O315  1  0.62865948  0.23377630  0.76441581  1
  O  O316  1  0.59103682  0.76129851  0.24357390  1
  O  O317  1  0.61292169  0.75512693  0.70018658  1
  O  O318  1  0.40947935  0.27987875  0.19390033  1
  O  O319  1  0.38698615  0.20745631  0.75580181  1
  O  O320  1  0.34641113  0.74642602  0.23108914  1
  O  O321  1  0.28260639  0.55759321  0.64952162  1
  O  O322  1  0.81546863  0.25965498  0.22164307  1
  O  O323  1  0.88915435  0.21815245  0.75229712  1
  O  O324  1  0.84762702  0.75024047  0.30037262  1
  O  O325  1  0.86800884  0.72327537  0.80765016  1
  O  O326  1  0.44012880  0.54646397  0.56725486  1
  O  O327  1  0.45712907  0.57466950  0.99697623  1
  O  O328  1  0.32693610  0.98334640  0.47905157  1
  O  O329  1  0.34126305  1.02883749  0.99706402  1
  O  O330  1  0.88715284  0.49439339  0.48397232  1
  O  O331  1  0.84774122  0.49650910  1.08500615  1
  O  O332  1  0.87383067  0.97536264  0.53728160  1
  O  O333  1  0.89572305  1.03864008  0.99983937  1
  O  O334  1  0.11042162  0.03931974  0.00960276  1
  O  O335  1  0.15788612  0.14730215  0.43162965  1
  O  O336  1  0.17083159  0.47197996  -0.00091683  1
  O  O337  1  0.06786510  0.47869537  0.48098321  1
  O  O338  1  0.64247291  -0.02812632  0.03958112  1
  O  O339  1  0.65010164  -0.06170841  0.46285378  1
  O  O340  1  0.62593907  0.54853076  0.03620918  1
  O  O341  1  0.61530485  0.50743895  0.54318311  1
  O  O342  1  0.42538124  0.37136562  -0.11715234  1
  O  O343  1  0.37743475  0.32788738  0.59415031  1
  O  O344  1  0.34675539  0.86121853  0.11983165  1
  O  O345  1  0.39852121  0.90809615  0.62739840  1
  O  O346  1  0.86983970  0.38948458  0.15840056  1
  O  O347  1  0.87619509  0.31953028  0.64333269  1
  O  O348  1  0.84350771  0.86031442  0.05957671  1
  O  O349  1  0.82415890  0.89151793  0.71002727  1
  O  O350  1  0.27512760  0.26080971  0.36186754  1
  O  O351  1  0.11875514  0.14210978  0.89148834  1
  O  O352  1  0.14125218  0.58694922  0.35441499  1
  O  O353  1  0.13758749  0.60134365  0.89798798  1
  O  O354  1  0.58740805  0.10778120  0.37342065  1
  O  O355  1  0.64451027  0.12355360  0.88322840  1
  O  O356  1  0.61352473  0.65916578  0.39372855  1
  O  O357  1  0.67339526  0.60629266  0.69627417  1
