# generated using pymatgen
data_V51Zn51O256
_symmetry_space_group_name_H-M   'P 1'
_cell_length_a   17.40319879
_cell_length_b   17.34136455
_cell_length_c   17.36588134
_cell_angle_alpha   89.34045703
_cell_angle_beta   88.97386665
_cell_angle_gamma   89.54159091
_symmetry_Int_Tables_number   1
_chemical_formula_structural   V51Zn51O256
_chemical_formula_sum   'V51 Zn51 O256'
_cell_volume   5239.59298429
_cell_formula_units_Z   1
loop_
 _symmetry_equiv_pos_site_id
 _symmetry_equiv_pos_as_xyz
  1  'x, y, z'
loop_
 _atom_site_type_symbol
 _atom_site_label
 _atom_site_symmetry_multiplicity
 _atom_site_fract_x
 _atom_site_fract_y
 _atom_site_fract_z
 _atom_site_occupancy
  V  V0  1  0.25320113  0.62819604  0.36172009  1
  V  V1  1  0.62411596  0.61598574  0.50969998  1
  V  V2  1  0.64076340  0.25963276  0.31472634  1
  V  V3  1  -0.01292511  0.62226807  0.14394277  1
  V  V4  1  0.11894257  0.39494544  0.27596517  1
  V  V5  1  0.50892535  -0.01762788  -0.01085517  1
  V  V6  1  0.87226220  0.54628500  0.89212307  1
  V  V7  1  0.28506479  0.62264698  0.86614115  1
  V  V8  1  0.10300493  0.51389424  0.61856127  1
  V  V9  1  -0.06455634  0.27293076  0.20584790  1
  V  V10  1  0.67514353  0.75357800  0.88133660  1
  V  V11  1  0.01745331  0.36666243  0.88039924  1
  V  V12  1  0.50065290  0.84503670  0.35132313  1
  V  V13  1  0.38949159  0.62755531  0.24448312  1
  V  V14  1  0.72167319  0.10767366  0.35990874  1
  V  V15  1  0.75209711  0.52488591  0.23765291  1
  V  V16  1  0.88238331  -0.05831735  0.88907904  1
  V  V17  1  0.25920772  0.51364825  0.72976346  1
  V  V18  1  0.88037814  0.25711919  0.65015560  1
  V  V19  1  0.23750339  0.13646604  0.37503507  1
  V  V20  1  0.38008200  -0.02772196  0.85111157  1
  V  V21  1  0.50655149  0.37386993  0.32734622  1
  V  V22  1  0.22836937  0.03944429  0.72865787  1
  V  V23  1  0.45898807  0.50720034  0.00218926  1
  V  V24  1  0.24547043  0.37456175  0.60478492  1
  V  V25  1  0.67737177  0.00490368  0.71737540  1
  V  V26  1  0.27423499  0.48486275  0.25358794  1
  V  V27  1  0.39846691  0.13224892  0.24178853  1
  V  V28  1  0.11816864  0.62503415  0.48734458  1
  V  V29  1  0.84986600  0.89049886  0.52918053  1
  V  V30  1  0.56293527  -0.04324968  0.62433423  1
  V  V31  1  0.64033351  0.73215495  0.38065196  1
  V  V32  1  0.75914964  0.38404407  0.67963570  1
  V  V33  1  0.49196281  0.64278997  0.08906110  1
  V  V34  1  0.49515386  -0.00799590  0.47422841  1
  V  V35  1  0.34736244  0.75294696  0.10977999  1
  V  V36  1  0.25821825  0.74277707  0.49368212  1
  V  V37  1  0.47207196  0.62276493  0.62368228  1
  V  V38  1  0.05733566  0.87307741  0.29368707  1
  V  V39  1  0.49623128  0.48381070  0.50138804  1
  V  V40  1  0.31846108  0.88609473  0.02258834  1
  V  V41  1  0.28728737  0.00025030  0.26528664  1
  V  V42  1  0.37665317  0.85877549  0.49173429  1
  V  V43  1  0.25167113  0.23673762  0.02025871  1
  V  V44  1  0.13324726  0.71705592  0.89175820  1
  V  V45  1  0.65806859  0.87023962  0.26383347  1
  V  V46  1  0.11473958  0.39991545  0.75103682  1
  V  V47  1  0.81297850  0.37207747  0.47350415  1
  V  V48  1  0.15354453  0.48820363  0.11186533  1
  V  V49  1  0.61053557  0.15409005  0.52332794  1
  V  V50  1  0.14561455  0.86628274  0.69116533  1
  Zn  Zn51  1  0.08129825  0.29257394  0.62739779  1
  Zn  Zn52  1  0.94393098  0.46603150  0.22778603  1
  Zn  Zn53  1  0.32009733  0.80578374  0.29697225  1
  Zn  Zn54  1  0.56152294  0.57011035  0.31311806  1
  Zn  Zn55  1  0.44061192  0.67148213  0.43224675  1
  Zn  Zn56  1  0.64582284  0.67847399  0.68823198  1
  Zn  Zn57  1  0.74915456  0.18804901  0.19289480  1
  Zn  Zn58  1  0.66687416  0.92649783  0.43812669  1
  Zn  Zn59  1  0.51368867  0.14607827  0.36498922  1
  Zn  Zn60  1  0.72836923  0.17625139  0.66418005  1
  Zn  Zn61  1  0.22056768  0.24240416  0.72770961  1
  Zn  Zn62  1  0.27418894  0.82136711  0.82348940  1
  Zn  Zn63  1  0.48605812  0.56898383  0.82386391  1
  Zn  Zn64  1  0.19784128  0.45615923  0.43562765  1
  Zn  Zn65  1  0.89516084  0.04555407  0.03124302  1
  Zn  Zn66  1  0.19273175  0.68486933  0.66497269  1
  Zn  Zn67  1  0.84796038  0.23222235  0.34560971  1
  Zn  Zn68  1  0.37669748  0.25664004  0.35875933  1
  Zn  Zn69  1  0.77598066  0.82487317  0.71517608  1
  Zn  Zn70  1  0.69135935  0.91411958  0.96283656  1
  Zn  Zn71  1  0.25945545  0.27303844  0.24024481  1
  Zn  Zn72  1  0.30922576  0.04228778  0.53261233  1
  Zn  Zn73  1  0.54525327  -0.09287005  0.81751013  1
  Zn  Zn74  1  0.92340336  0.46019014  0.70202478  1
  Zn  Zn75  1  0.73078820  0.72541975  0.19367591  1
  Zn  Zn76  1  0.44976823  0.45339109  0.15774147  1
  Zn  Zn77  1  0.81398202  0.11212078  0.51052010  1
  Zn  Zn78  1  0.81875594  0.54462969  0.55277266  1
  Zn  Zn79  1  0.08421348  0.22302734  0.31080223  1
  Zn  Zn80  1  0.33717153  0.92009151  0.67373910  1
  Zn  Zn81  1  0.55405623  0.79126779  0.15050339  1
  Zn  Zn82  1  0.32962667  0.04791793  0.08858765  1
  Zn  Zn83  1  0.40815976  0.44639625  0.64685598  1
  Zn  Zn84  1  0.32286970  0.37067114  0.80120859  1
  Zn  Zn85  1  0.18576206  0.67024075  0.19073255  1
  Zn  Zn86  1  0.82627735  0.78922569  0.34785584  1
  Zn  Zn87  1  0.06259037  0.31325073  0.07167609  1
  Zn  Zn88  1  0.68059209  0.49791269  0.82207680  1
  Zn  Zn89  1  0.15213145  0.51033295  0.90411502  1
  Zn  Zn90  1  0.21246364  0.96191619  0.91171096  1
  Zn  Zn91  1  0.96089831  0.69084480  0.95347761  1
  Zn  Zn92  1  0.03418818  -0.01064905  0.76836566  1
  Zn  Zn93  1  0.64999757  0.44873231  0.40036411  1
  Zn  Zn94  1  0.42594266  0.33467366  -0.02480150  1
  Zn  Zn95  1  0.20830708  0.91478460  0.39298258  1
  Zn  Zn96  1  0.29893483  0.59179938  0.06501323  1
  Zn  Zn97  1  0.53849912  0.78726346  0.55067023  1
  Zn  Zn98  1  0.31723087  0.54695376  0.53606834  1
  Zn  Zn99  1  0.92677061  0.70593220  0.48595663  1
  Zn  Zn100  1  0.62658749  0.35088042  0.53646894  1
  Zn  Zn101  1  0.94236790  0.16891177  0.82516266  1
  O  O102  1  0.10487573  0.06195825  0.11352847  1
  O  O103  1  0.06269881  0.05386847  0.58279554  1
  O  O104  1  0.09167658  0.60476453  0.15172922  1
  O  O105  1  0.12670105  0.61902687  0.59992895  1
  O  O106  1  0.62437173  0.14175530  0.07373273  1
  O  O107  1  0.61999801  0.15800600  0.62073532  1
  O  O108  1  0.57838683  0.68127916  0.11542373  1
  O  O109  1  0.59440049  0.62129686  0.61228879  1
  O  O110  1  0.41692405  0.35779587  0.36798400  1
  O  O111  1  0.38408365  0.38009062  0.88732394  1
  O  O112  1  0.40126006  0.85654527  0.35584715  1
  O  O113  1  0.31567377  0.89382259  0.90186958  1
  O  O114  1  0.86108526  0.32945757  0.39658623  1
  O  O115  1  0.90929151  0.44941611  0.89535261  1
  O  O116  1  0.85861034  0.86772698  0.42620802  1
  O  O117  1  0.89109421  0.84446306  0.88576013  1
  O  O118  1  0.23317500  0.02092416  0.36084048  1
  O  O119  1  0.26363323  0.01183475  0.82173098  1
  O  O120  1  0.26818554  0.50405373  0.35531245  1
  O  O121  1  0.24754689  0.52405590  0.83989981  1
  O  O122  1  0.70405005  0.01431620  0.38357629  1
  O  O123  1  0.77936690  -0.04493543  0.90418777  1
  O  O124  1  0.71735327  0.51714409  0.33731495  1
  O  O125  1  0.77813084  0.53719483  0.86240249  1
  O  O126  1  0.25119806  0.50610484  0.12903506  1
  O  O127  1  0.25110850  0.48987364  0.62044370  1
  O  O128  1  0.25999433  1.00964107  0.17000721  1
  O  O129  1  0.28711603  1.02102284  0.64160660  1
  O  O130  1  0.76027530  0.53179832  0.13886198  1
  O  O131  1  0.82071993  0.47585228  0.64655172  1
  O  O132  1  0.81479827  0.96761045  0.18643544  1
  O  O133  1  0.66321392  0.99888106  0.61937407  1
  O  O134  1  0.02436930  0.41942905  0.28260427  1
  O  O135  1  0.01252743  0.41414571  0.76582819  1
  O  O136  1  -0.02753548  0.83341318  0.30298115  1
  O  O137  1  0.04267736  0.89353163  0.71993329  1
  O  O138  1  0.49523340  0.38807842  0.23124451  1
  O  O139  1  0.55736175  0.36224372  0.77470216  1
  O  O140  1  0.53003783  0.84703940  0.25468870  1
  O  O141  1  0.49051982  0.80864784  0.76653103  1
  O  O142  1  0.49601369  0.12938797  0.25185982  1
  O  O143  1  0.45683351  0.15651775  0.76618425  1
  O  O144  1  0.48746071  0.62214722  0.24578009  1
  O  O145  1  0.48018605  0.60747852  0.72137726  1
  O  O146  1  1.08670249  0.11146686  0.16057539  1
  O  O147  1  1.00568577  0.09005702  0.78334799  1
  O  O148  1  0.97807530  0.58846340  0.24367707  1
  O  O149  1  1.00658451  0.67796754  0.73101534  1
  O  O150  1  0.35366603  0.24858290  0.00135065  1
  O  O151  1  0.44305161  0.22797637  0.61147898  1
  O  O152  1  0.33778544  0.78314275  0.00720298  1
  O  O153  1  0.36898529  0.75205950  0.47333784  1
  O  O154  1  0.87565111  0.17438532  -0.08979042  1
  O  O155  1  0.83252058  0.32433915  0.55810880  1
  O  O156  1  0.90530454  0.75264928  0.01858519  1
  O  O157  1  0.86759603  0.79132438  0.55352929  1
  O  O158  1  0.09717465  0.24558045  0.50253096  1
  O  O159  1  0.15065048  0.24132988  1.04292038  1
  O  O160  1  0.15658543  0.72386500  0.48526339  1
  O  O161  1  0.14986590  0.73555400  0.98172020  1
  O  O162  1  0.60175787  0.24823732  0.49737896  1
  O  O163  1  0.50387434  0.24885420  0.97832433  1
  O  O164  1  0.61193329  0.72596595  0.49454643  1
  O  O165  1  0.72461543  0.80114351  0.95867124  1
  O  O166  1  0.56329496  0.14788072  0.10875177  1
  O  O167  1  0.52825656  0.36207527  0.71066321  1
  O  O168  1  0.45368568  0.75200970  0.10150698  1
  O  O169  1  0.47233513  0.72131408  0.61178173  1
  O  O170  1  0.99324203  0.24802140  0.12784307  1
  O  O171  1  0.97518407  0.26590262  0.61609877  1
  O  O172  1  0.98438706  0.71242173  0.18106858  1
  O  O173  1  0.98191887  0.67595357  0.66563647  1
  O  O174  1  -0.01928676  0.24986442  0.29352553  1
  O  O175  1  -0.00137121  0.27714916  0.85531015  1
  O  O176  1  -0.00531519  0.78964681  0.47426686  1
  O  O177  1  0.03081473  0.73784466  0.88591161  1
  O  O178  1  0.53145586  0.26655408  0.33687801  1
  O  O179  1  0.61419818  0.19276886  0.82002209  1
  O  O180  1  0.51011984  0.74672704  0.37382947  1
  O  O181  1  0.58114550  0.75377854  0.91978560  1
  O  O182  1  0.26374990  0.11878884  0.47109059  1
  O  O183  1  0.27158122  0.13639637  1.03515091  1
  O  O184  1  0.27422405  0.62936338  0.47095159  1
  O  O185  1  0.26831764  0.62147085  0.96138011  1
  O  O186  1  0.69857251  0.11972043  0.49216794  1
  O  O187  1  0.78634804  0.09790381  1.04599722  1
  O  O188  1  0.71918328  0.60313556  0.52069914  1
  O  O189  1  0.74310825  0.69004679  1.09592481  1
  O  O190  1  0.25797208  0.33827380  0.00701889  1
  O  O191  1  0.24470774  0.38505774  0.50835297  1
  O  O192  1  0.22977014  0.92847950  0.02126047  1
  O  O193  1  0.26777455  0.85130234  0.46758706  1
  O  O194  1  0.68405182  0.32643191  0.06448947  1
  O  O195  1  0.71172200  0.37754592  0.46142781  1
  O  O196  1  0.72921408  0.91713710  0.06117651  1
  O  O197  1  0.74931921  0.88404790  0.49645380  1
  O  O198  1  0.16327291  0.48306856  0.23703924  1
  O  O199  1  0.13621735  0.51284770  0.72027077  1
  O  O200  1  0.03056223  0.98034738  0.27096806  1
  O  O201  1  0.14144307  0.99209299  0.72548232  1
  O  O202  1  0.65004417  0.54214019  0.23325186  1
  O  O203  1  0.60151455  0.56437600  0.80426425  1
  O  O204  1  0.64523248  0.96021450  0.24188328  1
  O  O205  1  0.57637390  0.98065262  0.73619858  1
  O  O206  1  0.38409372  0.01512036  0.26652095  1
  O  O207  1  0.40410233  -0.04972068  0.75712043  1
  O  O208  1  0.37227507  0.51791589  0.22504657  1
  O  O209  1  0.35476683  0.47582724  0.74204606  1
  O  O210  1  0.92029932  0.02931913  0.13703287  1
  O  O211  1  0.85816422  -0.03619781  0.79613091  1
  O  O212  1  0.84920254  0.51007684  0.27072654  1
  O  O213  1  0.90079548  0.53561322  0.79341030  1
  O  O214  1  0.14318569  0.38998880  0.36958889  1
  O  O215  1  0.11713164  0.40811798  0.86100899  1
  O  O216  1  0.10585247  0.87884189  0.37830526  1
  O  O217  1  0.14340751  0.83437877  0.84969845  1
  O  O218  1  0.62431087  0.36338396  0.32913091  1
  O  O219  1  0.60359576  0.30596414  0.91560391  1
  O  O220  1  0.61821978  0.84907685  0.37301421  1
  O  O221  1  0.63869855  0.85548517  0.85807691  1
  O  O222  1  0.39469279  0.11450164  0.14377412  1
  O  O223  1  0.39038003  0.18349521  0.62707609  1
  O  O224  1  0.38713358  0.63201511  0.12767168  1
  O  O225  1  0.37657981  0.59964791  0.61004645  1
  O  O226  1  0.99253061  0.11923117  0.02699798  1
  O  O227  1  0.82903407  0.17367687  0.59933788  1
  O  O228  1  0.89067596  0.62650114  0.12262604  1
  O  O229  1  0.80819257  0.64122445  0.69155903  1
  O  O230  1  0.25571703  0.24231060  0.12575401  1
  O  O231  1  0.20357955  0.28101874  0.62075151  1
  O  O232  1  0.25737026  0.69755821  0.11112748  1
  O  O233  1  0.26375153  0.73707231  0.58900981  1
  O  O234  1  0.78309072  0.16604907  0.07363667  1
  O  O235  1  0.75880246  0.27951333  0.68896128  1
  O  O236  1  0.82306609  0.76744414  0.23822309  1
  O  O237  1  0.70275650  0.76929436  0.66065009  1
  O  O238  1  0.26289310  0.23594102  0.35880493  1
  O  O239  1  0.22203792  0.21613364  0.92841781  1
  O  O240  1  0.25398986  0.72847065  0.35959113  1
  O  O241  1  0.24018360  0.71782216  0.84120867  1
  O  O242  1  0.73023295  0.24591689  0.35318834  1
  O  O243  1  0.58087556  0.25539826  0.96417520  1
  O  O244  1  0.73418337  0.73678308  0.40263800  1
  O  O245  1  0.75615172  0.77225861  0.81583464  1
  O  O246  1  0.00168281  0.17138067  -0.02220146  1
  O  O247  1  0.03813365  0.23624793  0.46475984  1
  O  O248  1  0.01457799  0.65010595  0.05036377  1
  O  O249  1  0.02514893  0.63595032  0.47614301  1
  O  O250  1  0.49294979  0.07447623  -0.01083424  1
  O  O251  1  0.52555399  0.09445355  0.47919736  1
  O  O252  1  0.48488483  0.62559864  -0.00724284  1
  O  O253  1  0.49695487  0.60552927  0.50197462  1
  O  O254  1  0.52394672  0.38773800  0.50297650  1
  O  O255  1  0.63072184  0.48990922  0.99149011  1
  O  O256  1  0.48085688  0.85876800  0.47769180  1
  O  O257  1  0.53292253  0.88789296  1.07115464  1
  O  O258  1  1.00862556  0.38867673  0.45975091  1
  O  O259  1  1.02299719  0.36324902  0.97784627  1
  O  O260  1  0.94320380  0.92063827  0.53752293  1
  O  O261  1  1.12502554  0.88565884  0.90279763  1
  O  O262  1  0.52899918  0.47355493  0.36461339  1
  O  O263  1  0.49093244  0.49552987  0.90814463  1
  O  O264  1  0.51039986  0.96641816  0.38158101  1
  O  O265  1  0.47069778  0.93203389  0.89794464  1
  O  O266  1  0.99648764  0.45581623  0.44314467  1
  O  O267  1  0.96756602  0.57371301  0.92786441  1
  O  O268  1  0.97680487  1.09358743  0.44184963  1
  O  O269  1  0.98270491  0.94601207  0.86595563  1
  O  O270  1  0.06594968  -0.05279099  0.20991529  1
  O  O271  1  0.00649326  0.09401252  0.60006680  1
  O  O272  1  -0.02140649  0.51813708  0.12294533  1
  O  O273  1  0.00698281  0.51080839  0.63027829  1
  O  O274  1  0.53721579  -0.03904258  0.09531507  1
  O  O275  1  0.47766995  -0.00233574  0.59742017  1
  O  O276  1  0.50435119  0.53666620  0.10194995  1
  O  O277  1  0.49484655  0.49699099  0.60537912  1
  O  O278  1  0.28459815  0.38907397  0.24406527  1
  O  O279  1  0.22656156  0.40262407  0.74309217  1
  O  O280  1  0.26299726  0.89889287  0.28783891  1
  O  O281  1  0.24827458  0.87504116  0.72921672  1
  O  O282  1  0.75265550  0.42560996  0.22402583  1
  O  O283  1  0.72496928  0.41536021  0.76841545  1
  O  O284  1  0.75286733  0.86469306  0.29922399  1
  O  O285  1  0.72508542  0.92281879  0.74147342  1
  O  O286  1  0.28286019  0.11609044  0.27678654  1
  O  O287  1  0.20394529  0.13317935  0.72885972  1
  O  O288  1  0.25648619  0.61017942  0.25519640  1
  O  O289  1  0.26006027  0.61228562  0.71925521  1
  O  O290  1  0.74289606  0.10226309  0.26389806  1
  O  O291  1  0.72236410  0.08907550  0.73707953  1
  O  O292  1  0.77523322  0.62633708  0.24287376  1
  O  O293  1  0.74471821  0.60702170  0.69304335  1
  O  O294  1  0.40462647  0.14892016  0.36767252  1
  O  O295  1  0.39180750  0.06277215  0.87168089  1
  O  O296  1  0.37203078  0.62677858  0.34728400  1
  O  O297  1  0.38031445  0.61992848  0.84970550  1
  O  O298  1  0.82000042  0.13192850  0.39869932  1
  O  O299  1  0.90438179  0.04775599  0.92023583  1
  O  O300  1  0.87434913  0.63829998  0.55086882  1
  O  O301  1  0.86914951  0.65044521  0.88637654  1
  O  O302  1  0.11113552  0.39911393  0.12620906  1
  O  O303  1  0.12164225  0.40480669  0.62868236  1
  O  O304  1  0.11585017  0.80799350  0.22316907  1
  O  O305  1  0.15149142  0.88252946  0.59871806  1
  O  O306  1  0.62467615  0.35740725  0.08799303  1
  O  O307  1  0.68103536  0.39500268  0.62049328  1
  O  O308  1  0.66459655  0.82002768  0.16887711  1
  O  O309  1  0.55897069  0.86037148  0.63408278  1
  O  O310  1  0.14339376  0.29623660  0.24672430  1
  O  O311  1  0.11509777  0.29910510  0.74195221  1
  O  O312  1  0.12553859  0.73981196  0.25898006  1
  O  O313  1  0.13639059  0.76711278  0.70827312  1
  O  O314  1  0.65637424  0.24647889  0.21713142  1
  O  O315  1  0.47712208  0.22351152  0.76993900  1
  O  O316  1  0.64948039  0.72948261  0.27892805  1
  O  O317  1  0.64188138  0.70952366  0.79616903  1
  O  O318  1  0.36837527  0.23426450  0.23985099  1
  O  O319  1  0.30646336  0.26554083  0.78618774  1
  O  O320  1  0.36178620  0.73042640  0.22674076  1
  O  O321  1  0.44482748  0.76797897  0.80587324  1
  O  O322  1  0.84724278  0.22492065  0.22449491  1
  O  O323  1  0.89166743  0.20921074  0.73476738  1
  O  O324  1  0.88959330  0.70563047  0.38308715  1
  O  O325  1  0.87721070  0.79758674  0.72473424  1
  O  O326  1  0.39848783  0.48672175  0.48200135  1
  O  O327  1  0.36387060  0.51783007  1.00387257  1
  O  O328  1  0.38535103  0.97320990  0.48110966  1
  O  O329  1  0.38447750  0.96373158  1.02774300  1
  O  O330  1  0.84201606  0.46740423  0.47707308  1
  O  O331  1  0.83374800  0.53158429  0.98513405  1
  O  O332  1  0.83616108  0.99633141  0.52115621  1
  O  O333  1  0.88443026  0.93519579  0.99757277  1
  O  O334  1  0.12661246  0.04734785  -0.05850383  1
  O  O335  1  0.02357806  0.04099856  0.43186483  1
  O  O336  1  0.14571766  0.50596232  0.01636929  1
  O  O337  1  0.12919424  0.51512793  0.50821463  1
  O  O338  1  0.60448894  -0.02162388  -0.04484562  1
  O  O339  1  0.58537048  -0.04599508  0.51257424  1
  O  O340  1  0.65903478  0.44848807  -0.06082558  1
  O  O341  1  0.60616920  0.51267009  0.48623876  1
  O  O342  1  0.46257589  0.40935627  0.04786559  1
  O  O343  1  0.34140150  0.36029198  0.62743372  1
  O  O344  1  0.32407176  0.85064338  0.12816754  1
  O  O345  1  0.37070361  0.85887435  0.58797330  1
  O  O346  1  0.91336083  0.36858966  0.19035939  1
  O  O347  1  0.87145354  0.35901758  0.69901392  1
  O  O348  1  0.88427837  0.96131652  0.16804501  1
  O  O349  1  0.81420953  0.89232567  0.62489536  1
  O  O350  1  0.13818818  0.14702300  0.36543403  1
  O  O351  1  0.11018539  0.09847457  0.89217579  1
  O  O352  1  0.15526496  0.60830311  0.38477308  1
  O  O353  1  0.12744344  0.61687307  0.87990407  1
  O  O354  1  0.62393107  0.15428645  0.35590549  1
  O  O355  1  0.59660445  0.13584297  0.85836751  1
  O  O356  1  0.61391508  0.62925259  0.39104387  1
  O  O357  1  0.70005296  0.67000941  0.92485831  1
