# generated using pymatgen
data_V51Zn51O256
_symmetry_space_group_name_H-M   'P 1'
_cell_length_a   17.49611939
_cell_length_b   17.68363758
_cell_length_c   17.56852903
_cell_angle_alpha   91.22757038
_cell_angle_beta   89.42793359
_cell_angle_gamma   90.64475896
_symmetry_Int_Tables_number   1
_chemical_formula_structural   V51Zn51O256
_chemical_formula_sum   'V51 Zn51 O256'
_cell_volume   5433.76594839
_cell_formula_units_Z   1
loop_
 _symmetry_equiv_pos_site_id
 _symmetry_equiv_pos_as_xyz
  1  'x, y, z'
loop_
 _atom_site_type_symbol
 _atom_site_label
 _atom_site_symmetry_multiplicity
 _atom_site_fract_x
 _atom_site_fract_y
 _atom_site_fract_z
 _atom_site_occupancy
  V  V0  1  0.77972750  0.77324155  0.01972058  1
  V  V1  1  0.63118703  0.50417935  0.60864176  1
  V  V2  1  0.90523497  0.36178998  0.00744367  1
  V  V3  1  0.13036676  0.51275377  0.11733036  1
  V  V4  1  0.79348067  0.10212072  0.78920020  1
  V  V5  1  0.02344830  0.52432945  -0.01219017  1
  V  V6  1  0.27703424  0.24593735  0.45843188  1
  V  V7  1  0.38648653  0.87776108  -0.00271555  1
  V  V8  1  0.53225287  0.14773363  0.05982706  1
  V  V9  1  0.81134257  0.06306320  0.96906356  1
  V  V10  1  0.01063516  0.83981756  0.82439322  1
  V  V11  1  0.64839080  0.90723205  0.75428806  1
  V  V12  1  0.53225537  -0.03189275  -0.02611401  1
  V  V13  1  0.12515179  0.37178023  0.74905833  1
  V  V14  1  0.74262314  0.32607189  -0.05609851  1
  V  V15  1  0.45819961  0.48223560  -0.05611750  1
  V  V16  1  0.35743407  0.20560791  0.61673666  1
  V  V17  1  0.48038521  0.19850316  0.73279177  1
  V  V18  1  0.04489682  0.75545122  0.28260014  1
  V  V19  1  0.85443843  0.30358326  0.65649888  1
  V  V20  1  0.91132960  0.77260628  0.15320449  1
  V  V21  1  0.61778105  0.25299178  0.43935312  1
  V  V22  1  0.26973422  0.12453204  0.31579007  1
  V  V23  1  0.24266142  0.65436755  0.89363708  1
  V  V24  1  0.35599158  0.63688309  0.72567398  1
  V  V25  1  0.40258337  0.28835838  0.09436102  1
  V  V26  1  0.38707786  0.69965221  0.10563046  1
  V  V27  1  0.87161210  0.84130148  0.53872742  1
  V  V28  1  0.42664292  0.16155466  0.21991443  1
  V  V29  1  0.22817002  0.94878451  0.08639204  1
  V  V30  1  0.24347728  0.37749585  0.08971900  1
  V  V31  1  0.57155802  0.74731929  0.85030940  1
  V  V32  1  0.90600991  -0.02409762  0.42934182  1
  V  V33  1  -0.01010243  0.15269817  0.66508078  1
  V  V34  1  0.62255592  0.43057654  0.18105416  1
  V  V35  1  0.13926276  0.92500628  0.25780848  1
  V  V36  1  0.63627441  0.64641766  -0.02396191  1
  V  V37  1  0.72519545  0.62449645  0.35303547  1
  V  V38  1  0.78161320  -0.05560831  0.30684363  1
  V  V39  1  0.84498604  0.68824573  0.66323447  1
  V  V40  1  0.26227778  0.47304274  0.25313138  1
  V  V41  1  0.25826750  0.48939119  0.74928537  1
  V  V42  1  0.50870427  0.36526654  0.82737066  1
  V  V43  1  0.23472926  -0.00785466  0.76160032  1
  V  V44  1  0.14798672  0.12380213  0.44996779  1
  V  V45  1  0.23478666  0.36353238  0.60579661  1
  V  V46  1  0.10002457  0.37255276  0.22872291  1
  V  V47  1  0.16450372  0.27280909  0.87463411  1
  V  V48  1  0.01966568  0.40460574  0.50295760  1
  V  V49  1  0.77063857  0.53701287  0.20278641  1
  V  V50  1  0.86406068  0.34025441  0.45874476  1
  Zn  Zn51  1  0.81044290  -0.07136164  0.11026403  1
  Zn  Zn52  1  0.18747743  0.18972475  0.69749917  1
  Zn  Zn53  1  0.42361670  1.04842780  0.83871840  1
  Zn  Zn54  1  0.84779319  0.77301775  0.34660757  1
  Zn  Zn55  1  0.07170584  0.82111872  0.62313527  1
  Zn  Zn56  1  0.61117487  0.09687937  0.73409116  1
  Zn  Zn57  1  0.88225070  0.22118870  0.91199144  1
  Zn  Zn58  1  0.17334045  0.20926585  0.16324568  1
  Zn  Zn59  1  0.19083698  0.68875665  0.72996511  1
  Zn  Zn60  1  0.95429750  0.17001512  0.42743641  1
  Zn  Zn61  1  0.25826511  0.03086245  0.56613748  1
  Zn  Zn62  1  0.08712732  0.30583465  0.06234962  1
  Zn  Zn63  1  0.27646024  0.56697153  0.59552616  1
  Zn  Zn64  1  0.43283157  0.21328265  0.92085367  1
  Zn  Zn65  1  0.31571669  0.30266480  0.78026405  1
  Zn  Zn66  1  0.50521683  0.58131276  0.82499342  1
  Zn  Zn67  1  0.04259397  0.03018689  0.80765885  1
  Zn  Zn68  1  0.71811565  0.48598495  0.02876299  1
  Zn  Zn69  1  0.93748193  0.45929159  0.16311235  1
  Zn  Zn70  1  0.85934570  0.03068767  0.60623248  1
  Zn  Zn71  1  0.40892970  0.68407062  0.92610401  1
  Zn  Zn72  1  0.96921352  0.45642480  0.69433183  1
  Zn  Zn73  1  0.09885863  0.58386358  0.26287609  1
  Zn  Zn74  1  0.18873812  0.70536734  0.16147432  1
  Zn  Zn75  1  0.08529983  0.55754860  0.80108371  1
  Zn  Zn76  1  0.33150631  0.07556674  -0.00437581  1
  Zn  Zn77  1  0.51004949  0.55950812  0.10308431  1
  Zn  Zn78  1  0.29087255  0.29118752  0.26030795  1
  Zn  Zn79  1  0.11865062  0.94585980  0.45528927  1
  Zn  Zn80  1  0.56514591  0.36466736  0.01827090  1
  Zn  Zn81  1  1.01703315  0.82954285  0.46436533  1
  Zn  Zn82  1  0.44434599  0.47513671  0.67276583  1
  Zn  Zn83  1  0.72328503  0.93749600  0.49767496  1
  Zn  Zn84  1  0.31157139  0.54134374  0.04439483  1
  Zn  Zn85  1  0.30397959  0.80668669  0.82216662  1
  Zn  Zn86  1  0.94948010  0.90851766  0.24511613  1
  Zn  Zn87  1  0.60469147  0.66756535  0.49156022  1
  Zn  Zn88  1  0.67226487  0.85785189  0.93010813  1
  Zn  Zn89  1  0.17586274  0.46222738  0.92391906  1
  Zn  Zn90  1  0.61185078  0.23701284  0.22407641  1
  Zn  Zn91  1  0.97896830  0.72039802  1.00147355  1
  Zn  Zn92  1  0.09926903  0.25602431  0.56595955  1
  Zn  Zn93  1  0.39516745  0.99157774  0.13143866  1
  Zn  Zn94  1  0.67460413  0.09781190  0.32888844  1
  Zn  Zn95  1  0.69083939  0.43843313  0.41832756  1
  Zn  Zn96  1  0.68287732  0.64221509  0.75619020  1
  Zn  Zn97  1  0.18084808  0.39748138  0.40666944  1
  Zn  Zn98  1  0.58688855  0.76285022  0.65518963  1
  Zn  Zn99  1  0.30792784  0.83691967  0.16056521  1
  Zn  Zn100  1  0.85292449  0.35790859  0.81691989  1
  Zn  Zn101  1  0.67816565  0.25930408  0.76683753  1
  O  O102  1  0.16064000  0.11808398  0.09696410  1
  O  O103  1  0.08826759  0.17690825  0.64025057  1
  O  O104  1  0.14034360  0.60801012  0.15062663  1
  O  O105  1  0.10695854  0.60237802  0.56129963  1
  O  O106  1  0.60261074  0.18531105  0.11394408  1
  O  O107  1  0.70423753  0.08940532  0.59273077  1
  O  O108  1  0.56875349  0.63985842  0.04596368  1
  O  O109  1  0.65062217  0.59185872  0.56003571  1
  O  O110  1  0.49516069  0.45094266  0.35346460  1
  O  O111  1  0.40093892  0.37904141  0.79351542  1
  O  O112  1  0.37317619  0.87686920  0.37835361  1
  O  O113  1  0.36306090  0.85561000  0.90527282  1
  O  O114  1  0.88291267  0.25220610  0.42217041  1
  O  O115  1  0.91256183  0.32773948  0.89905853  1
  O  O116  1  0.89402865  0.81739257  0.44294313  1
  O  O117  1  0.91078515  0.83101522  0.81748645  1
  O  O118  1  0.27556133  0.03737675  0.28564648  1
  O  O119  1  0.22046850  0.00965412  0.85853997  1
  O  O120  1  0.24987398  0.45938388  0.34950674  1
  O  O121  1  0.25264252  0.49679190  0.84445967  1
  O  O122  1  0.80237970  -0.04570109  0.42221771  1
  O  O123  1  0.74285328  0.10301628  1.04706508  1
  O  O124  1  0.72378050  0.53126179  0.37982250  1
  O  O125  1  0.83712320  0.58446324  0.91493892  1
  O  O126  1  0.24245778  0.49311271  0.12251207  1
  O  O127  1  0.25805757  0.46040450  0.60108196  1
  O  O128  1  0.29028532  1.02995238  0.08775649  1
  O  O129  1  0.24191194  0.97541976  0.65875803  1
  O  O130  1  0.76403934  0.54730896  0.10792094  1
  O  O131  1  0.72086433  0.47182368  0.62157247  1
  O  O132  1  0.78747502  0.96775648  0.21183140  1
  O  O133  1  0.75299383  1.03755438  0.55159948  1
  O  O134  1  0.00720658  0.40064989  0.22505964  1
  O  O135  1  0.03098154  0.37217007  0.74662035  1
  O  O136  1  0.05126723  0.87116130  0.24815650  1
  O  O137  1  0.02551653  0.86128155  0.72587363  1
  O  O138  1  0.59502752  0.34529522  0.21618926  1
  O  O139  1  0.45385495  0.37534400  0.72758325  1
  O  O140  1  0.47886255  1.00067482  0.45432688  1
  O  O141  1  0.40974253  0.85561825  0.72828494  1
  O  O142  1  0.51227774  0.18892662  0.25242521  1
  O  O143  1  0.47628285  0.10596971  0.75777573  1
  O  O144  1  0.39759628  0.69075920  0.31810674  1
  O  O145  1  0.45047159  0.63749469  0.75115569  1
  O  O146  1  0.92270100  0.23585490  0.23293405  1
  O  O147  1  0.99502089  0.10191964  0.74564296  1
  O  O148  1  1.02549781  0.65813637  0.27582470  1
  O  O149  1  0.99463032  0.54576250  0.74700523  1
  O  O150  1  0.37478381  0.25953383  0.00565777  1
  O  O151  1  0.35668205  0.25056330  0.51927089  1
  O  O152  1  0.39094329  0.74883810  0.01714842  1
  O  O153  1  0.41683340  0.83994891  0.41677125  1
  O  O154  1  0.81611887  0.28210565  -0.00201529  1
  O  O155  1  0.85140571  0.33234609  0.56072253  1
  O  O156  1  0.88022395  0.76259067  0.03619985  1
  O  O157  1  0.84257744  0.71368256  0.56345883  1
  O  O158  1  0.17973356  0.21349154  0.49749231  1
  O  O159  1  0.12053416  0.26741347  0.96186275  1
  O  O160  1  0.10012434  0.66741272  0.53851668  1
  O  O161  1  0.11184649  0.72267496  1.00123926  1
  O  O162  1  0.57835552  0.26821821  0.52950783  1
  O  O163  1  0.65181388  0.30992450  0.97182157  1
  O  O164  1  0.58079212  0.82853746  0.43336029  1
  O  O165  1  0.61752726  0.75414615  0.94151969  1
  O  O166  1  0.49253948  0.32340415  0.09182701  1
  O  O167  1  0.45744059  0.19500874  0.62542489  1
  O  O168  1  0.45450594  0.73043133  0.16154654  1
  O  O169  1  0.44986700  0.81830058  0.68303755  1
  O  O170  1  1.00261930  0.14573315  0.06819982  1
  O  O171  1  0.92684322  0.23517987  0.67080464  1
  O  O172  1  0.99605739  0.74125708  0.11750340  1
  O  O173  1  0.93992523  0.67688648  0.68098924  1
  O  O174  1  -0.01357506  0.16367487  0.31380247  1
  O  O175  1  0.11891556  0.15640399  0.85245650  1
  O  O176  1  0.05142404  0.77169355  0.37745910  1
  O  O177  1  0.04524112  0.75388316  0.79194788  1
  O  O178  1  0.52509895  0.22444656  0.41463417  1
  O  O179  1  0.47371553  0.25456604  0.82216904  1
  O  O180  1  0.35339697  0.69102628  0.37270155  1
  O  O181  1  0.47559489  0.75080884  0.86184544  1
  O  O182  1  0.28032859  0.14806890  0.42499349  1
  O  O183  1  0.23257119  0.14590390  0.99126867  1
  O  O184  1  0.26823246  0.64967508  0.50264141  1
  O  O185  1  0.25314371  0.61521773  0.98306818  1
  O  O186  1  0.63760022  0.06365398  0.61149846  1
  O  O187  1  0.80213027  0.19881221  1.14746105  1
  O  O188  1  0.83143659  0.54181312  0.48095461  1
  O  O189  1  0.72314574  0.68780403  1.01898379  1
  O  O190  1  0.23122172  0.40105901  -0.00286289  1
  O  O191  1  0.23330631  0.34461466  0.50581201  1
  O  O192  1  0.27656264  0.87847468  0.03190610  1
  O  O193  1  0.24052666  0.80223819  0.45002187  1
  O  O194  1  0.77086537  0.41948447  -0.04251861  1
  O  O195  1  0.78454238  0.38028049  0.42483524  1
  O  O196  1  0.74396682  0.84457466  0.07674451  1
  O  O197  1  0.77300209  0.85163553  0.54208152  1
  O  O198  1  0.13465323  0.48479386  0.23194263  1
  O  O199  1  0.14618689  0.47323786  0.73969165  1
  O  O200  1  0.11358177  1.00924139  0.23369256  1
  O  O201  1  0.13082913  0.98676895  0.75296021  1
  O  O202  1  0.55530914  0.50195882  0.18462737  1
  O  O203  1  0.64275211  0.55415520  0.69756989  1
  O  O204  1  0.69822295  0.99642524  0.33564987  1
  O  O205  1  0.60147227  0.99315586  0.74715778  1
  O  O206  1  0.42998271  0.06465348  0.20111622  1
  O  O207  1  0.33368734  0.00913148  0.77071807  1
  O  O208  1  0.35427748  0.47718331  0.23863085  1
  O  O209  1  0.35919076  0.51615335  0.72990569  1
  O  O210  1  0.89183646  -0.03721213  0.32090355  1
  O  O211  1  0.79410209  0.03877305  0.86971393  1
  O  O212  1  0.86364369  0.51902874  0.22373829  1
  O  O213  1  0.76722044  0.46756564  0.79618717  1
  O  O214  1  0.11966122  0.34992425  0.32054550  1
  O  O215  1  0.14627542  0.37269954  0.85451693  1
  O  O216  1  0.16122909  0.92659726  0.35314484  1
  O  O217  1  0.09749404  0.87301570  0.86635494  1
  O  O218  1  0.61660557  0.35247444  0.42280798  1
  O  O219  1  0.59878709  0.34320825  0.80033451  1
  O  O220  1  0.63398384  0.86588407  0.40548270  1
  O  O221  1  0.61095914  0.84488348  0.83135106  1
  O  O222  1  0.44331661  0.17433403  0.10551210  1
  O  O223  1  0.31774795  0.11928969  0.59672331  1
  O  O224  1  0.40025930  0.59955381  0.09357285  1
  O  O225  1  0.36523942  0.62801478  0.62763870  1
  O  O226  1  0.91525601  0.09392916  0.18438569  1
  O  O227  1  0.82213013  0.05752721  0.70666327  1
  O  O228  1  0.85011192  0.68376343  0.17447927  1
  O  O229  1  0.84502265  0.59486161  0.63692914  1
  O  O230  1  0.22114508  0.28177843  0.08976375  1
  O  O231  1  0.26269673  0.26458007  0.63536891  1
  O  O232  1  0.14872151  0.76161644  0.04909230  1
  O  O233  1  0.29834380  0.71228695  0.52048227  1
  O  O234  1  0.79097513  0.26480091  0.16547354  1
  O  O235  1  0.76758527  0.27447483  0.68546393  1
  O  O236  1  0.80159398  0.74105765  0.15768379  1
  O  O237  1  0.73919179  0.68261327  0.66961917  1
  O  O238  1  0.28672923  0.29212726  0.37436623  1
  O  O239  1  0.26139880  0.26562063  0.87187179  1
  O  O240  1  0.22255320  0.76616498  0.39270987  1
  O  O241  1  0.24291065  0.75073574  0.89903174  1
  O  O242  1  0.70453151  0.24030964  0.48538450  1
  O  O243  1  0.75251087  0.30632298  0.84432620  1
  O  O244  1  0.80748717  0.67479775  0.37370236  1
  O  O245  1  0.77165733  0.80932750  0.93084366  1
  O  O246  1  0.01298510  0.07918449  0.05196081  1
  O  O247  1  0.05293014  0.13780298  0.46442470  1
  O  O248  1  -0.01166775  0.61285740  -0.01914588  1
  O  O249  1  -0.01297738  0.60388899  0.44585636  1
  O  O250  1  0.53134166  0.18897101  -0.02624839  1
  O  O251  1  0.45427530  0.02603815  0.60717805  1
  O  O252  1  0.45472691  0.58225862  -0.07023019  1
  O  O253  1  0.55417002  0.71938036  0.56608988  1
  O  O254  1  0.42977278  0.41527041  0.50611749  1
  O  O255  1  0.49155548  0.36781184  0.92789138  1
  O  O256  1  0.56027408  0.88074521  0.52589921  1
  O  O257  1  0.49341758  0.87584300  0.99432131  1
  O  O258  1  1.02740688  0.30769854  0.50986937  1
  O  O259  1  0.97812860  0.30977032  1.03805502  1
  O  O260  1  0.97311562  0.81781245  0.56993568  1
  O  O261  1  0.99170352  0.79604154  0.91421295  1
  O  O262  1  0.55844238  0.48261694  0.35073903  1
  O  O263  1  0.50873723  0.47258036  0.84057935  1
  O  O264  1  0.50703360  1.00729068  0.39026084  1
  O  O265  1  0.50427781  0.99334856  0.88572049  1
  O  O266  1  0.95713009  0.57410992  0.38931749  1
  O  O267  1  1.07040214  0.50621691  0.89856896  1
  O  O268  1  1.00086073  0.94153984  0.42934837  1
  O  O269  1  0.99034139  0.94260425  0.84262394  1
  O  O270  1  -0.03411448  0.04766582  0.19327492  1
  O  O271  1  -0.04918583  0.09592588  0.59698196  1
  O  O272  1  0.02346333  0.50991897  0.10199988  1
  O  O273  1  -0.00639984  0.44640241  0.58749545  1
  O  O274  1  0.53075607  0.04448498  0.04648962  1
  O  O275  1  0.46746326  -0.03946105  0.62370276  1
  O  O276  1  0.51579761  0.47805670  0.02331672  1
  O  O277  1  0.52805892  0.52747913  0.62194046  1
  O  O278  1  0.23297589  0.37420874  0.21542241  1
  O  O279  1  0.25798331  0.38529084  0.72532760  1
  O  O280  1  0.21782013  0.90188410  0.18247172  1
  O  O281  1  0.24562678  0.89435271  0.77315021  1
  O  O282  1  0.71114187  0.45725560  0.22815692  1
  O  O283  1  0.71100330  0.49128620  0.83250097  1
  O  O284  1  0.77395729  0.84767901  0.30949959  1
  O  O285  1  0.73991579  0.92273827  0.76706284  1
  O  O286  1  0.23465372  0.18917256  0.24766961  1
  O  O287  1  0.22408611  0.09236187  0.73943318  1
  O  O288  1  0.25979637  0.58922787  0.26878965  1
  O  O289  1  0.24025326  0.58643810  0.70510815  1
  O  O290  1  0.68684778  0.16376913  0.25117933  1
  O  O291  1  0.70273560  0.14521788  0.77971400  1
  O  O292  1  0.72382973  0.61562866  0.24988262  1
  O  O293  1  0.71963733  0.64486300  0.85310477  1
  O  O294  1  0.36870481  0.15720450  0.30615132  1
  O  O295  1  0.37688599  0.11759598  0.90949714  1
  O  O296  1  0.49476756  0.61058367  0.43470965  1
  O  O297  1  0.33130973  0.63568413  0.84865796  1
  O  O298  1  0.90632906  0.07038928  0.44007410  1
  O  O299  1  0.88575474  0.12677878  0.96635219  1
  O  O300  1  0.86099652  0.49527218  0.52215813  1
  O  O301  1  0.87690693  0.54602819  0.87168451  1
  O  O302  1  0.13004143  0.40179855  0.11331875  1
  O  O303  1  0.13911018  0.35082805  0.63511352  1
  O  O304  1  0.14828257  0.96700347  0.04517983  1
  O  O305  1  0.10704493  0.86497250  0.52797431  1
  O  O306  1  0.64696714  0.41725806  0.08497107  1
  O  O307  1  0.59137251  0.41705255  0.63693545  1
  O  O308  1  0.56106606  0.88149848  0.24997224  1
  O  O309  1  0.63642632  0.85625051  0.66933096  1
  O  O310  1  0.09097968  0.28036152  0.17724101  1
  O  O311  1  0.14484426  0.26579473  0.76698504  1
  O  O312  1  0.13805793  0.75767566  0.24409101  1
  O  O313  1  0.14336425  0.75833631  0.66829798  1
  O  O314  1  0.65375321  0.26540996  0.34028894  1
  O  O315  1  0.58050449  0.20710735  0.71748481  1
  O  O316  1  0.50554351  0.88008523  0.29275846  1
  O  O317  1  0.59728551  0.71381375  0.75221994  1
  O  O318  1  0.37284085  0.25323335  0.19276493  1
  O  O319  1  0.36624276  0.22194230  0.72224300  1
  O  O320  1  0.29637140  0.72830166  0.15293787  1
  O  O321  1  0.30537575  0.72719865  0.73991012  1
  O  O322  1  0.97672366  0.23116994  0.27962931  1
  O  O323  1  0.85375298  0.17485581  0.81277728  1
  O  O324  1  0.93444193  0.77998178  0.26094293  1
  O  O325  1  0.82699475  0.68905228  0.76147069  1
  O  O326  1  0.43602384  0.57839625  0.45836114  1
  O  O327  1  0.36627050  0.47005858  0.97144181  1
  O  O328  1  0.33802378  0.95234617  0.51908332  1
  O  O329  1  0.39670676  0.97719246  0.99778934  1
  O  O330  1  0.94003099  0.40502782  0.43672250  1
  O  O331  1  0.95010545  0.45436860  0.97793552  1
  O  O332  1  0.89205768  0.94446342  0.54014192  1
  O  O333  1  0.83531929  0.98466926  1.01820097  1
  O  O334  1  0.16646879  0.12524142  0.02068616  1
  O  O335  1  0.17406842  0.03722878  0.49710898  1
  O  O336  1  0.13305939  0.52411611  0.01709733  1
  O  O337  1  0.10156993  0.44545271  0.46765494  1
  O  O338  1  0.62837906  -0.05088885  -0.03192579  1
  O  O339  1  0.60296804  -0.06154023  0.52246040  1
  O  O340  1  0.66430017  0.55418103  -0.03499829  1
  O  O341  1  0.62639335  0.47518322  0.50926847  1
  O  O342  1  0.34523952  0.37436681  0.10410767  1
  O  O343  1  0.40651442  0.41190751  0.57417171  1
  O  O344  1  0.39593541  0.88503560  0.11989517  1
  O  O345  1  0.36339727  0.89648211  0.55354416  1
  O  O346  1  0.87023199  0.40153227  0.09134348  1
  O  O347  1  0.87788231  0.38511237  0.71399710  1
  O  O348  1  0.90386207  0.87388439  0.14731342  1
  O  O349  1  0.85388514  0.79204128  0.65619932  1
  O  O350  1  0.15934419  0.11627167  0.35423909  1
  O  O351  1  0.07739742  0.10741787  0.88859160  1
  O  O352  1  0.20431342  0.61437049  0.31309475  1
  O  O353  1  0.16096949  0.63624442  0.83004303  1
  O  O354  1  0.63402818  0.14807766  0.42272743  1
  O  O355  1  0.71531124  0.11833146  0.97688664  1
  O  O356  1  0.64721368  0.66885963  0.39470729  1
  O  O357  1  0.58515123  0.64097599  0.87574601  1
