# generated using pymatgen
data_V51Zn51O256
_symmetry_space_group_name_H-M   'P 1'
_cell_length_a   17.59725601
_cell_length_b   17.60500408
_cell_length_c   17.64531258
_cell_angle_alpha   90.21641406
_cell_angle_beta   89.45585531
_cell_angle_gamma   90.08023943
_symmetry_Int_Tables_number   1
_chemical_formula_structural   V51Zn51O256
_chemical_formula_sum   'V51 Zn51 O256'
_cell_volume   5466.22306154
_cell_formula_units_Z   1
loop_
 _symmetry_equiv_pos_site_id
 _symmetry_equiv_pos_as_xyz
  1  'x, y, z'
loop_
 _atom_site_type_symbol
 _atom_site_label
 _atom_site_symmetry_multiplicity
 _atom_site_fract_x
 _atom_site_fract_y
 _atom_site_fract_z
 _atom_site_occupancy
  V  V0  1  0.52216018  0.22333107  0.21833181  1
  V  V1  1  0.48506589  0.75217890  0.28014532  1
  V  V2  1  0.02502264  0.73610575  0.27896023  1
  V  V3  1  0.13487065  0.26385009  0.86403157  1
  V  V4  1  -0.08479447  0.12474779  0.66640072  1
  V  V5  1  0.52203418  0.73108948  0.77721761  1
  V  V6  1  0.81837890  0.73073539  0.04226156  1
  V  V7  1  0.39461257  0.74407619  0.10077320  1
  V  V8  1  0.03933831  0.16683728  0.15297134  1
  V  V9  1  0.24546494  0.24872201  0.00208130  1
  V  V10  1  0.84040215  0.62817227  0.21626786  1
  V  V11  1  0.16365421  0.75330969  0.39610406  1
  V  V12  1  0.48577522  -0.00146107  0.03430060  1
  V  V13  1  0.71377004  0.10513850  0.37206279  1
  V  V14  1  0.79155629  0.38368600  0.11734851  1
  V  V15  1  0.10249404  0.13012068  0.45458184  1
  V  V16  1  0.64781175  0.10013202  0.00985270  1
  V  V17  1  0.75521350  0.62755535  0.88372875  1
  V  V18  1  -0.03244622  0.90580829  0.85268009  1
  V  V19  1  -0.00451966  0.47469772  0.54171993  1
  V  V20  1  0.54898863  0.64235820  0.05888826  1
  V  V21  1  0.88481356  -0.00382047  0.34322364  1
  V  V22  1  0.65117630  0.41856548  0.23188900  1
  V  V23  1  0.51817811  0.64260820  0.59992063  1
  V  V24  1  0.51343768  0.87631459  0.87938003  1
  V  V25  1  0.39016240  0.10386419  0.25015816  1
  V  V26  1  0.61921678  -0.01376426  0.59228965  1
  V  V27  1  0.66188640  0.20993621  0.49240139  1
  V  V28  1  0.02353500  0.49536090  -0.04113293  1
  V  V29  1  0.86029685  0.13986455  0.24871896  1
  V  V30  1  0.28225968  0.61242187  0.39133353  1
  V  V31  1  0.19305085  0.08882838  0.90353479  1
  V  V32  1  0.25431031  0.51227144  0.73138263  1
  V  V33  1  0.88690015  0.88000815  0.49950794  1
  V  V34  1  0.24313395  0.64525805  0.87630703  1
  V  V35  1  0.41818574  0.12960527  0.76513588  1
  V  V36  1  0.37546404  0.52273965  0.85616298  1
  V  V37  1  0.92208897  0.35428750  -0.02414355  1
  V  V38  1  0.13368980  0.56776787  0.62963976  1
  V  V39  1  0.08438005  0.74426113  0.85057603  1
  V  V40  1  0.18515603  -0.02611488  0.77956583  1
  V  V41  1  0.91248430  0.88434204  0.03425459  1
  V  V42  1  0.21897418  0.86405850  0.13762094  1
  V  V43  1  0.18323056  0.75085913  0.01660758  1
  V  V44  1  0.02582310  0.00257203  0.06992033  1
  V  V45  1  0.48458987  0.42373305  0.34371263  1
  V  V46  1  0.36940323  0.62341808  0.23611211  1
  V  V47  1  0.71005654  0.43840978  0.76629659  1
  V  V48  1  0.75739813  0.87854728  0.64169546  1
  V  V49  1  0.39219009  0.76498900  0.66816780  1
  V  V50  1  0.67109717  0.34240469  0.60462588  1
  Zn  Zn51  1  0.47868394  0.62130062  0.39993398  1
  Zn  Zn52  1  -0.01231969  0.27458735  0.54784590  1
  Zn  Zn53  1  0.12421591  0.90185707  0.95459168  1
  Zn  Zn54  1  0.41239551  0.14828790  0.94828883  1
  Zn  Zn55  1  0.04433961  0.81507782  0.50072275  1
  Zn  Zn56  1  0.76683515  0.07422929  0.57886374  1
  Zn  Zn57  1  0.57165460  0.55888058  0.87049002  1
  Zn  Zn58  1  -0.05015455  0.56707859  0.37228390  1
  Zn  Zn59  1  0.50457363  0.45494234  0.61322179  1
  Zn  Zn60  1  0.32779700  0.80855872  0.30669049  1
  Zn  Zn61  1  0.23844715  0.17166695  0.18774020  1
  Zn  Zn62  1  0.17896955  0.94098203  0.42658960  1
  Zn  Zn63  1  1.03505401  0.18796826  0.96988557  1
  Zn  Zn64  1  0.64067252  0.29847294  0.08322766  1
  Zn  Zn65  1  0.68947251  0.69591854  0.70613917  1
  Zn  Zn66  1  0.57658575  0.19365185  0.84153570  1
  Zn  Zn67  1  0.21687052  0.72076791  0.21997642  1
  Zn  Zn68  1  0.04584198  0.05837746  0.26787564  1
  Zn  Zn69  1  0.69565371  0.16487987  0.68563645  1
  Zn  Zn70  1  0.45462274  0.95034606  0.69449981  1
  Zn  Zn71  1  0.91949530  0.20182527  0.39337424  1
  Zn  Zn72  1  0.89438693  0.72528433  0.39687575  1
  Zn  Zn73  1  0.24006006  0.17514869  0.73727396  1
  Zn  Zn74  1  0.41798276  0.90947840  0.20190831  1
  Zn  Zn75  1  0.62963487  0.38030502  0.41036662  1
  Zn  Zn76  1  0.21231676  0.77485181  0.73031911  1
  Zn  Zn77  1  0.21912320  0.42434403  0.92484607  1
  Zn  Zn78  1  0.04146594  0.80308143  0.11466841  1
  Zn  Zn79  1  0.37093796  0.29061962  0.26904400  1
  Zn  Zn80  1  0.94894255  0.92895545  0.65325843  1
  Zn  Zn81  1  0.10155319  0.54508163  0.83091871  1
  Zn  Zn82  1  0.43606065  0.68666732  0.93262519  1
  Zn  Zn83  1  0.93701945  0.64490292  0.93302571  1
  Zn  Zn84  1  0.03191913  0.07921825  0.80952022  1
  Zn  Zn85  1  0.74554085  0.40499058  0.95277980  1
  Zn  Zn86  1  0.52521990  0.14330020  0.38213165  1
  Zn  Zn87  1  0.90449540  0.85691690  0.23047632  1
  Zn  Zn88  1  0.30110467  0.04124695  0.07406391  1
  Zn  Zn89  1  0.08802855  0.33072731  0.05774956  1
  Zn  Zn90  1  0.53791324  0.55912808  0.22820692  1
  Zn  Zn91  1  0.82922620  0.54184191  0.03611108  1
  Zn  Zn92  1  0.30424232  0.64934998  0.59062755  1
  Zn  Zn93  1  0.71805740  0.18639359  0.17588115  1
  Zn  Zn94  1  0.76014907  0.28305458  0.32433892  1
  Zn  Zn95  1  0.81434201  0.46389004  0.61978505  1
  Zn  Zn96  1  0.87951141  0.47758841  0.86645574  1
  Zn  Zn97  1  0.32506531  0.07871975  0.63442746  1
  Zn  Zn98  1  0.60528406  0.79646769  0.62465535  1
  Zn  Zn99  1  0.10046074  0.60825956  0.46519903  1
  Zn  Zn100  1  0.72924134  0.94280213  0.46319267  1
  Zn  Zn101  1  0.92140072  0.48664700  0.18945915  1
  O  O102  1  0.12589202  0.14230311  0.19283193  1
  O  O103  1  0.12585627  0.09970692  0.54555726  1
  O  O104  1  0.12835603  0.55131653  0.11596361  1
  O  O105  1  0.11297981  0.65804954  0.63131766  1
  O  O106  1  0.68895443  0.09969728  0.10141354  1
  O  O107  1  0.65639089  0.07248643  0.63085435  1
  O  O108  1  0.63916972  0.66443437  0.06210872  1
  O  O109  1  0.61530539  0.66026573  0.62449273  1
  O  O110  1  0.39803286  0.37720182  0.32629788  1
  O  O111  1  0.43406291  0.33515410  0.81740499  1
  O  O112  1  0.29667648  0.94689060  0.43092557  1
  O  O113  1  0.65011477  0.98373028  0.78314173  1
  O  O114  1  0.98929413  0.34515007  0.34429513  1
  O  O115  1  0.91836446  0.36376116  0.88040445  1
  O  O116  1  0.85306648  0.90686231  0.31039105  1
  O  O117  1  0.90483097  0.87503339  0.92907383  1
  O  O118  1  0.20360330  -0.02373426  0.31149852  1
  O  O119  1  0.17336802  -0.02407416  0.88225353  1
  O  O120  1  0.27505702  0.52010832  0.38816208  1
  O  O121  1  0.23792289  0.54950079  0.83508939  1
  O  O122  1  0.75638476  0.01439949  0.38168910  1
  O  O123  1  0.82074364  0.00538397  0.93168775  1
  O  O124  1  0.77386892  0.48969215  0.39874614  1
  O  O125  1  0.77075923  0.42747595  0.84787364  1
  O  O126  1  0.16682536  0.47262830  0.26807388  1
  O  O127  1  0.24935691  0.57024644  0.64668512  1
  O  O128  1  0.25902061  0.95149304  0.12328289  1
  O  O129  1  0.26278718  0.98661874  0.69008791  1
  O  O130  1  0.75463177  0.45729819  0.05282554  1
  O  O131  1  0.74114932  0.40001609  0.57073653  1
  O  O132  1  0.73034677  0.94728470  0.21341142  1
  O  O133  1  0.75084983  0.96566579  0.57578365  1
  O  O134  1  0.01740273  0.39166899  0.29643218  1
  O  O135  1  0.02990623  0.39097886  0.73855078  1
  O  O136  1  -0.00282274  0.82685816  0.29096114  1
  O  O137  1  -0.05740973  0.89979296  0.75900316  1
  O  O138  1  0.55073641  0.39324063  0.27685822  1
  O  O139  1  0.47101097  0.34703134  0.75952878  1
  O  O140  1  0.43078863  0.84858868  0.29628207  1
  O  O141  1  0.48444376  0.91461320  0.79488750  1
  O  O142  1  0.47495713  0.13358756  0.19906654  1
  O  O143  1  0.50405414  0.17592964  0.76037914  1
  O  O144  1  0.47778964  0.64824575  0.24599868  1
  O  O145  1  0.53281113  0.63831457  0.79382573  1
  O  O146  1  0.97153440  0.14559002  0.22862604  1
  O  O147  1  0.94552430  0.12244789  0.75903709  1
  O  O148  1  1.06835372  0.54881240  0.15534211  1
  O  O149  1  0.90969081  0.64296450  0.63393974  1
  O  O150  1  0.33723115  0.21517826  -0.01184353  1
  O  O151  1  0.40973657  0.33422835  0.57464045  1
  O  O152  1  0.37448953  0.74172119  0.00580184  1
  O  O153  1  0.44255277  0.88318585  0.48147152  1
  O  O154  1  0.95604476  0.26439592  -0.00616090  1
  O  O155  1  0.90539728  0.25623523  0.48268699  1
  O  O156  1  0.91058845  0.72482150  0.01082343  1
  O  O157  1  0.93700489  0.80365714  0.45363443  1
  O  O158  1  0.08019721  0.22450997  0.48850084  1
  O  O159  1  0.12850449  0.25793161  0.98390249  1
  O  O160  1  0.10246739  0.72276686  0.47757864  1
  O  O161  1  0.09340350  0.73114998  1.04298594  1
  O  O162  1  0.57224081  0.17670072  0.48030532  1
  O  O163  1  0.65433502  0.19975363  1.01520391  1
  O  O164  1  0.58789072  0.78685295  0.50890887  1
  O  O165  1  0.73555889  0.76878292  0.97139912  1
  O  O166  1  0.44772956  0.36568843  -0.00371594  1
  O  O167  1  0.35614118  0.29177753  0.59462024  1
  O  O168  1  0.49404374  0.72674460  0.09487064  1
  O  O169  1  0.51055109  0.74621854  0.66618480  1
  O  O170  1  1.04178830  0.25937936  0.13244596  1
  O  O171  1  0.96380811  0.20067465  0.62463502  1
  O  O172  1  1.03277118  0.71174168  0.18636316  1
  O  O173  1  0.88621015  0.70627768  0.61764490  1
  O  O174  1  0.00593963  0.27065155  0.33392522  1
  O  O175  1  0.03902775  0.24825193  0.86480420  1
  O  O176  1  -0.00615541  0.67267928  0.35336857  1
  O  O177  1  -0.00431113  0.70694787  0.86329071  1
  O  O178  1  0.53582508  0.23042238  0.31326096  1
  O  O179  1  0.50635499  0.20205603  0.92462354  1
  O  O180  1  0.50767856  0.72656002  0.37151274  1
  O  O181  1  0.49605138  0.77147548  0.87423815  1
  O  O182  1  0.18984958  0.16771200  0.42905791  1
  O  O183  1  0.24457490  0.07052317  0.98310153  1
  O  O184  1  0.30012484  0.63676638  0.48470439  1
  O  O185  1  0.23475863  0.66965095  0.97453721  1
  O  O186  1  0.72542099  0.12433640  0.48773810  1
  O  O187  1  0.73426525  0.07273299  0.97446095  1
  O  O188  1  0.71409769  0.53016587  0.40008755  1
  O  O189  1  0.78796228  0.64040971  0.99342232  1
  O  O190  1  0.25152908  0.34601990  -0.00218496  1
  O  O191  1  0.25215515  0.36017311  0.50430125  1
  O  O192  1  0.20290088  0.85247383  0.02570454  1
  O  O193  1  0.20259592  0.93205644  0.55262187  1
  O  O194  1  0.82489205  0.34217473  0.00548715  1
  O  O195  1  0.65532942  0.31392828  0.49380081  1
  O  O196  1  0.82098459  0.83972175  0.04925590  1
  O  O197  1  0.79593871  0.85289004  0.46921759  1
  O  O198  1  0.12898452  0.51822431  0.30454410  1
  O  O199  1  0.14258108  0.52804055  0.73012639  1
  O  O200  1  0.14831352  0.98598815  0.26695289  1
  O  O201  1  0.10403690  1.01530630  0.74631223  1
  O  O202  1  0.63431384  0.51265574  0.24616558  1
  O  O203  1  0.62732132  0.47828876  0.79311151  1
  O  O204  1  0.59623361  0.91510282  0.32680796  1
  O  O205  1  0.78481539  1.02863601  0.80805079  1
  O  O206  1  0.39143927  0.00624675  0.24925417  1
  O  O207  1  0.30145309  -0.03866325  0.74978460  1
  O  O208  1  0.38266434  0.53166364  0.22470772  1
  O  O209  1  0.35661817  0.52117303  0.75618537  1
  O  O210  1  0.85877956  0.03848954  0.24564917  1
  O  O211  1  0.84846596  0.06661811  0.94435002  1
  O  O212  1  0.90317396  0.55893696  0.27499363  1
  O  O213  1  0.76191502  0.49841073  0.70707479  1
  O  O214  1  0.13677179  0.38524283  0.40728231  1
  O  O215  1  0.15895532  0.35858797  0.85829383  1
  O  O216  1  0.12706843  0.84884051  0.42210031  1
  O  O217  1  0.05184721  0.85337283  0.86703886  1
  O  O218  1  0.68801945  0.36196647  0.31751551  1
  O  O219  1  0.61482555  0.31661728  0.86407289  1
  O  O220  1  0.63592142  0.86240500  0.34740672  1
  O  O221  1  0.60476899  0.88713840  0.88312551  1
  O  O222  1  0.31650295  0.09631448  0.16805635  1
  O  O223  1  0.41214838  0.05552055  0.69287932  1
  O  O224  1  0.35815187  0.65103050  0.13417796  1
  O  O225  1  0.41232895  0.68283095  0.60332155  1
  O  O226  1  0.83080539  0.16356297  0.16162841  1
  O  O227  1  0.81270915  0.13620771  0.65768253  1
  O  O228  1  0.86899138  0.57041695  0.13458621  1
  O  O229  1  0.81800924  0.60372388  0.50168010  1
  O  O230  1  0.22488896  0.22761067  0.09536070  1
  O  O231  1  0.24453039  0.14517367  0.63279621  1
  O  O232  1  0.22975061  0.75044790  0.11256908  1
  O  O233  1  0.28980916  0.74680996  0.65600669  1
  O  O234  1  0.74785228  0.29230132  0.12507633  1
  O  O235  1  0.68010779  0.23523644  0.59918229  1
  O  O236  1  0.80923018  0.70429768  0.13479077  1
  O  O237  1  0.72674528  0.77980120  0.64011149  1
  O  O238  1  0.16974124  0.35448721  0.35406399  1
  O  O239  1  0.21764665  0.19520873  0.90416544  1
  O  O240  1  0.25914970  0.77587639  0.38967648  1
  O  O241  1  0.15741691  0.78194784  0.91648628  1
  O  O242  1  0.70063905  0.21668270  0.39517953  1
  O  O243  1  0.77862250  0.24977750  0.86325279  1
  O  O244  1  0.65399921  0.71330034  0.42685358  1
  O  O245  1  0.72492741  0.73392837  0.90662753  1
  O  O246  1  0.01789681  0.11589543  0.06439999  1
  O  O247  1  -0.00104010  0.12867169  0.45516566  1
  O  O248  1  0.00723273  0.58195808  -0.00101814  1
  O  O249  1  -0.11996924  0.62688701  0.44958672  1
  O  O250  1  0.54750493  0.09864751  0.04420337  1
  O  O251  1  0.36124745  0.06045784  0.47701037  1
  O  O252  1  0.52403054  0.62387317  -0.03944823  1
  O  O253  1  0.51741499  0.62469012  0.50515587  1
  O  O254  1  0.52127696  0.39599243  0.43002795  1
  O  O255  1  0.58702242  0.34258141  0.92706375  1
  O  O256  1  0.47840612  0.92048969  0.43542235  1
  O  O257  1  0.47818953  0.92590621  0.96444177  1
  O  O258  1  1.01976215  0.37993998  0.53917987  1
  O  O259  1  1.01751980  0.40199235  1.01073953  1
  O  O260  1  0.98880861  0.88888695  0.55664062  1
  O  O261  1  1.02257292  0.89203010  1.02801095  1
  O  O262  1  0.49211440  0.52452127  0.34142409  1
  O  O263  1  0.46967617  0.50586631  0.86669664  1
  O  O264  1  0.33167430  1.00018896  0.39746012  1
  O  O265  1  0.60003947  1.03140866  0.78057617  1
  O  O266  1  1.01542894  0.52870489  0.45373345  1
  O  O267  1  0.99760607  0.50733609  0.86099861  1
  O  O268  1  0.98031678  0.99277317  0.32713219  1
  O  O269  1  0.98732949  0.99713254  0.87492308  1
  O  O270  1  0.03623472  0.00321939  0.16467403  1
  O  O271  1  -0.06247459  0.03843333  0.62639971  1
  O  O272  1  0.03236508  0.47932815  0.15848439  1
  O  O273  1  0.03545653  0.51830122  0.62138194  1
  O  O274  1  0.48259460  -0.03965535  0.11962395  1
  O  O275  1  0.52481038  -0.01626721  0.61267570  1
  O  O276  1  0.53165838  0.56592737  0.11720516  1
  O  O277  1  0.49829273  0.55664571  0.64183519  1
  O  O278  1  0.25564150  0.36554151  0.20967076  1
  O  O279  1  0.25010502  0.42222137  0.71346137  1
  O  O280  1  0.25117898  0.83359735  0.23095992  1
  O  O281  1  0.18352521  0.87974007  0.75605062  1
  O  O282  1  0.75365010  0.42586020  0.20134386  1
  O  O283  1  0.69563165  0.35416379  0.70827007  1
  O  O284  1  0.68818781  0.90354240  0.17385619  1
  O  O285  1  0.77591341  0.90368486  0.72762420  1
  O  O286  1  0.31937368  0.19519935  0.26507886  1
  O  O287  1  0.23062290  0.08018640  0.80940075  1
  O  O288  1  0.26817673  0.63765855  0.26738109  1
  O  O289  1  0.26281010  0.71531636  0.81604879  1
  O  O290  1  0.74284401  0.13593291  0.27740291  1
  O  O291  1  0.78438078  0.09728411  0.81490822  1
  O  O292  1  0.75577074  0.60422328  0.24202567  1
  O  O293  1  0.73886785  0.65340186  0.79098430  1
  O  O294  1  0.42486470  0.11947178  0.34278459  1
  O  O295  1  0.40533083  0.09148069  0.85394617  1
  O  O296  1  0.37704801  0.63631233  0.35156977  1
  O  O297  1  0.35529455  0.61805823  0.89137696  1
  O  O298  1  0.87512404  0.10477933  0.36403101  1
  O  O299  1  0.82842136  0.21359679  0.89451205  1
  O  O300  1  0.84088034  0.71189269  0.30011130  1
  O  O301  1  0.85152795  0.58850824  0.87363684  1
  O  O302  1  0.16006800  0.39014921  0.13237706  1
  O  O303  1  0.05442886  0.33233114  0.71076880  1
  O  O304  1  0.12441521  0.86897100  0.15664591  1
  O  O305  1  0.14969471  0.90463746  0.59156659  1
  O  O306  1  0.61730515  0.38811648  0.14664581  1
  O  O307  1  0.58385814  0.38527459  0.60965236  1
  O  O308  1  0.61787424  0.92100223  0.16584862  1
  O  O309  1  0.64412712  0.89938860  0.64379135  1
  O  O310  1  0.19018028  0.34497170  0.18570500  1
  O  O311  1  0.15643081  0.22896545  0.77327678  1
  O  O312  1  0.12975070  0.74711167  0.29885521  1
  O  O313  1  0.10505162  0.75067987  0.75690516  1
  O  O314  1  0.61139873  0.22684141  0.16983342  1
  O  O315  1  0.66753566  0.18688590  0.78519461  1
  O  O316  1  0.56167501  0.78205346  0.23648525  1
  O  O317  1  0.61204539  0.76550942  0.76548868  1
  O  O318  1  0.45688307  0.28784546  0.19063984  1
  O  O319  1  0.34836138  0.19576308  0.74633782  1
  O  O320  1  0.38483657  0.74141273  0.22895420  1
  O  O321  1  0.40905311  0.74528548  0.76188491  1
  O  O322  1  0.85473015  0.23651787  0.30328238  1
  O  O323  1  0.87682260  0.30319582  0.73779149  1
  O  O324  1  0.89921409  0.72689989  0.24329688  1
  O  O325  1  0.76257257  0.64817712  0.50745425  1
  O  O326  1  0.29432042  0.35626633  0.44905099  1
  O  O327  1  0.32660249  0.45483295  0.90573990  1
  O  O328  1  0.33401482  1.02307921  0.53185569  1
  O  O329  1  0.40568393  1.05459717  1.02172542  1
  O  O330  1  0.89937967  0.47868374  0.55903081  1
  O  O331  1  0.90434184  0.47429098  0.97903741  1
  O  O332  1  0.89347574  0.96644539  0.45142904  1
  O  O333  1  0.91452686  0.98118485  1.05099226  1
  O  O334  1  0.11072742  0.00083947  0.02649816  1
  O  O335  1  0.11696652  0.02991738  0.44065931  1
  O  O336  1  0.12351197  0.49122389  -0.06067686  1
  O  O337  1  0.15347964  0.54263292  0.53606401  1
  O  O338  1  0.61482802  0.00116423  0.01196970  1
  O  O339  1  0.62527027  -0.02756533  0.49510582  1
  O  O340  1  0.64169203  0.36195255  -0.01595584  1
  O  O341  1  0.64994414  0.49941370  0.42888150  1
  O  O342  1  0.47531432  0.42578055  0.01713592  1
  O  O343  1  0.40352015  0.41179047  0.59845137  1
  O  O344  1  0.37875730  0.83933521  0.12379749  1
  O  O345  1  0.40410116  0.85977356  0.64997809  1
  O  O346  1  0.88666923  0.39299853  0.14020361  1
  O  O347  1  0.88477745  0.34679048  0.68365709  1
  O  O348  1  0.93849097  0.84505302  0.12991070  1
  O  O349  1  0.85721672  0.87128304  0.60283762  1
  O  O350  1  0.08644911  0.12803263  0.35182810  1
  O  O351  1  0.09275423  0.10971662  0.90331174  1
  O  O352  1  0.17894025  0.64467094  0.39101617  1
  O  O353  1  0.13567832  0.64800387  0.86499401  1
  O  O354  1  0.62112254  0.08427900  0.36129194  1
  O  O355  1  0.62553174  0.11318986  0.91234788  1
  O  O356  1  0.65637467  0.76488348  0.47607578  1
  O  O357  1  0.68146892  0.56819097  0.90472378  1
