# generated using pymatgen
data_V51Zn51O256
_symmetry_space_group_name_H-M   'P 1'
_cell_length_a   17.60790630
_cell_length_b   17.37998551
_cell_length_c   17.55770105
_cell_angle_alpha   89.80157173
_cell_angle_beta   91.37283374
_cell_angle_gamma   90.98192276
_symmetry_Int_Tables_number   1
_chemical_formula_structural   V51Zn51O256
_chemical_formula_sum   'V51 Zn51 O256'
_cell_volume   5370.74207490
_cell_formula_units_Z   1
loop_
 _symmetry_equiv_pos_site_id
 _symmetry_equiv_pos_as_xyz
  1  'x, y, z'
loop_
 _atom_site_type_symbol
 _atom_site_label
 _atom_site_symmetry_multiplicity
 _atom_site_fract_x
 _atom_site_fract_y
 _atom_site_fract_z
 _atom_site_occupancy
  V  V0  1  0.39960001  0.04702945  0.86934653  1
  V  V1  1  0.48860155  0.88660051  0.38386366  1
  V  V2  1  0.65823425  0.11370721  -0.02671965  1
  V  V3  1  -0.01899656  0.81913555  0.33960491  1
  V  V4  1  0.91169331  0.41532828  0.54747910  1
  V  V5  1  -0.04156370  0.58539628  0.11673206  1
  V  V6  1  0.35149750  0.38087124  0.49449826  1
  V  V7  1  0.48370808  0.13253181  0.61862527  1
  V  V8  1  0.04721533  0.71721887  0.19263877  1
  V  V9  1  0.74734555  0.47816119  0.32243540  1
  V  V10  1  0.11625873  0.14396686  0.06832265  1
  V  V11  1  0.19828250  0.00625692  0.77340286  1
  V  V12  1  0.74384008  0.88104022  0.10806434  1
  V  V13  1  0.63694442  0.64732401  0.51019753  1
  V  V14  1  0.49050416  0.77637986  0.73915234  1
  V  V15  1  0.39228064  0.61157879  0.76223597  1
  V  V16  1  0.37013277  0.52048867  0.37793404  1
  V  V17  1  0.02547903  0.24260417  0.26466473  1
  V  V18  1  0.73177206  0.88304510  0.59414087  1
  V  V19  1  0.76252684  0.66779838  0.85960230  1
  V  V20  1  0.37394333  0.90628366  0.01454938  1
  V  V21  1  0.15921896  0.28782650  0.38270226  1
  V  V22  1  0.37887011  0.23308129  0.13229191  1
  V  V23  1  0.86791034  0.44958473  0.83792551  1
  V  V24  1  0.72737670  0.37177621  0.04193925  1
  V  V25  1  0.33873363  0.27648528  0.63016027  1
  V  V26  1  0.27025699  0.90456925  0.59014283  1
  V  V27  1  0.75851434  0.12285196  0.38758030  1
  V  V28  1  0.03497785  0.10405710  0.57378211  1
  V  V29  1  0.88387396  0.87348038  -0.00494414  1
  V  V30  1  0.63464464  0.88746995  0.77870210  1
  V  V31  1  0.49287893  0.34747548  0.88850140  1
  V  V32  1  0.70494235  0.67527560  0.34087303  1
  V  V33  1  0.27626580  0.09898957  0.37637175  1
  V  V34  1  0.01047462  0.47514729  -0.01421871  1
  V  V35  1  0.52886959  -0.01610083  0.04587489  1
  V  V36  1  0.01384516  -0.02717792  0.05939191  1
  V  V37  1  0.84428853  0.24742111  0.10040700  1
  V  V38  1  0.34698448  0.73325767  0.61945705  1
  V  V39  1  0.02165022  -0.01060806  0.43901154  1
  V  V40  1  0.90627061  0.20713100  0.61687527  1
  V  V41  1  0.49904809  0.63011745  0.62069092  1
  V  V42  1  0.25646705  0.37583221  0.13996915  1
  V  V43  1  0.50264663  0.23478506  0.26139134  1
  V  V44  1  0.67116289  0.51117440  0.63301595  1
  V  V45  1  0.51142382  0.38126726  0.37627656  1
  V  V46  1  0.24488379  0.53376820  0.73423338  1
  V  V47  1  0.50644580  0.48902672  0.51135825  1
  V  V48  1  0.60216554  0.74499537  0.88178294  1
  V  V49  1  0.13554893  0.50640462  0.15578219  1
  V  V50  1  0.84286412  0.72582834  0.10476947  1
  Zn  Zn51  1  0.67518095  0.41722928  0.48538498  1
  Zn  Zn52  1  0.44635148  0.22238215  0.45570393  1
  Zn  Zn53  1  0.09721050  0.46091318  0.80545341  1
  Zn  Zn54  1  0.20158525  0.45540924  0.31428103  1
  Zn  Zn55  1  0.82329808  0.54119851  0.00235003  1
  Zn  Zn56  1  0.36286833  0.50304552  0.61559486  1
  Zn  Zn57  1  0.57286276  0.55368564  0.33746561  1
  Zn  Zn58  1  0.93266619  0.35882519  0.72508039  1
  Zn  Zn59  1  0.36493710  0.22850190  0.93258289  1
  Zn  Zn60  1  0.69503567  0.48970029  0.88781333  1
  Zn  Zn61  1  0.57442380  0.06694853  0.34272537  1
  Zn  Zn62  1  0.57642903  0.56374226  0.78951642  1
  Zn  Zn63  1  0.76795740  0.85462040  0.88838283  1
  Zn  Zn64  1  0.84368187  0.43204706  0.17183359  1
  Zn  Zn65  1  0.90821073  0.95540962  0.57540707  1
  Zn  Zn66  1  0.21149572  0.19872647  0.22043864  1
  Zn  Zn67  1  0.86687384  0.54175241  0.66847861  1
  Zn  Zn68  1  0.04735007  0.29550707  0.54229435  1
  Zn  Zn69  1  0.35628204  0.39986454  0.78257587  1
  Zn  Zn70  1  0.85942315  0.61640839  0.26160930  1
  Zn  Zn71  1  0.81651679  0.56367257  0.47502274  1
  Zn  Zn72  1  0.56871813  0.26803638  0.07793067  1
  Zn  Zn73  1  0.32615832  0.31977592  0.31599015  1
  Zn  Zn74  1  0.04790278  0.58693013  0.29725187  1
  Zn  Zn75  1  0.19782677  1.00655022  0.97834416  1
  Zn  Zn76  1  0.48136796  0.86977872  0.17308481  1
  Zn  Zn77  1  0.95629737  0.18760574  0.42917860  1
  Zn  Zn78  1  0.80443829  0.80825293  0.27614850  1
  Zn  Zn79  1  0.00420575  0.75876767  0.02205155  1
  Zn  Zn80  1  0.79231235  0.32733011  0.40893877  1
  Zn  Zn81  1  0.36425455  0.91965199  0.73355930  1
  Zn  Zn82  1  0.02502917  0.31502635  0.09137334  1
  Zn  Zn83  1  0.10146042  -0.04448149  0.62928194  1
  Zn  Zn84  1  0.63827782  0.76701156  0.19142852  1
  Zn  Zn85  1  0.34647384  0.07841787  0.03716760  1
  Zn  Zn86  1  0.55907230  0.80973979  0.04204983  1
  Zn  Zn87  1  0.95285749  0.13838979  1.12551529  1
  Zn  Zn88  1  0.33763267  0.53979493  0.17241324  1
  Zn  Zn89  1  0.81920056  0.04911131  0.06012782  1
  Zn  Zn90  1  0.33223946  0.08230926  0.67792172  1
  Zn  Zn91  1  0.41589838  0.40533954  0.22427615  1
  Zn  Zn92  1  0.15116348  0.65906313  0.05885376  1
  Zn  Zn93  1  0.68073578  0.71180092  0.68553306  1
  Zn  Zn94  1  0.76507266  0.32270144  0.59702972  1
  Zn  Zn95  1  0.66592522  0.95355791  0.42753132  1
  Zn  Zn96  1  0.57651884  0.07467312  0.81046540  1
  Zn  Zn97  1  0.27886610  0.90419316  0.39095931  1
  Zn  Zn98  1  0.93078381  0.88603610  0.19192838  1
  Zn  Zn99  1  0.19413344  0.46408586  0.97491337  1
  Zn  Zn100  1  0.43908173  0.69151165  0.45536524  1
  Zn  Zn101  1  0.17898662  0.15803796  0.64296336  1
  O  O102  1  0.15387161  0.12890790  0.15748685  1
  O  O103  1  0.12441244  0.06583936  0.59767781  1
  O  O104  1  0.07604739  0.59128453  0.13018048  1
  O  O105  1  0.09615121  0.60337293  0.56466497  1
  O  O106  1  0.66170577  0.07010896  0.16982301  1
  O  O107  1  0.58588150  0.13491527  0.65823873  1
  O  O108  1  0.54639987  0.48963979  0.09515206  1
  O  O109  1  0.61972073  0.62236930  0.62098500  1
  O  O110  1  0.38869676  0.38979803  0.38984162  1
  O  O111  1  0.38623265  0.35540151  0.89495962  1
  O  O112  1  0.38851712  0.88841563  0.37746828  1
  O  O113  1  0.39166561  0.95879875  0.91108653  1
  O  O114  1  0.87790380  0.37792786  0.46360800  1
  O  O115  1  0.89273359  0.35452797  0.82907096  1
  O  O116  1  0.95895357  0.73210560  0.37063469  1
  O  O117  1  0.88291020  0.87717427  0.89876491  1
  O  O118  1  0.26654191  0.00491611  0.35128080  1
  O  O119  1  0.19285074  0.01906853  0.86969827  1
  O  O120  1  0.27308935  0.51443857  0.37872528  1
  O  O121  1  0.19714286  0.43238980  0.86330117  1
  O  O122  1  0.75871542  0.02551181  0.42633305  1
  O  O123  1  0.79377443  0.06302161  0.74221062  1
  O  O124  1  0.75079067  0.48525800  0.42529353  1
  O  O125  1  0.77281865  0.45668694  0.82043326  1
  O  O126  1  0.22491386  0.54404324  0.15227003  1
  O  O127  1  0.25257291  0.51077575  0.64102764  1
  O  O128  1  0.13972045  0.94892871  0.25382851  1
  O  O129  1  0.30045437  0.99729001  0.60841424  1
  O  O130  1  0.78429243  0.45258865  0.07455844  1
  O  O131  1  0.75832868  0.55160121  0.65006653  1
  O  O132  1  0.76594079  0.97470929  0.12532283  1
  O  O133  1  0.66644147  0.97070742  0.61800634  1
  O  O134  1  -0.01107670  0.42987851  0.33576550  1
  O  O135  1  0.04664560  0.38938417  0.73194983  1
  O  O136  1  0.00625327  0.80046494  0.22938779  1
  O  O137  1  -0.03734158  0.82053490  0.71017317  1
  O  O138  1  0.50979441  0.40474480  0.28076978  1
  O  O139  1  0.47405777  0.38436668  0.79413669  1
  O  O140  1  0.49469332  0.86787561  0.28111151  1
  O  O141  1  0.46076597  0.86801369  0.73748792  1
  O  O142  1  0.51169707  0.14058131  0.29238916  1
  O  O143  1  0.54041275  0.14340333  0.72120167  1
  O  O144  1  0.51533934  0.62937194  0.26749225  1
  O  O145  1  0.49603838  0.60382857  0.72661859  1
  O  O146  1  0.99443543  0.15829131  0.22505832  1
  O  O147  1  0.94574618  0.03849818  0.85460027  1
  O  O148  1  0.96605579  0.61792945  0.22634420  1
  O  O149  1  0.99705044  0.63645214  0.69901915  1
  O  O150  1  0.37314897  0.26044904  0.03893489  1
  O  O151  1  0.37208072  0.27836841  0.51462469  1
  O  O152  1  0.33562739  0.82797768  -0.01947590  1
  O  O153  1  0.37458243  0.74128413  0.52614994  1
  O  O154  1  0.93499690  0.24404521  0.06623095  1
  O  O155  1  0.94110930  0.24008757  0.52780994  1
  O  O156  1  0.88775489  0.76594604  0.00810561  1
  O  O157  1  0.93843181  0.75965214  0.54541643  1
  O  O158  1  0.11325993  0.26211740  0.46434920  1
  O  O159  1  0.09862178  0.24044930  1.05880673  1
  O  O160  1  0.18045169  0.71423793  0.46540933  1
  O  O161  1  0.24651621  0.69634118  0.93123554  1
  O  O162  1  0.57102476  0.32578927  0.64764614  1
  O  O163  1  0.61986942  0.18707996  1.02426756  1
  O  O164  1  0.63054343  0.73958005  0.51757938  1
  O  O165  1  0.57774820  0.72750467  0.97236537  1
  O  O166  1  0.48505911  0.23088954  0.14514540  1
  O  O167  1  0.51227551  0.28668245  0.65150280  1
  O  O168  1  0.51137607  0.58587422  0.01917750  1
  O  O169  1  0.50622925  0.72889356  0.63772543  1
  O  O170  1  1.01290762  0.31731493  0.20220082  1
  O  O171  1  1.07209644  0.19654971  0.60247226  1
  O  O172  1  0.96937693  0.70123101  0.11256082  1
  O  O173  1  1.04289519  0.69211485  0.68925960  1
  O  O174  1  -0.02245949  0.25602180  0.34894476  1
  O  O175  1  0.01600201  0.19503132  0.88653896  1
  O  O176  1  0.10076630  0.68220691  0.26721649  1
  O  O177  1  0.02376672  0.69257655  0.85577022  1
  O  O178  1  0.48702265  0.27631550  0.36711514  1
  O  O179  1  0.46022652  0.24847614  0.87119205  1
  O  O180  1  0.47755090  0.78489391  0.40136089  1
  O  O181  1  0.50226871  0.75139817  0.83449274  1
  O  O182  1  0.21370643  0.11851693  0.46385807  1
  O  O183  1  0.18358243  0.11815314  1.00492640  1
  O  O184  1  0.21378514  0.65563768  0.45018473  1
  O  O185  1  0.33003798  0.67322318  1.06219342  1
  O  O186  1  0.71618835  0.14086966  0.47686774  1
  O  O187  1  0.75371733  0.10248684  0.99052938  1
  O  O188  1  0.73367723  0.62883599  0.50951476  1
  O  O189  1  0.75253117  0.58478981  0.92403392  1
  O  O190  1  0.24581723  0.39330567  0.04271407  1
  O  O191  1  0.26052918  0.38978995  0.48483768  1
  O  O192  1  0.29597563  0.97717925  0.02595081  1
  O  O193  1  0.27431324  0.88583090  0.49534761  1
  O  O194  1  0.69716445  0.39880293  -0.04541853  1
  O  O195  1  0.72587771  0.31779226  0.49291128  1
  O  O196  1  0.78213371  0.88613267  0.00026013  1
  O  O197  1  0.71552023  0.88732784  0.49746321  1
  O  O198  1  0.11691290  0.50900761  0.25562560  1
  O  O199  1  0.14972694  0.54060823  0.75227241  1
  O  O200  1  0.15680091  0.89509539  0.21399627  1
  O  O201  1  0.10929630  0.97918853  0.73917613  1
  O  O202  1  0.65697629  0.50099724  0.29282891  1
  O  O203  1  0.62684596  0.49703152  0.71622208  1
  O  O204  1  0.64729212  0.98511396  0.31909929  1
  O  O205  1  0.59542536  0.97612617  0.77039963  1
  O  O206  1  0.35611652  0.00472498  0.21009255  1
  O  O207  1  0.38042728  0.03290542  0.76994464  1
  O  O208  1  0.38305924  0.50639866  0.27786396  1
  O  O209  1  0.36810221  0.50703591  0.74078167  1
  O  O210  1  0.89493403  -0.12969838  0.29494610  1
  O  O211  1  0.95266826  0.05925345  0.78831008  1
  O  O212  1  0.81877378  0.50618793  0.25117691  1
  O  O213  1  0.91293726  0.48834586  0.75396286  1
  O  O214  1  0.13882057  0.38144101  0.36760963  1
  O  O215  1  0.21058497  0.27325050  0.91049092  1
  O  O216  1  0.07221021  0.83802773  0.35939109  1
  O  O217  1  0.16622696  0.78123760  0.81374674  1
  O  O218  1  0.60407565  0.38153721  0.40027860  1
  O  O219  1  0.58124275  0.33044547  0.85461812  1
  O  O220  1  0.59091846  0.87105181  0.39577488  1
  O  O221  1  0.60906510  0.85480839  0.87044801  1
  O  O222  1  0.34993894  0.13984197  0.13095006  1
  O  O223  1  0.39023551  0.18156093  0.64498753  1
  O  O224  1  0.42262807  0.62653148  0.17793349  1
  O  O225  1  0.39503281  0.62519417  0.62092823  1
  O  O226  1  0.83890703  0.14620602  0.12732455  1
  O  O227  1  0.94062356  0.10815883  0.61918818  1
  O  O228  1  0.85731220  0.61470466  0.08767714  1
  O  O229  1  0.87862262  0.72797415  0.52582091  1
  O  O230  1  0.27156478  0.27407449  0.15103115  1
  O  O231  1  0.24837206  0.24238050  0.61484975  1
  O  O232  1  0.26705656  0.69643780  0.09566879  1
  O  O233  1  0.25881417  0.70481395  0.61568747  1
  O  O234  1  0.78095075  0.28254860  0.02855263  1
  O  O235  1  0.81016049  0.21932063  0.61939157  1
  O  O236  1  0.75326042  0.73335976  0.07773051  1
  O  O237  1  0.73429970  0.79018391  0.62893621  1
  O  O238  1  0.25549162  0.27131535  0.38489109  1
  O  O239  1  0.26198062  0.25075751  0.86839064  1
  O  O240  1  0.24144497  0.80541245  0.34327876  1
  O  O241  1  0.24358939  0.62531582  0.92213510  1
  O  O242  1  0.78486584  0.22158259  0.36366143  1
  O  O243  1  0.79866488  0.21141729  0.84560155  1
  O  O244  1  0.74129449  0.76485055  0.35824139  1
  O  O245  1  0.71456310  0.75537664  0.89358055  1
  O  O246  1  0.02340250  0.08738615  0.06010272  1
  O  O247  1  0.01569176  0.10200425  0.47375354  1
  O  O248  1  -0.01997814  0.57115000  0.01775739  1
  O  O249  1  0.07127274  0.66623912  0.54662737  1
  O  O250  1  0.61085405  0.11714667  0.16819024  1
  O  O251  1  0.50328416  0.16333634  0.52760942  1
  O  O252  1  0.49455712  0.52436467  0.05485769  1
  O  O253  1  0.51455832  0.62709871  0.51413725  1
  O  O254  1  0.50107392  0.39132463  0.50231458  1
  O  O255  1  0.51345461  0.31671457  0.98272980  1
  O  O256  1  0.48865263  0.91929214  0.47665457  1
  O  O257  1  0.49213924  0.89614716  1.00278405  1
  O  O258  1  1.00747227  0.39623085  0.55867949  1
  O  O259  1  0.97960282  0.39187490  1.02641983  1
  O  O260  1  0.97425984  0.88595647  0.44224652  1
  O  O261  1  0.99136681  0.87259225  1.02305111  1
  O  O262  1  0.49799089  0.49876107  0.40020560  1
  O  O263  1  0.50511585  0.43874646  0.92770382  1
  O  O264  1  0.49293244  0.98486716  0.34533861  1
  O  O265  1  0.49119822  1.07765887  0.87634954  1
  O  O266  1  0.91496692  0.57659277  0.40642238  1
  O  O267  1  1.04113634  0.46521045  0.89487768  1
  O  O268  1  1.00181078  1.00881012  0.34876219  1
  O  O269  1  1.10141101  0.80143925  0.79880730  1
  O  O270  1  0.00628138  -0.04152480  0.15478128  1
  O  O271  1  0.00945518  -0.01476285  0.57051198  1
  O  O272  1  -0.06095139  0.49336745  0.14355764  1
  O  O273  1  -0.07495157  0.64588141  0.66802047  1
  O  O274  1  0.54362814  -0.03796647  0.13972606  1
  O  O275  1  0.45760123  0.04190743  0.61799255  1
  O  O276  1  0.48668092  0.59496845  0.20514032  1
  O  O277  1  0.48456381  0.51160717  0.60645979  1
  O  O278  1  0.26325370  0.38959188  0.24975924  1
  O  O279  1  0.26127452  0.45639696  0.81738663  1
  O  O280  1  0.29471112  0.97177160  0.20235715  1
  O  O281  1  0.25839764  0.93066582  0.75711300  1
  O  O282  1  0.76053511  0.38028009  0.31670056  1
  O  O283  1  0.71017790  0.29901996  0.73645020  1
  O  O284  1  0.72345032  0.84017036  0.20154600  1
  O  O285  1  0.73129056  0.89609376  0.79105612  1
  O  O286  1  0.27942983  0.14912311  0.29151931  1
  O  O287  1  0.22869962  0.09551701  0.72369205  1
  O  O288  1  0.28024219  0.76945114  0.28792073  1
  O  O289  1  0.28559702  0.62475889  0.75488830  1
  O  O290  1  0.77107604  0.07889636  0.29975162  1
  O  O291  1  0.73443445  0.09360483  0.72197126  1
  O  O292  1  0.66845604  0.67888731  0.25000840  1
  O  O293  1  0.74387173  0.65884771  0.76179390  1
  O  O294  1  0.38244715  0.12844257  0.40320630  1
  O  O295  1  0.34961027  0.11753964  0.92688624  1
  O  O296  1  0.39073848  0.61616381  0.39136313  1
  O  O297  1  0.40904346  0.61362376  0.85274325  1
  O  O298  1  0.85714208  0.13197570  0.41736083  1
  O  O299  1  0.84318548  0.15849892  0.84283051  1
  O  O300  1  0.78241124  0.61111723  0.34400542  1
  O  O301  1  0.85255682  0.69256282  0.86604180  1
  O  O302  1  0.15448533  0.40448164  0.15287745  1
  O  O303  1  0.09918230  0.32560214  0.70832759  1
  O  O304  1  0.09075817  0.71348799  -0.02671721  1
  O  O305  1  0.17789040  0.88361144  0.61387172  1
  O  O306  1  0.64889431  0.34685729  0.09340623  1
  O  O307  1  0.69533444  0.41614025  0.60422037  1
  O  O308  1  0.65542306  0.87024105  0.06694922  1
  O  O309  1  0.63991527  0.90316920  0.64815934  1
  O  O310  1  0.12838880  0.23857746  0.29081008  1
  O  O311  1  0.14483028  0.30366545  0.75986479  1
  O  O312  1  0.11281627  0.74553752  0.12528848  1
  O  O313  1  0.07392612  0.66560202  0.89779665  1
  O  O314  1  0.58785649  0.26960731  0.25064001  1
  O  O315  1  0.67045708  0.24047609  0.74184580  1
  O  O316  1  0.54146243  0.78172134  0.14758615  1
  O  O317  1  0.60074406  0.79290718  0.73310762  1
  O  O318  1  0.39838908  0.28457034  0.23670396  1
  O  O319  1  0.33786734  0.30759047  0.72289647  1
  O  O320  1  0.30600560  0.80907075  0.23278496  1
  O  O321  1  0.39606912  0.72310020  0.72892508  1
  O  O322  1  0.92633040  0.40794449  0.31223145  1
  O  O323  1  0.94874658  0.25220853  0.69263154  1
  O  O324  1  0.84003767  0.71684203  0.20716528  1
  O  O325  1  0.93480470  0.79170304  0.76687796  1
  O  O326  1  0.38731882  0.49055016  0.49396727  1
  O  O327  1  0.34002665  0.59907788  1.05647880  1
  O  O328  1  0.35184408  1.08511153  0.46065199  1
  O  O329  1  0.45389085  1.04362945  1.04191217  1
  O  O330  1  0.88609504  0.51529059  0.55598122  1
  O  O331  1  0.89232001  0.48658290  0.93099373  1
  O  O332  1  0.91258644  0.93590343  0.45749676  1
  O  O333  1  0.90746706  0.98253135  1.02692857  1
  O  O334  1  0.10567673  -0.03075732  0.02951117  1
  O  O335  1  0.11299657  -0.03058254  0.44765235  1
  O  O336  1  0.10168320  0.48305664  0.03712957  1
  O  O337  1  -0.02004766  0.56538602  0.44667082  1
  O  O338  1  0.61173365  0.02502099  0.00195266  1
  O  O339  1  0.59341665  0.03470829  0.45052791  1
  O  O340  1  0.59265119  0.52027350  -0.11409872  1
  O  O341  1  0.61083472  0.50827160  0.52421577  1
  O  O342  1  0.35079818  0.42998356  0.13865534  1
  O  O343  1  0.36001645  0.38286177  0.60246000  1
  O  O344  1  0.39216442  0.88549605  0.11155798  1
  O  O345  1  0.33753264  0.84088832  0.64065936  1
  O  O346  1  0.84139570  0.31600790  0.17020948  1
  O  O347  1  0.86604405  0.37317025  0.62698438  1
  O  O348  1  0.85317044  0.84254573  0.12035179  1
  O  O349  1  0.81882903  0.92769696  0.61601162  1
  O  O350  1  0.17236430  0.12702536  0.39866555  1
  O  O351  1  0.07051714  0.18671789  0.84529655  1
  O  O352  1  0.04444415  0.57017990  0.40856082  1
  O  O353  1  0.19628624  0.58225959  0.97907646  1
  O  O354  1  0.66487894  0.14214703  0.34890339  1
  O  O355  1  0.64794761  0.12752886  0.87644440  1
  O  O356  1  0.62460081  0.63977579  0.39873125  1
  O  O357  1  0.61893528  0.65885059  0.83762094  1
