# generated using pymatgen
data_V51Zn51O256
_symmetry_space_group_name_H-M   'P 1'
_cell_length_a   17.78518948
_cell_length_b   18.00215335
_cell_length_c   17.52895010
_cell_angle_alpha   91.24931977
_cell_angle_beta   90.98704772
_cell_angle_gamma   89.36073161
_symmetry_Int_Tables_number   1
_chemical_formula_structural   V51Zn51O256
_chemical_formula_sum   'V51 Zn51 O256'
_cell_volume   5609.78087920
_cell_formula_units_Z   1
loop_
 _symmetry_equiv_pos_site_id
 _symmetry_equiv_pos_as_xyz
  1  'x, y, z'
loop_
 _atom_site_type_symbol
 _atom_site_label
 _atom_site_symmetry_multiplicity
 _atom_site_fract_x
 _atom_site_fract_y
 _atom_site_fract_z
 _atom_site_occupancy
  V  V0  1  0.43420411  0.82060630  0.01701929  1
  V  V1  1  0.38901799  0.49580490  0.41897987  1
  V  V2  1  0.57158357  0.61794227  0.06841397  1
  V  V3  1  0.68160993  0.61482114  0.91111001  1
  V  V4  1  0.14413321  0.80429378  0.86207877  1
  V  V5  1  0.85360662  0.05291418  0.72352925  1
  V  V6  1  0.81227792  0.76321908  0.03635845  1
  V  V7  1  0.87745632  0.25761196  0.09775659  1
  V  V8  1  0.40600441  0.06583520  0.39538698  1
  V  V9  1  -0.01269464  0.35501768  0.34629302  1
  V  V10  1  0.58891602  0.70557517  0.33146071  1
  V  V11  1  0.50682540  0.84743746  0.35144325  1
  V  V12  1  0.26588056  0.90325943  0.07558101  1
  V  V13  1  0.64483118  0.49105634  0.60063549  1
  V  V14  1  0.38555670  0.28476769  0.62840751  1
  V  V15  1  0.13178770  0.24579645  0.40134054  1
  V  V16  1  0.35405169  0.84181175  0.46365345  1
  V  V17  1  0.64200665  0.23529291  0.40662308  1
  V  V18  1  0.16198382  0.36758184  0.64885582  1
  V  V19  1  0.87795207  0.13279678  0.20169700  1
  V  V20  1  0.04759926  0.25567014  0.19794505  1
  V  V21  1  0.76697317  0.13843383  0.87780463  1
  V  V22  1  0.62622685  0.65298447  0.51929947  1
  V  V23  1  0.47869405  0.60123616  0.62716150  1
  V  V24  1  0.65951986  0.82006671  0.77258199  1
  V  V25  1  0.35264432  0.81397395  0.63676886  1
  V  V26  1  0.42802302  0.01226755  0.89761883  1
  V  V27  1  0.90892403  0.58185482  0.80186516  1
  V  V28  1  0.17613805  0.36822116  0.28005748  1
  V  V29  1  0.10340796  0.53134761  0.02249594  1
  V  V30  1  0.09579437  0.53442590  0.55813294  1
  V  V31  1  0.61557746  0.12835268  0.56843783  1
  V  V32  1  0.00172289  0.27724597  0.70426430  1
  V  V33  1  0.11586480  0.89704902  0.71625822  1
  V  V34  1  0.65146867  0.06796201  0.00248066  1
  V  V35  1  0.73705276  0.43625399  0.33783712  1
  V  V36  1  0.73552760  0.87711711  0.14661279  1
  V  V37  1  0.18202346  0.66565195  0.31996878  1
  V  V38  1  0.93429060  0.31653431  0.52168527  1
  V  V39  1  0.25030728  0.02343634  0.31106686  1
  V  V40  1  0.48139155  0.48114125  -0.03897510  1
  V  V41  1  0.90262729  0.51776222  0.36579390  1
  V  V42  1  0.27763810  0.33839577  0.13525633  1
  V  V43  1  0.37781168  0.35493539  -0.03971847  1
  V  V44  1  0.85497243  0.38755082  -0.00039170  1
  V  V45  1  0.50968690  0.79814869  0.87375155  1
  V  V46  1  0.12812945  0.93228090  0.19838340  1
  V  V47  1  0.24376616  0.02019480  0.65610820  1
  V  V48  1  0.59939459  -0.05506010  0.67165073  1
  V  V49  1  -0.05280445  0.74379829  0.77216367  1
  V  V50  1  0.66033577  0.40288597  0.76085587  1
  Zn  Zn51  1  0.24515514  0.70071346  0.18091363  1
  Zn  Zn52  1  0.73410148  -0.01230257  0.57620885  1
  Zn  Zn53  1  0.67841265  0.44372352  0.96486589  1
  Zn  Zn54  1  0.77246589  0.71981180  0.79244058  1
  Zn  Zn55  1  0.36585148  0.03490139  0.05877774  1
  Zn  Zn56  1  0.62141965  -0.00329269  0.85259578  1
  Zn  Zn57  1  0.11767509  0.11612332  0.28441736  1
  Zn  Zn58  1  0.58736679  0.53130664  0.40034969  1
  Zn  Zn59  1  0.40833282  0.95833928  0.72735438  1
  Zn  Zn60  1  0.52168937  0.76766477  0.68680411  1
  Zn  Zn61  1  0.08764845  0.52072702  0.35840827  1
  Zn  Zn62  1  0.06438457  0.63209179  0.87703167  1
  Zn  Zn63  1  0.40413625  0.90128508  0.19008025  1
  Zn  Zn64  1  0.97658709  0.92984996  0.79360535  1
  Zn  Zn65  1  0.44575366  0.64287473  0.93970468  1
  Zn  Zn66  1  0.44642624  0.17168665  0.99226240  1
  Zn  Zn67  1  0.64606013  0.38600551  0.48894994  1
  Zn  Zn68  1  0.25840992  0.51064863  0.25487012  1
  Zn  Zn69  1  0.81423717  0.45855900  0.51508612  1
  Zn  Zn70  1  0.67454052  0.11788317  0.73430116  1
  Zn  Zn71  1  1.03625717  1.05621749  0.15716591  1
  Zn  Zn72  1  0.48930211  0.41874842  0.69391297  1
  Zn  Zn73  1  0.37831104  0.08071204  0.57443724  1
  Zn  Zn74  1  0.83761857  0.24564350  0.36665944  1
  Zn  Zn75  1  0.20849443  0.72695620  0.69352797  1
  Zn  Zn76  1  0.10414251  0.92526100  0.00625753  1
  Zn  Zn77  1  0.87212398  0.25640524  0.88286581  1
  Zn  Zn78  1  0.83435604  0.57551232  -0.01400426  1
  Zn  Zn79  1  0.31272039  0.34243373  0.76666892  1
  Zn  Zn80  1  0.58475099  0.28900941  0.64583769  1
  Zn  Zn81  1  0.99778134  0.77535310  0.96718780  1
  Zn  Zn82  1  0.25158679  0.21770404  0.27472350  1
  Zn  Zn83  1  0.64096233  0.86434818  0.98831881  1
  Zn  Zn84  1  0.54960625  0.11232455  0.29105839  1
  Zn  Zn85  1  0.02830267  0.08738164  0.73075659  1
  Zn  Zn86  1  0.68172821  0.84272815  0.32722860  1
  Zn  Zn87  1  0.30358080  0.50421338  0.05486053  1
  Zn  Zn88  1  0.80792677  0.05357994  0.07163045  1
  Zn  Zn89  1  0.31040759  0.21832288  0.47283925  1
  Zn  Zn90  1  0.19448574  0.41762067  0.46294336  1
  Zn  Zn91  1  0.61800584  0.62198926  0.72851134  1
  Zn  Zn92  1  0.24144309  0.83582170  0.30324763  1
  Zn  Zn93  1  0.63445337  0.84879195  0.49983321  1
  Zn  Zn94  1  0.45049498  0.68241947  0.45388974  1
  Zn  Zn95  1  0.63722805  0.54975319  0.22629499  1
  Zn  Zn96  1  0.87827334  0.39618289  0.79006443  1
  Zn  Zn97  1  0.00950302  0.39443797  0.13226371  1
  Zn  Zn98  1  0.24387899  0.19395053  0.65133964  1
  Zn  Zn99  1  0.32830285  0.86438619  0.84209366  1
  Zn  Zn100  1  0.05481725  0.75098131  0.60641688  1
  Zn  Zn101  1  0.56019313  0.80228910  0.15545548  1
  O  O102  1  0.22466477  0.11323794  0.05663058  1
  O  O103  1  0.01252801  0.11989438  0.51441665  1
  O  O104  1  0.03538054  0.72610518  0.19216396  1
  O  O105  1  0.13146450  0.66835339  0.63596789  1
  O  O106  1  0.65589704  0.05794568  0.09388880  1
  O  O107  1  0.62760252  0.03964992  0.67080934  1
  O  O108  1  0.62347057  0.55393828  0.12115348  1
  O  O109  1  0.63120331  0.59698110  0.61293527  1
  O  O110  1  0.42058579  0.40634293  0.42020591  1
  O  O111  1  0.32522255  0.34507402  0.87816858  1
  O  O112  1  0.44212110  0.87285066  0.42768438  1
  O  O113  1  0.41233455  0.82566327  0.90674698  1
  O  O114  1  0.89564284  0.33780043  0.33265342  1
  O  O115  1  0.87177346  0.36582306  0.89751440  1
  O  O116  1  0.87307488  0.92920252  0.35190336  1
  O  O117  1  0.84721261  0.88560706  0.89881435  1
  O  O118  1  0.21550242  0.02903376  0.39553003  1
  O  O119  1  0.36295061  -0.03006807  0.83100646  1
  O  O120  1  0.29570168  0.47400451  0.44787976  1
  O  O121  1  0.31168292  0.60844309  0.85121115  1
  O  O122  1  0.71114241  0.04389548  0.30825758  1
  O  O123  1  0.80349264  -0.06471808  0.91599918  1
  O  O124  1  0.74070855  0.41628957  0.43650053  1
  O  O125  1  0.73151164  0.53932508  0.95061759  1
  O  O126  1  0.31628948  0.47309348  0.16605950  1
  O  O127  1  0.25801724  0.54039508  0.65735976  1
  O  O128  1  0.32845544  0.96409535  0.13261198  1
  O  O129  1  0.21997224  1.01465136  0.56610507  1
  O  O130  1  0.80404537  0.56779260  0.17978935  1
  O  O131  1  0.73809761  0.48944991  0.58732453  1
  O  O132  1  0.77674967  0.94877665  0.10250093  1
  O  O133  1  0.64354298  0.92594620  0.57729905  1
  O  O134  1  0.02875719  0.36101613  0.24234827  1
  O  O135  1  0.06437392  0.34868269  0.70844737  1
  O  O136  1  0.08751768  0.97069705  0.10783750  1
  O  O137  1  -0.08020377  0.83375454  0.77062358  1
  O  O138  1  0.56456587  0.36288559  0.23910209  1
  O  O139  1  0.57136830  0.35796522  0.73842614  1
  O  O140  1  0.46833841  0.90071582  0.28026140  1
  O  O141  1  0.49281619  0.82330057  0.78174158  1
  O  O142  1  0.53435341  0.13169092  0.17693419  1
  O  O143  1  0.50143532  0.18979232  0.79622824  1
  O  O144  1  0.43629535  0.58163663  0.19640156  1
  O  O145  1  0.51669904  0.66100450  0.70142558  1
  O  O146  1  1.07228400  0.15788163  0.19050717  1
  O  O147  1  0.92742389  0.09643734  0.68310228  1
  O  O148  1  0.97719632  0.60402678  0.19509298  1
  O  O149  1  1.00301723  0.59027469  0.78957251  1
  O  O150  1  0.41946606  0.27324270  -0.00994523  1
  O  O151  1  0.34893619  0.30952442  0.54069242  1
  O  O152  1  0.43010914  0.72862506  0.02078067  1
  O  O153  1  0.36431460  0.74895494  0.46863864  1
  O  O154  1  0.86355314  0.26841497  -0.00245669  1
  O  O155  1  0.88809718  0.25171648  0.46845116  1
  O  O156  1  0.89973464  0.79314806  0.00685147  1
  O  O157  1  0.72706188  0.87595611  0.43502507  1
  O  O158  1  0.11762271  0.25730177  0.49202573  1
  O  O159  1  0.18565499  0.17110383  1.04582948  1
  O  O160  1  0.06598144  0.72612323  0.49007748  1
  O  O161  1  0.09210000  0.82880291  0.95381761  1
  O  O162  1  0.63152779  0.18702331  0.65384163  1
  O  O163  1  0.61464916  0.16803551  0.98689809  1
  O  O164  1  0.62601377  0.74768779  0.53190177  1
  O  O165  1  0.55686762  0.69695984  1.11962810  1
  O  O166  1  0.45311823  0.26321538  0.22235882  1
  O  O167  1  0.47907936  0.25914423  0.62182316  1
  O  O168  1  0.41940906  0.63942911  0.23119229  1
  O  O169  1  0.44177230  0.78724900  0.61458719  1
  O  O170  1  1.06710418  0.29055053  0.11352602  1
  O  O171  1  0.97475931  0.27076212  0.60483673  1
  O  O172  1  0.98954647  0.75635562  0.14980768  1
  O  O173  1  1.00218716  0.72675955  0.69589721  1
  O  O174  1  0.02826169  0.26751476  0.35145238  1
  O  O175  1  0.09722084  0.24363491  0.89497900  1
  O  O176  1  -0.04389445  0.81539945  0.47368602  1
  O  O177  1  -0.00868894  0.73062198  0.86102573  1
  O  O178  1  0.45675379  0.29742562  0.37655261  1
  O  O179  1  0.54635255  0.21778940  0.84221926  1
  O  O180  1  0.49618353  0.74673526  0.37331539  1
  O  O181  1  0.50978145  0.70473173  0.87560556  1
  O  O182  1  0.07557082  0.09779651  0.53120382  1
  O  O183  1  0.29009020  0.10670800  1.01320651  1
  O  O184  1  0.22564769  0.67108812  0.40265554  1
  O  O185  1  0.22078189  0.70930823  1.07010222  1
  O  O186  1  0.69676177  0.08480985  0.54217005  1
  O  O187  1  0.75040303  0.09255103  0.97742487  1
  O  O188  1  0.71006899  0.62847999  0.49073710  1
  O  O189  1  0.81101270  0.66761135  1.03919895  1
  O  O190  1  0.29532189  0.34775245  0.03729125  1
  O  O191  1  0.20988877  0.38962060  0.56557281  1
  O  O192  1  0.33042702  0.84034376  0.03489578  1
  O  O193  1  0.28448148  0.86164806  0.39934304  1
  O  O194  1  0.75955799  0.38757794  0.01160307  1
  O  O195  1  0.76048356  0.26450953  0.58678588  1
  O  O196  1  0.73980654  0.80650988  -0.01178760  1
  O  O197  1  0.85722206  0.99157010  0.37673928  1
  O  O198  1  0.16272814  0.46862797  0.28681879  1
  O  O199  1  0.15971247  0.61795338  0.58144213  1
  O  O200  1  0.09891392  1.01395870  0.25004664  1
  O  O201  1  0.05294526  0.97687559  0.71426111  1
  O  O202  1  0.65377356  0.49663024  0.31783528  1
  O  O203  1  0.64925782  0.48794510  0.71096172  1
  O  O204  1  0.65142979  1.02843311  0.27447521  1
  O  O205  1  0.64401250  0.93168206  0.76562453  1
  O  O206  1  0.34975010  0.01734620  0.32147266  1
  O  O207  1  0.34629668  0.02380336  0.66215827  1
  O  O208  1  0.34133983  0.49428918  0.32819783  1
  O  O209  1  0.30870252  0.49999455  0.67884537  1
  O  O210  1  0.94281097  0.06094355  0.20815050  1
  O  O211  1  0.89394112  -0.00228624  0.79354553  1
  O  O212  1  0.82119107  0.48257555  0.31115046  1
  O  O213  1  0.87554053  0.49803553  0.76645437  1
  O  O214  1  0.14121094  0.35949012  0.38061624  1
  O  O215  1  0.13130466  0.29960490  0.87760984  1
  O  O216  1  0.07305520  0.86879299  0.22896688  1
  O  O217  1  0.07549462  0.87953970  0.81434622  1
  O  O218  1  0.60812093  0.32522593  0.40870331  1
  O  O219  1  0.66320188  0.41856832  0.85462535  1
  O  O220  1  0.56994018  0.79380308  0.26923866  1
  O  O221  1  0.61761703  0.82166966  0.86618518  1
  O  O222  1  0.43006530  0.11998165  0.09637557  1
  O  O223  1  0.32552035  0.17458902  0.57363847  1
  O  O224  1  0.26708805  0.66213299  0.03191430  1
  O  O225  1  0.38836310  0.61170388  0.63481771  1
  O  O226  1  0.89137800  0.15635741  0.09514234  1
  O  O227  1  0.80720783  -0.00005395  0.65538819  1
  O  O228  1  0.93220108  0.61499393  0.14264035  1
  O  O229  1  0.87181076  0.68243590  0.48187154  1
  O  O230  1  0.29189132  0.25293707  0.17413851  1
  O  O231  1  0.16926436  0.27223256  0.64034303  1
  O  O232  1  0.34306362  0.75474522  0.19395593  1
  O  O233  1  0.29699754  0.73707275  0.63985769  1
  O  O234  1  0.79645621  0.26807235  0.13799435  1
  O  O235  1  0.80030410  0.21978878  0.62047228  1
  O  O236  1  0.79666228  0.79668645  0.13378571  1
  O  O237  1  0.84494231  0.70751457  0.54074761  1
  O  O238  1  0.23590678  0.23445597  0.39093559  1
  O  O239  1  0.18936733  0.14360256  0.87458531  1
  O  O240  1  0.18535215  0.75276910  0.26826617  1
  O  O241  1  0.23248771  0.83652535  0.88244316  1
  O  O242  1  0.73727513  0.23415877  0.40703027  1
  O  O243  1  0.74057007  0.22645410  0.88081517  1
  O  O244  1  0.67854629  0.73425028  0.35007833  1
  O  O245  1  0.74863092  0.67690238  0.88815875  1
  O  O246  1  0.03850527  0.10589506  -0.09960439  1
  O  O247  1  -0.02609653  0.01870431  0.38963819  1
  O  O248  1  0.03390498  0.66480393  -0.00840441  1
  O  O249  1  0.04350781  0.76710595  0.43666205  1
  O  O250  1  0.55333214  0.11907375  -0.01425236  1
  O  O251  1  0.50515761  0.10285326  0.58377116  1
  O  O252  1  0.48518209  0.57966006  0.03261669  1
  O  O253  1  0.50687701  0.64261328  0.53921714  1
  O  O254  1  0.46851031  0.30105022  0.44488694  1
  O  O255  1  0.46243815  0.39092523  0.91583533  1
  O  O256  1  0.59221358  0.87765232  0.39552013  1
  O  O257  1  0.53057137  0.83508949  0.97786711  1
  O  O258  1  0.98995232  0.36473431  0.45664954  1
  O  O259  1  1.04842204  0.47238979  1.07333368  1
  O  O260  1  0.95572033  0.80479926  0.54385538  1
  O  O261  1  0.99591966  0.95607361  0.95840579  1
  O  O262  1  0.48028544  0.50481795  0.37292430  1
  O  O263  1  0.46549527  0.54004594  0.88846295  1
  O  O264  1  0.49688691  1.05891746  0.36144033  1
  O  O265  1  0.51253542  1.00250028  0.85348135  1
  O  O266  1  0.99122353  0.46655387  0.34770523  1
  O  O267  1  1.08498692  0.53485704  0.92714610  1
  O  O268  1  0.99385992  0.95665469  0.36756958  1
  O  O269  1  1.05872322  1.05805429  0.84222657  1
  O  O270  1  -0.04880557  -0.01386222  0.01419850  1
  O  O271  1  -0.02340221  -0.03192238  0.53631630  1
  O  O272  1  0.07510722  0.63243486  0.04916063  1
  O  O273  1  0.01275479  0.57363474  0.55546732  1
  O  O274  1  0.48909285  0.08316725  0.14318181  1
  O  O275  1  0.50411717  -0.04967121  0.67491281  1
  O  O276  1  0.31192375  0.62124452  0.07921362  1
  O  O277  1  0.50982970  0.50796987  0.64512905  1
  O  O278  1  0.26694225  0.35402238  0.29833701  1
  O  O279  1  0.22184232  0.38985816  0.72396660  1
  O  O280  1  0.21985825  0.93591910  0.26318918  1
  O  O281  1  0.20330964  0.94298423  0.70857819  1
  O  O282  1  0.73003433  0.35999598  0.28716694  1
  O  O283  1  0.76524738  0.38248791  0.73357362  1
  O  O284  1  0.72853112  0.88905550  0.24427725  1
  O  O285  1  0.75444505  0.82943550  0.78164325  1
  O  O286  1  0.23100369  0.10912875  0.26419841  1
  O  O287  1  0.20657107  0.10314630  0.69180562  1
  O  O288  1  0.23877952  0.61482010  0.24872874  1
  O  O289  1  0.27330666  0.62050783  0.79069866  1
  O  O290  1  0.79527176  0.08983573  0.17786321  1
  O  O291  1  0.78431790  0.11857761  0.76328309  1
  O  O292  1  0.76211021  0.61052305  0.21599198  1
  O  O293  1  0.63184517  0.58738765  0.83272558  1
  O  O294  1  0.37816050  0.15667095  0.40396956  1
  O  O295  1  0.40720013  0.10568856  0.91357044  1
  O  O296  1  0.39054496  0.59731125  0.41426791  1
  O  O297  1  0.34499149  0.66966208  0.88530653  1
  O  O298  1  0.86190342  0.17294536  0.29033979  1
  O  O299  1  0.86517992  0.14831204  0.88384339  1
  O  O300  1  0.91517312  0.60376818  0.34132908  1
  O  O301  1  0.89500624  0.59141660  0.89630358  1
  O  O302  1  0.19198778  0.37341893  0.16658117  1
  O  O303  1  0.10052347  0.46172485  0.62241084  1
  O  O304  1  0.21580788  0.95016097  0.00837547  1
  O  O305  1  0.08971620  0.85153691  0.63278515  1
  O  O306  1  0.52281605  0.40901829  0.20887383  1
  O  O307  1  0.62528462  0.38414619  0.59741128  1
  O  O308  1  0.64419687  0.85837752  0.10794821  1
  O  O309  1  0.61012296  0.83271483  0.67961914  1
  O  O310  1  0.14382350  0.26809832  0.26091027  1
  O  O311  1  0.04408857  0.19509710  0.73016379  1
  O  O312  1  0.19857292  0.86734486  0.13477363  1
  O  O313  1  0.16327262  0.80241013  0.75248853  1
  O  O314  1  0.60464724  0.19434848  0.32585330  1
  O  O315  1  0.72236187  0.31760452  0.74188196  1
  O  O316  1  0.58422458  0.63726343  0.26459373  1
  O  O317  1  0.66696087  0.72042741  0.75006492  1
  O  O318  1  0.42004645  0.21381176  0.25496016  1
  O  O319  1  0.32644737  0.24963178  0.70475681  1
  O  O320  1  0.33496367  0.82087438  0.23272297  1
  O  O321  1  0.34884787  0.85991062  0.72601248  1
  O  O322  1  0.94765798  0.24369217  0.18846620  1
  O  O323  1  0.92545228  0.29924352  0.76671356  1
  O  O324  1  0.86183314  0.77226296  0.34102817  1
  O  O325  1  0.86778503  0.67500331  0.76181744  1
  O  O326  1  0.41208647  0.51349226  0.51515946  1
  O  O327  1  0.38855738  0.45460682  1.00977538  1
  O  O328  1  0.39698685  1.02461703  0.48153107  1
  O  O329  1  0.42319206  0.97207135  0.98696065  1
  O  O330  1  0.87940061  0.51981035  0.45975268  1
  O  O331  1  0.87793747  0.47916236  1.00723866  1
  O  O332  1  0.81681655  0.91773932  0.51955049  1
  O  O333  1  0.89064475  1.02119554  0.98885192  1
  O  O334  1  0.07495904  0.09771059  -0.03741410  1
  O  O335  1  0.04150589  -0.04745294  0.52018584  1
  O  O336  1  0.19814856  0.51675652  0.03716568  1
  O  O337  1  0.12567047  0.50509688  0.46429257  1
  O  O338  1  0.64002078  -0.02501522  -0.03775855  1
  O  O339  1  0.54552280  0.05523074  0.53685978  1
  O  O340  1  0.57468014  0.46551815  -0.01337772  1
  O  O341  1  0.60689249  0.49418346  0.50264220  1
  O  O342  1  0.35059908  0.40231512  0.17573661  1
  O  O343  1  0.39473559  0.37164352  0.68710286  1
  O  O344  1  0.46664065  0.85108976  0.11262386  1
  O  O345  1  0.32573518  0.87354124  0.55849040  1
  O  O346  1  0.91240288  0.36082439  0.08906139  1
  O  O347  1  0.87032221  0.37792005  0.55890800  1
  O  O348  1  0.90274901  0.77162327  0.28512745  1
  O  O349  1  0.80138877  0.86896852  0.46562040  1
  O  O350  1  0.10515363  0.15342490  0.38365690  1
  O  O351  1  0.24742140  0.17612152  0.85992257  1
  O  O352  1  0.09661821  0.62198978  0.32912833  1
  O  O353  1  0.14390763  0.70919897  0.86592434  1
  O  O354  1  0.60414655  0.19508607  0.49584811  1
  O  O355  1  0.67310955  0.09155843  0.84423146  1
  O  O356  1  0.58087703  0.63931550  0.41670702  1
  O  O357  1  0.62141693  0.64883424  0.98717231  1
