# generated using pymatgen
data_V51Zn51O256
_symmetry_space_group_name_H-M   'P 1'
_cell_length_a   17.62933749
_cell_length_b   17.72510025
_cell_length_c   17.79564760
_cell_angle_alpha   91.15611940
_cell_angle_beta   90.21002069
_cell_angle_gamma   90.52002376
_symmetry_Int_Tables_number   1
_chemical_formula_structural   V51Zn51O256
_chemical_formula_sum   'V51 Zn51 O256'
_cell_volume   5559.41333197
_cell_formula_units_Z   1
loop_
 _symmetry_equiv_pos_site_id
 _symmetry_equiv_pos_as_xyz
  1  'x, y, z'
loop_
 _atom_site_type_symbol
 _atom_site_label
 _atom_site_symmetry_multiplicity
 _atom_site_fract_x
 _atom_site_fract_y
 _atom_site_fract_z
 _atom_site_occupancy
  V  V0  1  0.35188509  0.50281334  0.87204140  1
  V  V1  1  0.71208412  0.13458962  -0.10908625  1
  V  V2  1  0.92886421  0.91608389  -0.02168218  1
  V  V3  1  0.25110249  0.40033892  0.63279461  1
  V  V4  1  0.58535771  0.73106195  0.39733656  1
  V  V5  1  0.23469146  0.01864313  0.23672247  1
  V  V6  1  0.45286357  0.64230415  0.58119834  1
  V  V7  1  0.30276346  0.89023958  0.66063330  1
  V  V8  1  0.35027189  0.12933873  0.77877183  1
  V  V9  1  0.42018365  0.65616991  0.24091075  1
  V  V10  1  0.33838271  0.23574564  0.62922128  1
  V  V11  1  0.14032309  0.72401882  0.41834641  1
  V  V12  1  0.81375796  0.14269674  0.32794031  1
  V  V13  1  0.75440168  0.29623803  -0.04742868  1
  V  V14  1  0.22124994  0.48847149  0.24074705  1
  V  V15  1  0.34657642  0.36659039  0.00710336  1
  V  V16  1  0.87116149  0.51474424  0.35927232  1
  V  V17  1  0.76194904  0.36541757  0.13489335  1
  V  V18  1  0.50102268  0.15295026  0.66420230  1
  V  V19  1  0.25387704  0.63421512  0.85960567  1
  V  V20  1  0.91513348  -0.09280628  0.75778339  1
  V  V21  1  0.83878513  0.92742885  0.50340835  1
  V  V22  1  0.71985721  0.61376667  0.43390167  1
  V  V23  1  0.70818561  0.87219683  0.63104667  1
  V  V24  1  0.15635224  -0.05260741  0.55569698  1
  V  V25  1  0.75981863  0.23177131  0.56914857  1
  V  V26  1  0.78291233  0.85884331  0.17309619  1
  V  V27  1  0.50037913  0.36118855  0.87647880  1
  V  V28  1  0.01275823  0.15379628  0.63435798  1
  V  V29  1  0.66532873  0.64721721  0.92391102  1
  V  V30  1  0.33640318  0.35188343  0.47905673  1
  V  V31  1  0.57571056  0.39068071  0.25697968  1
  V  V32  1  0.09662302  0.86030622  0.80313217  1
  V  V33  1  0.65029523  0.06400636  0.13794217  1
  V  V34  1  0.40404507  0.89800127  0.43890980  1
  V  V35  1  0.13332078  0.41710584  0.74690432  1
  V  V36  1  0.88435110  0.64210226  0.75663275  1
  V  V37  1  0.12707021  0.72440038  0.91608764  1
  V  V38  1  0.54349994  0.51910747  0.64081586  1
  V  V39  1  0.63098075  0.28684196  0.41072439  1
  V  V40  1  0.87425070  0.15786806  0.77307991  1
  V  V41  1  0.10735740  0.76202052  0.24239383  1
  V  V42  1  0.86963057  0.39145118  0.58460734  1
  V  V43  1  0.54923115  0.90587322  0.31360127  1
  V  V44  1  0.47737879  0.48840607  0.01821977  1
  V  V45  1  0.39981715  0.76026111  0.68566209  1
  V  V46  1  0.50833751  0.13415164  0.02915471  1
  V  V47  1  0.03159415  0.67196427  0.64339733  1
  V  V48  1  0.69601884  0.82187650  -0.00213125  1
  V  V49  1  0.62883048  0.13898861  0.50087675  1
  V  V50  1  -0.00348820  0.41226928  0.84718398  1
  Zn  Zn51  1  0.55016053  0.52866139  0.83912975  1
  Zn  Zn52  1  0.40073811  0.04756091  0.56709073  1
  Zn  Zn53  1  0.32271147  0.57213069  0.69700563  1
  Zn  Zn54  1  0.64972976  0.68303788  0.57471218  1
  Zn  Zn55  1  0.93563730  0.22471003  0.92676819  1
  Zn  Zn56  1  0.06358537  0.58629349  0.80800150  1
  Zn  Zn57  1  0.99391210  0.61548059  0.46222153  1
  Zn  Zn58  1  0.34363259  0.57862373  0.06164205  1
  Zn  Zn59  1  0.53886100  0.81865772  0.55683344  1
  Zn  Zn60  1  0.96396277  0.84630731  0.14552289  1
  Zn  Zn61  1  0.20194623  0.11881906  0.64726243  1
  Zn  Zn62  1  0.67723595  0.78371481  0.27257538  1
  Zn  Zn63  1  0.06729292  0.33854932  0.57165229  1
  Zn  Zn64  1  0.69680850  0.17134682  0.71916278  1
  Zn  Zn65  1  0.05732417  0.00248998  0.70205357  1
  Zn  Zn66  1  0.94564701  0.76682898  0.87013816  1
  Zn  Zn67  1  0.20833755  0.42776147  0.91860452  1
  Zn  Zn68  1  0.84433759  0.58584184  0.54460458  1
  Zn  Zn69  1  0.61416837  0.27027414  0.10935889  1
  Zn  Zn70  1  0.72984788  0.48540117  0.23526976  1
  Zn  Zn71  1  0.45935190  0.63826928  0.93291885  1
  Zn  Zn72  1  0.15951088  0.90859533  0.35703946  1
  Zn  Zn73  1  0.63228865  0.09596152  0.32360755  1
  Zn  Zn74  1  0.22952821  0.26222141  0.01637657  1
  Zn  Zn75  1  0.20726494  0.72295081  0.69673980  1
  Zn  Zn76  1  0.60562728  0.87214342  0.13677427  1
  Zn  Zn77  1  0.22520798  1.00478609  0.78443298  1
  Zn  Zn78  1  0.59736055  0.58556582  0.30961798  1
  Zn  Zn79  1  0.32568422  0.33485652  0.78796112  1
  Zn  Zn80  1  0.48914974  0.26105879  0.53025339  1
  Zn  Zn81  1  0.45927244  0.35500512  0.68650873  1
  Zn  Zn82  1  0.74377918  0.43431852  0.48633266  1
  Zn  Zn83  1  0.76030656  0.96207447  0.32500655  1
  Zn  Zn84  1  0.40685447  0.41629560  0.18318142  1
  Zn  Zn85  1  0.76438686  0.78197836  0.82046430  1
  Zn  Zn86  1  0.81704642  0.35376656  0.78302276  1
  Zn  Zn87  1  0.32214270  0.12657259  0.08832438  1
  Zn  Zn88  1  0.77002230  0.17904059  0.16486380  1
  Zn  Zn89  1  0.89610656  0.10836728  0.49575667  1
  Zn  Zn90  1  0.68254543  0.47858850  0.02282197  1
  Zn  Zn91  1  0.77376244  0.95358879  0.89201198  1
  Zn  Zn92  1  0.05050200  0.58891155  0.30255196  1
  Zn  Zn93  1  0.77370036  0.05194168  0.62689335  1
  Zn  Zn94  1  0.34440815  0.70719547  0.41871454  1
  Zn  Zn95  1  0.80477773  0.00256634  0.07158035  1
  Zn  Zn96  1  0.98513368  0.86102928  0.59328370  1
  Zn  Zn97  1  0.78882919  0.34190169  0.33734442  1
  Zn  Zn98  1  0.24480959  0.65850020  0.16323047  1
  Zn  Zn99  1  0.53637320  0.17480456  0.84243333  1
  Zn  Zn100  1  0.43540321  0.97728683  0.70535389  1
  Zn  Zn101  1  0.95691988  0.31238518  0.70262687  1
  O  O102  1  0.06980201  0.20136906  0.02340835  1
  O  O103  1  0.19187042  0.03564969  0.57347930  1
  O  O104  1  -0.01059718  0.53464423  0.13271023  1
  O  O105  1  0.12805440  0.66444503  0.64741907  1
  O  O106  1  0.74097683  0.08953868  0.09800720  1
  O  O107  1  0.59313033  0.16391761  0.68291081  1
  O  O108  1  0.60109564  0.59307540  0.15890719  1
  O  O109  1  0.55848938  0.62107402  0.58989099  1
  O  O110  1  0.30855952  0.32837432  0.39519609  1
  O  O111  1  0.32107762  0.40311884  0.87935461  1
  O  O112  1  0.45705787  0.91238458  0.35320951  1
  O  O113  1  0.37461997  0.84494736  0.93366672  1
  O  O114  1  0.86207239  0.41859485  0.37502359  1
  O  O115  1  0.90148355  0.40582401  0.83537871  1
  O  O116  1  0.82012973  0.93769641  0.41102818  1
  O  O117  1  0.99231281  0.95023619  0.91935457  1
  O  O118  1  0.17728980  0.02102194  0.32264453  1
  O  O119  1  0.25389959  -0.01873175  0.90573334  1
  O  O120  1  0.23577826  0.46990107  0.33416249  1
  O  O121  1  0.24897010  0.53007042  0.88994329  1
  O  O122  1  0.74298389  0.06845421  0.33241421  1
  O  O123  1  0.83069389  -0.09444014  0.81009934  1
  O  O124  1  0.75297725  0.52149363  0.41798780  1
  O  O125  1  0.70449438  0.56655874  0.95747576  1
  O  O126  1  0.24255653  0.51045007  0.14201622  1
  O  O127  1  0.27306401  0.49267420  0.63455826  1
  O  O128  1  0.29395206  1.03906034  0.15583283  1
  O  O129  1  0.34136682  0.97496578  0.62634660  1
  O  O130  1  0.72918417  0.46392217  0.12374727  1
  O  O131  1  0.64587940  0.50435765  0.59682601  1
  O  O132  1  0.81096389  0.95226434  0.16521592  1
  O  O133  1  0.73504805  0.95697147  0.67014931  1
  O  O134  1  -0.03863290  0.25512617  0.23251145  1
  O  O135  1  0.02969710  0.38396563  0.74838171  1
  O  O136  1  0.05213194  0.82861378  0.20039537  1
  O  O137  1  -0.00621874  0.84575460  0.79310622  1
  O  O138  1  0.47997301  0.39749267  0.26263823  1
  O  O139  1  0.44019151  0.35447871  0.79433618  1
  O  O140  1  0.53896337  0.88011534  0.22163882  1
  O  O141  1  0.53919921  0.93672722  0.76103522  1
  O  O142  1  0.43024828  0.18233517  0.21792554  1
  O  O143  1  0.46431839  0.15642404  0.75882717  1
  O  O144  1  0.48165951  0.58279128  0.29759727  1
  O  O145  1  0.57907025  0.79710334  0.80519990  1
  O  O146  1  1.05727854  0.16567231  0.34766621  1
  O  O147  1  1.09093654  0.10627712  0.67502640  1
  O  O148  1  0.93356976  0.50630140  0.16211116  1
  O  O149  1  0.99256012  0.63737123  0.73471861  1
  O  O150  1  0.34588604  0.27697920  -0.02841330  1
  O  O151  1  0.37544030  0.26848400  0.52506043  1
  O  O152  1  0.28552512  0.83795772  0.06066432  1
  O  O153  1  0.35131880  0.81958051  0.42353223  1
  O  O154  1  0.84690170  0.27345273  -0.03087181  1
  O  O155  1  0.84364683  0.18698440  0.55647956  1
  O  O156  1  0.90231809  0.82512736  -0.05113730  1
  O  O157  1  0.90954240  0.76641121  0.37344243  1
  O  O158  1  0.14650638  0.26459327  0.44724162  1
  O  O159  1  0.10326288  0.26708752  1.02273046  1
  O  O160  1  0.11049524  0.76689532  0.49465846  1
  O  O161  1  0.12544771  0.72136562  1.00697149  1
  O  O162  1  0.68417514  0.24004103  0.49831447  1
  O  O163  1  0.69959668  0.20783117  0.96288130  1
  O  O164  1  0.60850941  0.75232178  0.49622275  1
  O  O165  1  0.61521521  0.86524732  1.02850628  1
  O  O166  1  0.53212031  0.22244468  0.06455889  1
  O  O167  1  0.47278132  0.25398021  0.64058612  1
  O  O168  1  0.59423799  0.64850899  0.11926142  1
  O  O169  1  0.47797142  0.74389625  0.61581542  1
  O  O170  1  1.03181247  0.13312001  0.29176467  1
  O  O171  1  1.02444999  0.25324435  0.63883930  1
  O  O172  1  0.98919462  0.69556890  0.08179525  1
  O  O173  1  1.00590358  0.76250906  0.63159303  1
  O  O174  1  0.14766544  0.25362796  0.22586843  1
  O  O175  1  0.00956217  0.30576937  0.88975329  1
  O  O176  1  0.07822209  0.63975555  0.40124172  1
  O  O177  1  0.03265087  0.70768474  0.88405085  1
  O  O178  1  0.55564322  0.31410311  0.46286343  1
  O  O179  1  0.54204034  0.27655092  0.88361506  1
  O  O180  1  0.49414838  0.72416094  0.39351860  1
  O  O181  1  0.44862016  0.74833269  0.96469360  1
  O  O182  1  0.33585316  0.15437555  0.40763829  1
  O  O183  1  0.28470651  0.03104718  0.94625723  1
  O  O184  1  0.23527798  0.54984347  0.49067269  1
  O  O185  1  0.09416980  0.56230775  1.03026208  1
  O  O186  1  0.70541998  0.13048984  0.57475713  1
  O  O187  1  0.79879064  0.15600154  0.85457424  1
  O  O188  1  0.74088184  0.63685361  0.53086030  1
  O  O189  1  0.67517985  0.72199757  0.99473639  1
  O  O190  1  0.23708301  0.37063040  0.00605925  1
  O  O191  1  0.25109200  0.37193295  0.53444397  1
  O  O192  1  0.36450817  0.94138013  0.04242852  1
  O  O193  1  0.32480033  0.96392679  0.45822918  1
  O  O194  1  0.72038607  0.36712907  0.01638790  1
  O  O195  1  0.80323065  0.32887088  0.54051757  1
  O  O196  1  0.76737180  0.85259369  0.05761250  1
  O  O197  1  0.76515134  0.87235605  0.54505614  1
  O  O198  1  0.12485157  0.52229339  0.24989892  1
  O  O199  1  0.12846852  0.51103672  0.74124198  1
  O  O200  1  0.17844328  0.97370590  0.16946147  1
  O  O201  1  0.12250961  0.95619198  0.78204271  1
  O  O202  1  0.62357749  0.48223051  0.27603527  1
  O  O203  1  0.55632943  0.54642676  0.73178409  1
  O  O204  1  0.63924052  1.12504865  0.21442093  1
  O  O205  1  0.58687169  0.97300468  0.79926317  1
  O  O206  1  0.32421832  0.02192413  0.27748448  1
  O  O207  1  0.38247058  0.03575105  0.78140287  1
  O  O208  1  0.32101533  0.46668264  0.23541786  1
  O  O209  1  0.35989274  0.50749648  0.77687312  1
  O  O210  1  1.00091481  -0.02674791  0.28559576  1
  O  O211  1  0.89777781  -0.12370856  0.66898915  1
  O  O212  1  0.81355728  0.53604541  0.28294612  1
  O  O213  1  0.79671255  0.62391033  0.69964454  1
  O  O214  1  0.12853657  0.27288749  0.29376869  1
  O  O215  1  0.13230418  0.39985375  0.84460410  1
  O  O216  1  0.13252187  0.79615280  0.34037494  1
  O  O217  1  0.12772678  0.83111114  0.88979437  1
  O  O218  1  0.70336258  0.35836210  0.41470363  1
  O  O219  1  0.57298704  0.42205205  0.85614038  1
  O  O220  1  0.60403976  0.83271260  0.35894198  1
  O  O221  1  0.50135637  0.94555040  0.94451539  1
  O  O222  1  0.41920966  0.10549880  0.05556315  1
  O  O223  1  0.37884017  0.14448674  0.61961952  1
  O  O224  1  0.35672163  0.64180899  0.16140479  1
  O  O225  1  0.37564234  0.65709936  0.65012095  1
  O  O226  1  0.97567600  0.10512519  0.15030504  1
  O  O227  1  0.93637612  0.13224962  0.69154374  1
  O  O228  1  0.95194734  0.65208985  0.04133416  1
  O  O229  1  0.86182466  0.62444621  0.64996308  1
  O  O230  1  0.23264165  0.16977543  0.06269762  1
  O  O231  1  0.24549552  0.21626680  0.61041854  1
  O  O232  1  0.24712546  0.62516811  0.06047563  1
  O  O233  1  0.29710658  0.77998114  0.66721284  1
  O  O234  1  0.72235992  0.26468634  0.12629640  1
  O  O235  1  0.73987016  0.25582413  0.66090265  1
  O  O236  1  0.69051825  0.80379033  0.16587327  1
  O  O237  1  0.72231647  0.76209682  0.64569341  1
  O  O238  1  0.18203932  0.20487585  0.43301488  1
  O  O239  1  0.18601266  0.21218166  0.89105735  1
  O  O240  1  0.23246783  0.69789454  0.42829929  1
  O  O241  1  0.23897003  0.72360263  0.89744623  1
  O  O242  1  0.77757290  0.23103795  0.34602230  1
  O  O243  1  0.74760602  0.32640612  0.86228290  1
  O  O244  1  0.76259449  0.67415925  0.37935986  1
  O  O245  1  0.72088221  0.84960726  0.90517719  1
  O  O246  1  -0.00772866  0.20196560  0.02494713  1
  O  O247  1  -0.00567617  0.11747410  0.54739827  1
  O  O248  1  -0.08212676  0.49415459  0.00026815  1
  O  O249  1  -0.00568425  0.61703824  0.56990194  1
  O  O250  1  0.51793583  0.12240614  -0.06539157  1
  O  O251  1  0.53804614  0.15750242  0.53950053  1
  O  O252  1  0.45187092  0.58837719  0.03056922  1
  O  O253  1  0.41138075  0.65335938  0.49674430  1
  O  O254  1  0.43149409  0.40520506  0.46603963  1
  O  O255  1  0.45775232  0.38399828  0.96846685  1
  O  O256  1  0.46406424  0.88157982  0.51163327  1
  O  O257  1  0.38827011  0.77585702  0.92449137  1
  O  O258  1  0.96323328  0.38103264  0.56066994  1
  O  O259  1  1.01203761  0.36767652  0.94079483  1
  O  O260  1  0.93896594  0.82193176  0.34520580  1
  O  O261  1  0.96449279  0.91833615  1.07010852  1
  O  O262  1  0.46366961  0.55726278  0.22478212  1
  O  O263  1  0.45328889  0.51443892  0.89612833  1
  O  O264  1  0.59611177  0.99042930  0.32050143  1
  O  O265  1  0.44554563  0.97429125  0.91641600  1
  O  O266  1  0.96120226  0.52975633  0.32264986  1
  O  O267  1  1.01481101  0.50558373  0.86296270  1
  O  O268  1  1.03277953  0.95174617  0.34393180  1
  O  O269  1  0.95778206  0.99325762  0.75016263  1
  O  O270  1  0.03908746  0.08247778  0.13419173  1
  O  O271  1  0.06832125  -0.06237912  0.60775296  1
  O  O272  1  0.02868271  0.37231207  0.16325713  1
  O  O273  1  0.10820091  0.41504809  0.45423691  1
  O  O274  1  0.57726267  0.07009468  0.07049258  1
  O  O275  1  0.48851316  0.05258767  0.64076607  1
  O  O276  1  0.46946073  0.46340840  0.10874493  1
  O  O277  1  0.44711427  0.54353489  0.60957279  1
  O  O278  1  0.17926555  0.40603284  0.21348791  1
  O  O279  1  0.23374582  0.38211503  0.73860131  1
  O  O280  1  0.23364417  0.91327108  0.27315129  1
  O  O281  1  0.26977722  0.91300772  0.74658860  1
  O  O282  1  0.75850970  0.37266799  0.23638545  1
  O  O283  1  0.71528149  0.41895020  0.72788172  1
  O  O284  1  0.75705538  0.86709788  0.27452717  1
  O  O285  1  0.70653841  0.80463116  0.71508847  1
  O  O286  1  0.19913538  0.10853329  0.23889309  1
  O  O287  1  0.25010120  0.10090984  0.74555107  1
  O  O288  1  0.22932927  0.59456538  0.25414909  1
  O  O289  1  0.25713006  0.64246133  0.76041659  1
  O  O290  1  0.84263271  0.14503034  0.23421467  1
  O  O291  1  0.79239923  0.11233098  0.72026528  1
  O  O292  1  0.82873673  0.65882122  0.20115019  1
  O  O293  1  0.71420016  0.68330002  0.85032090  1
  O  O294  1  0.35055502  0.18617129  0.34842606  1
  O  O295  1  0.33962438  0.15167383  0.86659413  1
  O  O296  1  0.36139316  0.67800996  0.31549275  1
  O  O297  1  0.35216968  0.61881294  0.88866220  1
  O  O298  1  0.88621427  0.12062352  0.38854102  1
  O  O299  1  0.94041876  0.14810920  0.84407378  1
  O  O300  1  0.89220364  0.57865585  0.44545035  1
  O  O301  1  0.87820293  0.57872305  0.82017197  1
  O  O302  1  0.05688908  0.39204953  0.10392817  1
  O  O303  1  0.14329246  0.38820214  0.63659802  1
  O  O304  1  0.18897358  0.74460239  0.19388049  1
  O  O305  1  0.22337083  0.88342767  0.59456284  1
  O  O306  1  0.59714782  0.36195175  0.16763620  1
  O  O307  1  0.52504292  0.42327657  0.63752398  1
  O  O308  1  0.65441236  0.97357966  0.16290788  1
  O  O309  1  0.61512187  0.87937805  0.60878157  1
  O  O310  1  0.09602464  0.22918135  0.17995727  1
  O  O311  1  0.14744690  0.15378013  0.88640852  1
  O  O312  1  0.05689369  0.68008015  0.24676421  1
  O  O313  1  0.13860725  0.79996153  0.74305144  1
  O  O314  1  0.60205092  0.31340752  0.31615352  1
  O  O315  1  0.65341542  0.38540024  0.72682127  1
  O  O316  1  0.62226987  0.69639568  0.30422662  1
  O  O317  1  0.54063246  0.81556580  0.85970132  1
  O  O318  1  0.37213740  0.20457487  0.18556750  1
  O  O319  1  0.33564015  0.23269056  0.73399590  1
  O  O320  1  0.47947381  0.72418534  0.22075513  1
  O  O321  1  0.42176155  0.74102905  0.77171333  1
  O  O322  1  0.96911671  0.29079010  0.29165150  1
  O  O323  1  0.87726617  0.25483993  0.76083116  1
  O  O324  1  0.89417883  0.66540855  0.22343407  1
  O  O325  1  0.86508449  0.73387868  0.79880986  1
  O  O326  1  0.37356900  0.45439908  0.47752290  1
  O  O327  1  0.35606776  0.47961475  1.00128987  1
  O  O328  1  0.39084263  1.01199905  0.46269736  1
  O  O329  1  0.41047507  0.91486333  1.08604836  1
  O  O330  1  0.82728860  0.47655513  0.56011893  1
  O  O331  1  0.86156192  0.53249077  1.01197217  1
  O  O332  1  0.84327913  1.02041491  0.54522092  1
  O  O333  1  0.84466210  0.97866308  0.97686215  1
  O  O334  1  0.12699901  -0.01866800  -0.01153719  1
  O  O335  1  0.14963102  -0.07019161  0.46111621  1
  O  O336  1  0.09598636  0.49826967  0.00332008  1
  O  O337  1  0.06002596  0.44102079  0.41110399  1
  O  O338  1  0.70897760  0.04036853  -0.08862090  1
  O  O339  1  0.63191547  0.05271580  0.46707291  1
  O  O340  1  0.57358925  0.48757148  0.00427774  1
  O  O341  1  0.65547588  0.43914151  0.56053132  1
  O  O342  1  0.36065247  0.35429308  0.10202164  1
  O  O343  1  0.34276336  0.34847940  0.64918205  1
  O  O344  1  0.33386423  0.81297334  0.10278928  1
  O  O345  1  0.40822334  0.86496074  0.68362185  1
  O  O346  1  0.85207994  0.36085778  0.11664863  1
  O  O347  1  0.86581221  0.37747027  0.68143182  1
  O  O348  1  0.86501573  0.80780479  0.17302690  1
  O  O349  1  0.92527529  0.88452350  0.50681868  1
  O  O350  1  0.08310072  0.25648113  0.49319143  1
  O  O351  1  0.11125795  0.04834504  0.99327030  1
  O  O352  1  0.17083840  0.55857688  0.51471970  1
  O  O353  1  0.14604561  0.62680638  0.87058666  1
  O  O354  1  0.61568014  0.18050506  0.39638683  1
  O  O355  1  0.64691014  0.15539021  0.81949994  1
  O  O356  1  0.61795258  0.62010871  0.41899621  1
  O  O357  1  0.56912806  0.62783177  0.89518056  1
