# generated using pymatgen
data_V51Zn51O256
_symmetry_space_group_name_H-M   'P 1'
_cell_length_a   17.73788378
_cell_length_b   17.32182101
_cell_length_c   17.72084620
_cell_angle_alpha   91.77459244
_cell_angle_beta   87.70142405
_cell_angle_gamma   89.83061635
_symmetry_Int_Tables_number   1
_chemical_formula_structural   V51Zn51O256
_chemical_formula_sum   'V51 Zn51 O256'
_cell_volume   5437.73515962
_cell_formula_units_Z   1
loop_
 _symmetry_equiv_pos_site_id
 _symmetry_equiv_pos_as_xyz
  1  'x, y, z'
loop_
 _atom_site_type_symbol
 _atom_site_label
 _atom_site_symmetry_multiplicity
 _atom_site_fract_x
 _atom_site_fract_y
 _atom_site_fract_z
 _atom_site_occupancy
  V  V0  1  0.11626114  0.85163059  0.71185149  1
  V  V1  1  0.00564270  0.88437009  0.93612867  1
  V  V2  1  0.53758509  0.17713086  0.65224836  1
  V  V3  1  0.62659568  0.58953454  0.47955286  1
  V  V4  1  0.53875096  -0.05415996  0.48335715  1
  V  V5  1  0.09192956  0.43663477  0.14125078  1
  V  V6  1  0.87681731  0.52257320  0.88626065  1
  V  V7  1  0.11309683  0.34209220  0.28803509  1
  V  V8  1  0.89037547  0.39134248  0.00793175  1
  V  V9  1  0.85385026  -0.03433380  0.87016002  1
  V  V10  1  0.34680694  0.74431685  0.62218449  1
  V  V11  1  0.18527407  0.19040008  0.42341410  1
  V  V12  1  0.22246169  0.51149436  0.73980427  1
  V  V13  1  0.26280041  0.74213084  0.02285932  1
  V  V14  1  0.11456288  0.36917619  0.73456118  1
  V  V15  1  0.00743769  0.38141346  0.86425187  1
  V  V16  1  0.75355068  0.79370028  0.65216514  1
  V  V17  1  0.60825274  0.40506704  0.76210598  1
  V  V18  1  0.93812360  0.54933925  0.39353951  1
  V  V19  1  0.75297181  0.29121415  0.53391956  1
  V  V20  1  0.02000751  0.51303114  -0.00692009  1
  V  V21  1  0.32994772  0.52300638  0.89234253  1
  V  V22  1  0.58839619  0.34469212  0.22032542  1
  V  V23  1  0.57961837  0.51344728  0.63986282  1
  V  V24  1  0.93099259  0.67426145  0.69145335  1
  V  V25  1  0.55478868  0.78372128  0.82023897  1
  V  V26  1  0.86027636  0.58607978  0.23343263  1
  V  V27  1  0.76857970  0.13628147  0.86293904  1
  V  V28  1  -0.07508675  0.85078074  0.25981773  1
  V  V29  1  0.89109318  0.31053083  0.64559024  1
  V  V30  1  0.33628507  0.11464006  0.36148537  1
  V  V31  1  -0.05890964  0.25800383  0.24510220  1
  V  V32  1  0.89848716  0.37356334  0.46685310  1
  V  V33  1  0.35991290  0.63341152  0.74576280  1
  V  V34  1  0.18507023  0.00722416  0.13960173  1
  V  V35  1  0.73689224  0.74749504  0.03670015  1
  V  V36  1  0.38225575  0.36355540  0.53296402  1
  V  V37  1  0.65264137  0.30161736  0.87379732  1
  V  V38  1  0.50723347  0.71077072  0.25054242  1
  V  V39  1  0.05688688  0.00662138  0.60613881  1
  V  V40  1  0.48281604  0.49182410  0.48307982  1
  V  V41  1  0.61116412  0.10503124  -0.04444791  1
  V  V42  1  0.36442978  0.23940817  0.09539817  1
  V  V43  1  0.20979471  0.65174229  0.86087069  1
  V  V44  1  0.76752970  0.26999914  0.00141067  1
  V  V45  1  0.77957651  0.50819736  0.73797614  1
  V  V46  1  0.10402287  0.66254196  0.03043443  1
  V  V47  1  0.12159768  0.50268533  0.59635994  1
  V  V48  1  0.17982152  0.80547950  0.33639552  1
  V  V49  1  0.88657754  0.12089604  0.74016581  1
  V  V50  1  0.37231169  -0.04755152  0.43373529  1
  Zn  Zn51  1  0.56602614  0.34491142  0.57489915  1
  Zn  Zn52  1  0.54380572  0.59728632  0.80896299  1
  Zn  Zn53  1  0.98248943  0.74352716  0.40570991  1
  Zn  Zn54  1  0.36830318  0.50372653  0.63205454  1
  Zn  Zn55  1  0.52843815  0.17073736  0.83653570  1
  Zn  Zn56  1  0.81929169  0.35063236  0.81241610  1
  Zn  Zn57  1  0.19015076  0.36483690  0.47652235  1
  Zn  Zn58  1  0.18205855  0.67634618  0.65315641  1
  Zn  Zn59  1  0.47323345  0.19046428  0.47440339  1
  Zn  Zn60  1  0.05335506  0.84984327  0.10534142  1
  Zn  Zn61  1  0.38325039  0.84310082  0.29280479  1
  Zn  Zn62  1  0.59142755  0.85823956  0.64568148  1
  Zn  Zn63  1  0.76250339  0.47870280  0.44317211  1
  Zn  Zn64  1  0.21693646  0.47624654  0.01755973  1
  Zn  Zn65  1  0.16709300  0.16648850  0.25145204  1
  Zn  Zn66  1  0.72874062  -0.04382240  -0.00461383  1
  Zn  Zn67  1  0.45599024  0.41117637  0.13300326  1
  Zn  Zn68  1  0.19216913  0.99147892  0.45679674  1
  Zn  Zn69  1  0.82479151  0.71482640  0.36940933  1
  Zn  Zn70  1  0.18616309  0.91266246  0.96603902  1
  Zn  Zn71  1  0.92771360  0.21882409  0.91180239  1
  Zn  Zn72  1  0.56070013  0.27525405  0.01584107  1
  Zn  Zn73  1  0.50218749  0.70054091  0.46162523  1
  Zn  Zn74  1  0.66182256  0.17547307  0.12875196  1
  Zn  Zn75  1  0.28766808  0.25694466  0.28027485  1
  Zn  Zn76  1  0.67797474  0.52098389  0.29354343  1
  Zn  Zn77  1  0.54066089  0.78741371  0.06866591  1
  Zn  Zn78  1  1.03370694  0.26998041  0.51757380  1
  Zn  Zn79  1  0.66815475  0.79497058  0.48288517  1
  Zn  Zn80  1  0.67519564  0.66387211  0.71938690  1
  Zn  Zn81  1  0.93348329  0.69668467  0.96054121  1
  Zn  Zn82  1  0.41973343  0.69714797  0.92460481  1
  Zn  Zn83  1  0.39544314  0.07891039  0.55631996  1
  Zn  Zn84  1  0.05082136  0.57573312  0.81241772  1
  Zn  Zn85  1  0.10090083  0.85250785  0.51460055  1
  Zn  Zn86  1  0.50591854  0.06739576  0.34595042  1
  Zn  Zn87  1  0.70815423  0.45080238  0.95858995  1
  Zn  Zn88  1  0.04439570  0.19544456  0.67672621  1
  Zn  Zn89  1  0.42668573  0.89897750  0.61073936  1
  Zn  Zn90  1  0.71566033  0.55297791  0.11668858  1
  Zn  Zn91  1  0.22110303  0.39414061  0.87011290  1
  Zn  Zn92  1  0.50465919  0.91197162  0.18171326  1
  Zn  Zn93  1  0.79554370  0.76876520  0.82563964  1
  Zn  Zn94  1  0.96199313  0.49070719  0.69581722  1
  Zn  Zn95  1  0.71224344  0.22197953  0.69953353  1
  Zn  Zn96  1  0.79061062  0.60026819  0.58181543  1
  Zn  Zn97  1  -0.00169939  -0.02282158  0.76711624  1
  Zn  Zn98  1  0.24952085  0.80444858  0.76897035  1
  Zn  Zn99  1  0.84195081  0.40848470  0.29552262  1
  Zn  Zn100  1  0.86843814  0.16702945  0.53889383  1
  Zn  Zn101  1  0.94915734  0.85205645  0.64885781  1
  O  O102  1  0.17292981  0.11060006  0.15123366  1
  O  O103  1  0.04842373  0.10621671  0.60191415  1
  O  O104  1  0.11806812  0.62589584  0.11157204  1
  O  O105  1  0.13442849  0.60175281  0.59382906  1
  O  O106  1  0.60431050  0.16965197  0.03547946  1
  O  O107  1  0.63390863  0.16253522  0.65240415  1
  O  O108  1  0.65790052  0.57311695  0.20595075  1
  O  O109  1  0.61642930  0.60506056  0.64127574  1
  O  O110  1  0.31737761  0.37697027  0.32306597  1
  O  O111  1  0.33387237  0.42730620  0.86770473  1
  O  O112  1  0.38270740  0.85798636  0.40111092  1
  O  O113  1  0.40206690  0.92101926  0.79981092  1
  O  O114  1  0.88787925  0.33966179  0.37853034  1
  O  O115  1  0.89581080  0.40056265  0.87455795  1
  O  O116  1  0.91425292  0.77582334  0.32841630  1
  O  O117  1  0.82579138  0.87918719  0.83794262  1
  O  O118  1  0.28707045  -0.04731536  0.48591335  1
  O  O119  1  0.24681585  -0.00405962  0.89810612  1
  O  O120  1  0.28319761  0.43256566  0.29750578  1
  O  O121  1  0.22912672  0.53474312  0.85924197  1
  O  O122  1  0.83591827  0.03475282  0.35135668  1
  O  O123  1  0.77200010  0.03515073  0.85841657  1
  O  O124  1  0.75387108  0.46003475  0.33533788  1
  O  O125  1  0.78159119  0.51038825  0.90003293  1
  O  O126  1  0.18095549  0.46911922  0.11868909  1
  O  O127  1  0.23478780  0.50428536  0.64338417  1
  O  O128  1  0.27474733  1.01917354  0.09296830  1
  O  O129  1  0.23943679  1.10097076  0.63966613  1
  O  O130  1  0.66349155  0.50442219  0.04259208  1
  O  O131  1  0.77236360  0.50802353  0.64248220  1
  O  O132  1  0.78445801  1.05670278  0.12535593  1
  O  O133  1  0.82742958  1.03475778  0.50901653  1
  O  O134  1  0.02622530  0.29494818  0.29055059  1
  O  O135  1  0.01524234  0.40300422  0.75689551  1
  O  O136  1  -0.04572598  0.92702378  0.30586602  1
  O  O137  1  0.01880992  0.86677882  0.74297133  1
  O  O138  1  0.48676603  0.36514101  0.23196985  1
  O  O139  1  0.52341720  0.37786606  0.78284983  1
  O  O140  1  0.51014786  0.82321354  0.25644359  1
  O  O141  1  0.64994623  0.97158211  0.76738092  1
  O  O142  1  0.41685703  0.13114231  0.31102861  1
  O  O143  1  0.49842602  0.14862941  0.74035892  1
  O  O144  1  0.48669666  0.61487435  0.23985183  1
  O  O145  1  0.45269632  0.63288063  0.75860373  1
  O  O146  1  0.86499584  0.18622797  0.29082031  1
  O  O147  1  0.97758740  0.14943524  0.75182665  1
  O  O148  1  0.95088313  0.61795211  0.17713995  1
  O  O149  1  0.99100398  0.60367106  0.73022528  1
  O  O150  1  0.34551288  0.20878516  0.00509174  1
  O  O151  1  0.40978470  0.26775787  0.52123938  1
  O  O152  1  0.35430903  0.70985105  0.01052850  1
  O  O153  1  0.42306939  0.74703194  0.53137855  1
  O  O154  1  0.87485648  0.27829566  -0.00997406  1
  O  O155  1  0.87794023  0.29200149  0.53449543  1
  O  O156  1  0.83915583  0.74161624  0.02713609  1
  O  O157  1  0.81973290  0.87646006  0.43991327  1
  O  O158  1  0.14238372  0.25622167  0.49495978  1
  O  O159  1  0.14919626  0.15276598  0.87036516  1
  O  O160  1  0.18829904  0.81515214  0.43961207  1
  O  O161  1  0.09081853  0.75963067  1.04851504  1
  O  O162  1  0.65826388  0.29963311  0.53184956  1
  O  O163  1  0.66710336  0.30359648  0.98286407  1
  O  O164  1  0.61508374  0.69327263  0.48093180  1
  O  O165  1  0.63755794  0.73250416  1.03191489  1
  O  O166  1  0.46544415  0.25010607  0.06453495  1
  O  O167  1  0.52130205  0.27321347  0.64595316  1
  O  O168  1  0.52457134  0.71266465  0.15125678  1
  O  O169  1  0.45818372  0.75365917  0.60322945  1
  O  O170  1  0.96663430  0.21371401  0.16623144  1
  O  O171  1  0.98556717  0.27154833  0.62191538  1
  O  O172  1  0.99213988  0.82583748  0.18922069  1
  O  O173  1  0.98348118  0.74532244  0.64720314  1
  O  O174  1  -0.06994745  0.16712867  0.31821619  1
  O  O175  1  -0.00232110  0.28354097  0.86172465  1
  O  O176  1  0.08616260  0.77010689  0.35902896  1
  O  O177  1  -0.03380857  0.79404288  0.92554237  1
  O  O178  1  0.54007088  0.15892262  0.39483937  1
  O  O179  1  0.56116922  0.25958935  0.89623611  1
  O  O180  1  0.49282997  0.70831022  0.35229628  1
  O  O181  1  0.46304490  0.76964672  0.85693019  1
  O  O182  1  0.29074453  0.13536259  0.60386270  1
  O  O183  1  0.16303752  0.21440478  0.90308862  1
  O  O184  1  0.33755884  0.62672538  0.42114378  1
  O  O185  1  0.20202512  0.66281930  0.97954238  1
  O  O186  1  0.77392131  0.20066865  0.49373708  1
  O  O187  1  0.76947027  0.16821383  0.96225768  1
  O  O188  1  0.72723637  0.57365954  0.49723761  1
  O  O189  1  0.73873753  0.64818995  1.05827216  1
  O  O190  1  0.22282612  0.37480989  -0.02859276  1
  O  O191  1  0.29767595  0.36629261  0.48612454  1
  O  O192  1  0.25483076  0.83775700  -0.00734094  1
  O  O193  1  0.29128035  1.02093635  0.68803827  1
  O  O194  1  0.78435871  0.38243264  0.00396707  1
  O  O195  1  0.78375331  0.38148478  0.49090025  1
  O  O196  1  0.72551321  0.84818772  0.01992895  1
  O  O197  1  0.76068503  1.02027512  0.49827279  1
  O  O198  1  0.09479274  0.43092333  0.24425004  1
  O  O199  1  0.12338256  0.51827778  0.74007650  1
  O  O200  1  0.23560184  0.98490566  0.21571904  1
  O  O201  1  0.08813816  0.99671872  0.69835449  1
  O  O202  1  0.59729679  0.44143321  0.25663401  1
  O  O203  1  0.59375677  0.51039859  0.75686995  1
  O  O204  1  0.68227786  0.98414733  0.31830660  1
  O  O205  1  0.59585737  0.98671198  0.81044998  1
  O  O206  1  0.33531068  0.01086896  0.35690591  1
  O  O207  1  0.43383199  -0.01779873  0.81391496  1
  O  O208  1  0.38126983  0.48156222  0.19241007  1
  O  O209  1  0.33504433  0.52799588  0.74399982  1
  O  O210  1  0.83133236  0.03786904  0.28305618  1
  O  O211  1  0.89269266  0.02029011  0.76277317  1
  O  O212  1  0.90731372  0.51918184  0.29704927  1
  O  O213  1  0.87490873  0.50995368  0.77374880  1
  O  O214  1  0.14616209  0.36105786  0.37399942  1
  O  O215  1  0.10848847  0.38319055  0.85363326  1
  O  O216  1  0.16066693  0.90802950  0.35472174  1
  O  O217  1  0.10005568  0.88721666  0.91060791  1
  O  O218  1  0.60074409  0.30699166  0.30701483  1
  O  O219  1  0.64063678  0.40315121  0.87539421  1
  O  O220  1  0.71233076  0.93706661  0.35772765  1
  O  O221  1  0.60084658  0.83945618  0.88081250  1
  O  O222  1  0.38573482  0.15097670  0.13051392  1
  O  O223  1  0.35921640  0.03096508  0.66855002  1
  O  O224  1  0.47181025  0.55498212  0.05199369  1
  O  O225  1  0.36107007  0.62997448  0.64356729  1
  O  O226  1  0.84867812  0.07988379  0.13655751  1
  O  O227  1  0.87452593  0.13250570  0.64390692  1
  O  O228  1  0.80934707  0.53805950  0.16787406  1
  O  O229  1  0.88732103  0.62279892  0.62001659  1
  O  O230  1  0.26681762  0.24808147  0.10219596  1
  O  O231  1  0.33263689  0.24158889  0.71020621  1
  O  O232  1  0.24741998  0.74400558  0.11541176  1
  O  O233  1  0.26260862  0.72255032  0.58493038  1
  O  O234  1  0.74719489  0.24027413  0.09084448  1
  O  O235  1  0.77745041  0.28650108  0.63379969  1
  O  O236  1  0.74130506  0.77809626  0.13047843  1
  O  O237  1  0.74490829  0.69555342  0.62881847  1
  O  O238  1  0.27481713  0.22683766  0.38917539  1
  O  O239  1  0.34982216  0.11805107  0.82450782  1
  O  O240  1  0.27105938  0.83242143  0.30278045  1
  O  O241  1  0.23449729  0.74652430  0.86076590  1
  O  O242  1  0.69914008  0.15820049  0.29746353  1
  O  O243  1  0.75409828  0.27544322  0.87162104  1
  O  O244  1  0.76732020  0.77179048  0.44343954  1
  O  O245  1  0.75049051  0.73870296  0.93161259  1
  O  O246  1  0.01474525  0.16408512  -0.01244853  1
  O  O247  1  -0.03444515  0.18096196  0.47855837  1
  O  O248  1  0.00773154  0.62390808  0.00205046  1
  O  O249  1  0.01658175  0.79450334  0.49134915  1
  O  O250  1  0.52208654  0.09780226  -0.07861233  1
  O  O251  1  0.49041194  0.13040796  0.57492972  1
  O  O252  1  0.47980829  0.58960327  -0.09290053  1
  O  O253  1  0.51277199  0.59480298  0.49065405  1
  O  O254  1  0.49187267  0.38901272  0.51212787  1
  O  O255  1  0.52432642  0.39167215  0.98075119  1
  O  O256  1  0.58238222  0.85803620  0.45468962  1
  O  O257  1  0.51182600  0.73425407  0.98358340  1
  O  O258  1  0.99306542  0.36708440  0.47988184  1
  O  O259  1  1.00032220  0.39854824  0.97163986  1
  O  O260  1  0.88053344  0.88387475  0.46931437  1
  O  O261  1  1.00133396  0.90874564  1.03093404  1
  O  O262  1  0.47595346  0.48050883  0.39191363  1
  O  O263  1  0.44084338  0.52448018  0.88858624  1
  O  O264  1  0.48279247  0.97334752  0.39700677  1
  O  O265  1  0.46343519  0.94241325  0.96235859  1
  O  O266  1  1.02789622  0.53588446  0.39642345  1
  O  O267  1  0.99655486  0.50815126  0.88231418  1
  O  O268  1  1.00281510  1.10992129  0.43949436  1
  O  O269  1  0.95876960  0.95957494  0.87788688  1
  O  O270  1  0.09298074  0.01829348  0.18696075  1
  O  O271  1  -0.02736275  -0.04382448  0.60904810  1
  O  O272  1  0.02013205  0.49328412  0.09123753  1
  O  O273  1  0.02525945  0.49472477  0.60406463  1
  O  O274  1  0.53846324  0.01295418  0.23800392  1
  O  O275  1  0.52915229  -0.07779258  0.59014274  1
  O  O276  1  0.50390153  0.51145564  0.09626653  1
  O  O277  1  0.48576702  0.51463685  0.64499988  1
  O  O278  1  0.18370054  0.28037608  0.24160063  1
  O  O279  1  0.21663641  0.40424776  0.76101269  1
  O  O280  1  0.40258266  0.92046631  0.22375926  1
  O  O281  1  0.19075238  0.89593316  0.76100998  1
  O  O282  1  0.68114827  0.35836706  0.18793513  1
  O  O283  1  0.74130953  0.41916081  0.76576433  1
  O  O284  1  0.81382931  0.86781034  0.25148430  1
  O  O285  1  0.72142982  0.79422767  0.74652955  1
  O  O286  1  0.26986065  0.13736247  0.28193140  1
  O  O287  1  0.28462066  0.12399628  0.80479807  1
  O  O288  1  0.33094608  0.50955035  0.15285961  1
  O  O289  1  0.22845230  0.62759678  0.75379162  1
  O  O290  1  0.62037693  0.06554433  0.14753676  1
  O  O291  1  0.77690509  0.15569839  0.76111638  1
  O  O292  1  0.79822618  0.63756399  0.29324086  1
  O  O293  1  0.73467501  0.59006377  0.77267812  1
  O  O294  1  0.37325365  0.12085715  0.45602689  1
  O  O295  1  0.31387610  0.00733917  0.91538689  1
  O  O296  1  0.33203103  0.58124974  0.36649394  1
  O  O297  1  0.33570018  0.63230137  0.85833507  1
  O  O298  1  0.72782316  0.16343169  0.23222878  1
  O  O299  1  0.87320632  0.14548494  0.85560323  1
  O  O300  1  0.91968247  0.64817399  0.41205890  1
  O  O301  1  0.88918130  0.62087846  0.89418058  1
  O  O302  1  0.08607196  0.34796931  0.10983398  1
  O  O303  1  0.12691335  0.39491342  0.64351142  1
  O  O304  1  0.15851082  0.90594594  0.12975513  1
  O  O305  1  0.12881186  0.85965551  0.61650004  1
  O  O306  1  0.56224437  0.36483642  0.11891025  1
  O  O307  1  0.61512756  0.41116983  0.65679583  1
  O  O308  1  0.59104657  0.87012856  0.12158722  1
  O  O309  1  0.68498064  0.83775005  0.59289538  1
  O  O310  1  0.12320895  0.17551952  0.35275450  1
  O  O311  1  0.11212750  0.27054002  0.72657147  1
  O  O312  1  0.14613160  0.80254231  0.24606741  1
  O  O313  1  0.14412105  0.75510024  0.72315535  1
  O  O314  1  0.58461785  0.24441296  0.19055638  1
  O  O315  1  0.65071553  0.29596705  0.77043301  1
  O  O316  1  0.60255575  0.71000612  0.26909296  1
  O  O317  1  0.54532890  0.83227651  0.73642244  1
  O  O318  1  0.36207726  0.26478160  0.20058460  1
  O  O319  1  0.36134147  0.26821664  0.76676277  1
  O  O320  1  0.40395927  0.73937258  0.25053902  1
  O  O321  1  0.33361988  0.73990280  0.73044535  1
  O  O322  1  0.88061276  0.33317601  0.22624784  1
  O  O323  1  0.87754320  0.28407535  0.73843507  1
  O  O324  1  0.90065010  0.67674329  0.18646933  1
  O  O325  1  0.86864308  0.71442693  0.76035688  1
  O  O326  1  0.38804625  0.49041526  0.51927206  1
  O  O327  1  0.31050109  0.52854685  0.98752734  1
  O  O328  1  0.42443529  0.97094745  0.52307764  1
  O  O329  1  0.48906104  0.97413017  1.01831625  1
  O  O330  1  0.88702626  0.48385388  0.45650021  1
  O  O331  1  0.89683295  0.50027966  0.98998894  1
  O  O332  1  0.96574177  1.04952470  0.44584546  1
  O  O333  1  0.83306511  0.96318716  0.96637429  1
  O  O334  1  0.15802860  0.00113534  0.04023552  1
  O  O335  1  0.10526709  -0.03083198  0.51835552  1
  O  O336  1  0.11479892  0.51897977  -0.02244542  1
  O  O337  1  0.15020849  0.46438307  0.51030687  1
  O  O338  1  0.64678086  0.01892237  -0.01507897  1
  O  O339  1  0.60357063  0.01194669  0.48193862  1
  O  O340  1  0.45862489  0.40975109  -0.03511248  1
  O  O341  1  0.59424171  0.49656354  0.53288928  1
  O  O342  1  0.38127538  0.34657505  0.09110513  1
  O  O343  1  0.36417843  0.38403079  0.62605685  1
  O  O344  1  0.45730632  0.85112656  0.09984222  1
  O  O345  1  0.33945207  0.84599718  0.63420234  1
  O  O346  1  0.90477624  0.39301828  0.09674570  1
  O  O347  1  0.89617191  0.40636346  0.64624475  1
  O  O348  1  0.85018914  0.89832791  0.19312602  1
  O  O349  1  0.83958424  0.83563930  0.63943347  1
  O  O350  1  0.21077813  0.09916477  0.44821815  1
  O  O351  1  0.03391283  0.09683531  0.96898080  1
  O  O352  1  0.22048260  0.71347584  0.34019145  1
  O  O353  1  0.11370991  0.64895191  0.86428706  1
  O  O354  1  0.60265299  0.05798286  0.21999707  1
  O  O355  1  0.66071358  0.14211295  0.87211217  1
  O  O356  1  0.62900245  0.56020563  0.38796348  1
  O  O357  1  0.60265703  0.69123884  0.80319468  1
