# generated using pymatgen
data_V51Zn51O256
_symmetry_space_group_name_H-M   'P 1'
_cell_length_a   17.84167671
_cell_length_b   17.66766650
_cell_length_c   17.84352274
_cell_angle_alpha   88.90000229
_cell_angle_beta   89.08901249
_cell_angle_gamma   90.72772946
_symmetry_Int_Tables_number   1
_chemical_formula_structural   V51Zn51O256
_chemical_formula_sum   'V51 Zn51 O256'
_cell_volume   5622.42613874
_cell_formula_units_Z   1
loop_
 _symmetry_equiv_pos_site_id
 _symmetry_equiv_pos_as_xyz
  1  'x, y, z'
loop_
 _atom_site_type_symbol
 _atom_site_label
 _atom_site_symmetry_multiplicity
 _atom_site_fract_x
 _atom_site_fract_y
 _atom_site_fract_z
 _atom_site_occupancy
  V  V0  1  0.73563980  0.37951775  0.61706615  1
  V  V1  1  0.20770625  0.69132402  0.53058775  1
  V  V2  1  0.72826836  0.77577514  0.41772102  1
  V  V3  1  -0.04814569  0.86067499  0.40930508  1
  V  V4  1  0.05706517  0.37726012  0.39885612  1
  V  V5  1  0.52099018  0.01249789  0.47334241  1
  V  V6  1  0.39973943  0.88837483  0.50954548  1
  V  V7  1  0.50852877  0.77170811  0.21394237  1
  V  V8  1  0.19795252  0.66921035  0.86556486  1
  V  V9  1  0.77019455  0.25310242  0.51566081  1
  V  V10  1  0.21432150  0.48679089  0.14299686  1
  V  V11  1  -0.03184481  0.02978040  0.45614183  1
  V  V12  1  0.26061923  0.45223939  0.75547065  1
  V  V13  1  0.50625378  0.10799948  0.66105956  1
  V  V14  1  0.54679739  0.32531882  0.75728823  1
  V  V15  1  0.73952551  0.38004264  0.10563310  1
  V  V16  1  0.79744619  0.15870815  0.36517028  1
  V  V17  1  0.75414555  0.88533600  0.57285489  1
  V  V18  1  0.24707718  0.18461740  0.52301068  1
  V  V19  1  0.65125742  0.25728452  0.86081073  1
  V  V20  1  0.85473074  0.76293081  0.62321713  1
  V  V21  1  0.03049071  0.26096846  0.72701259  1
  V  V22  1  0.78371858  0.62496919  0.83683811  1
  V  V23  1  0.22646806  0.64110025  0.35401903  1
  V  V24  1  0.88402029  0.27487814  0.18419065  1
  V  V25  1  0.27307655  0.18964556  0.89029690  1
  V  V26  1  -0.01539952  0.36491183  0.88849404  1
  V  V27  1  0.62427409  0.53141128  0.58904157  1
  V  V28  1  -0.02823536  0.46296895  0.04568135  1
  V  V29  1  0.64524679  0.74690781  0.86087046  1
  V  V30  1  0.51708694  0.64976861  0.61421599  1
  V  V31  1  0.31760696  0.70798399  -0.00159021  1
  V  V32  1  0.89831925  0.57431877  0.26732819  1
  V  V33  1  0.67696228  -0.00788769  0.12773339  1
  V  V34  1  0.88633221  0.49306389  0.81600888  1
  V  V35  1  0.44256524  0.46096650  0.83689137  1
  V  V36  1  0.05489840  -0.04016611  0.13657273  1
  V  V37  1  0.19349926  0.85631830  0.18726860  1
  V  V38  1  0.37785792  0.50494453  0.42106033  1
  V  V39  1  -0.03265042  0.11098034  0.09998703  1
  V  V40  1  0.60987849  0.25317919  0.38087905  1
  V  V41  1  0.46450962  0.34513071  0.38800290  1
  V  V42  1  0.86773836  0.15439680  0.72041695  1
  V  V43  1  0.67997839  0.59639716  0.35035718  1
  V  V44  1  0.63855448  -0.00701733  0.62428633  1
  V  V45  1  0.16997009  0.35113206  0.24540391  1
  V  V46  1  0.87630734  0.48116004  0.51593468  1
  V  V47  1  0.74536726  0.00604444  0.77968802  1
  V  V48  1  0.62339209  0.14691131  0.51969769  1
  V  V49  1  0.57284016  0.52354625  0.05139010  1
  V  V50  1  0.72274686  0.45647817  0.26246891  1
  Zn  Zn51  1  0.02079196  0.74462595  0.52410884  1
  Zn  Zn52  1  0.77144631  0.80515743  0.77586218  1
  Zn  Zn53  1  0.09093918  0.50239665  0.85620142  1
  Zn  Zn54  1  0.69161042  0.42823070  0.44418727  1
  Zn  Zn55  1  0.57642521  0.38930905  -0.06324830  1
  Zn  Zn56  1  0.52156577  0.45725781  0.22443134  1
  Zn  Zn57  1  0.95628142  0.20830918  0.46311692  1
  Zn  Zn58  1  0.45985815  0.21992777  0.52769217  1
  Zn  Zn59  1  0.71995645  0.25018515  0.22679428  1
  Zn  Zn60  1  0.89722628  0.58444225  0.95790207  1
  Zn  Zn61  1  0.89091644  0.40168698  0.32825901  1
  Zn  Zn62  1  0.74504756  0.91278796  0.27916930  1
  Zn  Zn63  1  0.56286069  0.34560034  0.55815045  1
  Zn  Zn64  1  0.65119463  0.93899320  0.93540565  1
  Zn  Zn65  1  0.37664356  0.69921518  0.46788383  1
  Zn  Zn66  1  0.20461305  0.84735714  0.90847350  1
  Zn  Zn67  1  0.81139447  0.07488322  0.55910615  1
  Zn  Zn68  1  0.53975408  0.09180289  0.85754761  1
  Zn  Zn69  1  0.21569201  0.46057129  0.35099314  1
  Zn  Zn70  1  0.28607664  0.64750558  0.68883291  1
  Zn  Zn71  1  0.82505346  0.07655662  0.20320480  1
  Zn  Zn72  1  0.87269503  0.67306306  0.43929925  1
  Zn  Zn73  1  0.92536946  0.94957012  0.24593474  1
  Zn  Zn74  1  0.54389472  0.80367475  0.48908838  1
  Zn  Zn75  1  0.74001961  0.49625307  0.96153873  1
  Zn  Zn76  1  0.27603883  0.53024595  0.58046331  1
  Zn  Zn77  1  0.05213337  0.29926806  0.11595145  1
  Zn  Zn78  1  0.13578354  0.40038021  1.00720615  1
  Zn  Zn79  1  0.48335545  0.63785019  0.91478290  1
  Zn  Zn80  1  0.12376327  0.13947077  0.80848473  1
  Zn  Zn81  1  0.36581725  0.06702054  0.56143408  1
  Zn  Zn82  1  0.48944586  0.60683801  0.33729261  1
  Zn  Zn83  1  0.59083050  0.01097425  0.28904967  1
  Zn  Zn84  1  0.26190114  0.89424322  0.04615428  1
  Zn  Zn85  1  0.44592686  0.94989587  0.67186113  1
  Zn  Zn86  1  0.70074376  0.98595402  0.43073438  1
  Zn  Zn87  1  0.69017732  0.18351210  0.69051972  1
  Zn  Zn88  1  0.55405074  0.19222941  0.97720165  1
  Zn  Zn89  1  0.08795333  -0.05819957  0.30712475  1
  Zn  Zn90  1  0.23354361  0.26152569  0.71370709  1
  Zn  Zn91  1  0.17280127  1.03483443  0.95372474  1
  Zn  Zn92  1  0.70268364  0.69576991  0.66820799  1
  Zn  Zn93  1  0.63560916  0.65326500  0.17288843  1
  Zn  Zn94  1  0.82522165  0.54755328  0.11451154  1
  Zn  Zn95  1  0.24174816  0.66207661  0.17157803  1
  Zn  Zn96  1  0.28677230  0.25317323  0.36150871  1
  Zn  Zn97  1  0.35489690  0.53932627  0.24866437  1
  Zn  Zn98  1  0.00231985  0.35743173  0.55439116  1
  Zn  Zn99  1  0.80563964  0.32834174  0.79205200  1
  Zn  Zn100  1  0.09816001  0.56586211  0.24742566  1
  Zn  Zn101  1  0.12940908  0.19192541  0.02261061  1
  O  O102  1  -0.06868853  0.04729764  0.17430854  1
  O  O103  1  0.13801461  0.05941065  0.70487434  1
  O  O104  1  0.16779637  0.57880402  0.16110482  1
  O  O105  1  0.05092501  0.72376720  0.73935920  1
  O  O106  1  0.59112333  0.19976784  0.14023616  1
  O  O107  1  0.61728251  0.11850109  0.62860127  1
  O  O108  1  0.63527946  0.57966647  0.09971770  1
  O  O109  1  0.62933952  0.63062284  0.61729600  1
  O  O110  1  0.37529717  0.31463379  0.37760777  1
  O  O111  1  0.50162623  0.42596301  0.76695644  1
  O  O112  1  0.24831353  1.04575742  0.23449258  1
  O  O113  1  0.32354502  0.95529947  0.82612714  1
  O  O114  1  0.86814920  0.43105816  0.43524989  1
  O  O115  1  0.88453512  0.38859052  0.83580830  1
  O  O116  1  0.86425872  0.88116848  0.40200889  1
  O  O117  1  0.94672025  0.80723570  0.84195827  1
  O  O118  1  0.22690999  0.10117104  0.19911932  1
  O  O119  1  0.27726295  0.10186329  0.94301442  1
  O  O120  1  0.21462785  0.55662444  0.39933552  1
  O  O121  1  0.34480827  0.44141986  0.80873718  1
  O  O122  1  0.76457294  0.07540777  0.40207545  1
  O  O123  1  0.71253411  0.00925795  0.86872351  1
  O  O124  1  0.71751345  0.49937715  0.36174418  1
  O  O125  1  0.78747996  0.51297064  0.85829991  1
  O  O126  1  0.30567905  0.51071047  0.15856748  1
  O  O127  1  0.26368614  0.52945164  0.68840605  1
  O  O128  1  0.17212291  1.09640782  0.04034812  1
  O  O129  1  0.19738571  1.02386082  0.69802132  1
  O  O130  1  0.75266099  0.46729201  0.15944013  1
  O  O131  1  0.69201978  0.51782688  0.68431750  1
  O  O132  1  0.74860389  1.05868746  0.12796857  1
  O  O133  1  0.74743544  0.98906824  0.59504204  1
  O  O134  1  -0.00034492  0.40089244  0.32783222  1
  O  O135  1  0.01678479  0.33580368  0.78685637  1
  O  O136  1  -0.00920512  0.88734510  0.31878520  1
  O  O137  1  0.07789221  0.90774880  0.82825819  1
  O  O138  1  0.49370225  0.37831690  0.30119385  1
  O  O139  1  0.53776477  0.32735717  0.66166563  1
  O  O140  1  0.50227580  0.82520524  0.29441693  1
  O  O141  1  0.40295383  0.79795978  0.75575287  1
  O  O142  1  0.44042422  -0.01442366  0.23781759  1
  O  O143  1  0.51927517  0.10417275  0.75404258  1
  O  O144  1  0.52988216  0.69386394  0.14936777  1
  O  O145  1  0.49636070  0.65865787  0.70218217  1
  O  O146  1  1.10077822  0.19412197  0.34899184  1
  O  O147  1  0.97007072  0.18300996  0.74421331  1
  O  O148  1  0.99340876  0.55784236  0.25480531  1
  O  O149  1  1.00639427  0.67732891  0.76657504  1
  O  O150  1  0.38890685  0.20905778  0.10835972  1
  O  O151  1  0.35259374  0.18517301  0.53201555  1
  O  O152  1  0.40524506  0.70140022  -0.03981187  1
  O  O153  1  0.42799238  0.79612986  0.46860355  1
  O  O154  1  0.75793895  0.14686605  -0.00324304  1
  O  O155  1  0.86358620  0.24671887  0.52205616  1
  O  O156  1  1.00422853  0.71642771  0.03493419  1
  O  O157  1  0.80455605  0.75051433  0.47431606  1
  O  O158  1  0.15415756  0.16831854  0.50987769  1
  O  O159  1  0.03923697  0.18395645  1.09041214  1
  O  O160  1  0.12393087  0.73907318  0.52515016  1
  O  O161  1  0.28492359  0.80182148  0.98790010  1
  O  O162  1  0.60879346  0.24043928  0.53287767  1
  O  O163  1  0.60662111  0.28317690  0.95569335  1
  O  O164  1  0.63373010  0.77392615  0.44046536  1
  O  O165  1  0.66701453  0.66677390  0.93908832  1
  O  O166  1  0.48517735  0.13565462  0.24029263  1
  O  O167  1  0.47677131  0.19542881  0.63518061  1
  O  O168  1  0.53949738  0.85008137  0.16300089  1
  O  O169  1  0.53274122  0.73692141  0.57441011  1
  O  O170  1  0.94767338  0.32446644  0.13308247  1
  O  O171  1  1.02260126  0.29174495  0.63672044  1
  O  O172  1  0.89145573  0.76117872  0.14628612  1
  O  O173  1  0.94676274  0.74187548  0.59866941  1
  O  O174  1  0.01701415  0.30107584  0.46095432  1
  O  O175  1  -0.01351116  0.27887794  0.92124599  1
  O  O176  1  -0.03716385  0.76174233  0.43498371  1
  O  O177  1  -0.02150682  0.78271391  0.89750843  1
  O  O178  1  0.51166049  0.24727222  0.38026310  1
  O  O179  1  0.48088253  0.27120873  0.79462084  1
  O  O180  1  0.46831107  0.70207869  0.28066456  1
  O  O181  1  0.55553853  0.71326505  0.86705909  1
  O  O182  1  0.25793119  0.09299639  0.56498117  1
  O  O183  1  0.27444358  0.24655112  0.96804866  1
  O  O184  1  0.19231805  0.59785533  0.54947222  1
  O  O185  1  0.25600238  0.64859711  0.94494965  1
  O  O186  1  0.73051617  0.15171244  0.53635705  1
  O  O187  1  0.66298265  0.19636702  1.12721505  1
  O  O188  1  0.72833725  0.66959213  0.39014039  1
  O  O189  1  0.80520351  0.57170811  1.01220441  1
  O  O190  1  0.36439634  0.41903742  0.02565762  1
  O  O191  1  0.25387154  0.27511761  0.47475121  1
  O  O192  1  0.21736361  0.93889869  -0.03952719  1
  O  O193  1  0.31116056  0.89383045  0.48867620  1
  O  O194  1  0.76467196  0.39912701  0.01576934  1
  O  O195  1  0.74623680  0.35017654  0.50365630  1
  O  O196  1  0.84403146  0.76916117  -0.00310107  1
  O  O197  1  0.73066946  0.88281251  0.47814831  1
  O  O198  1  0.16478508  0.46517130  0.24989051  1
  O  O199  1  0.18838383  0.46624706  0.81487147  1
  O  O200  1  0.08359593  1.00565759  0.21431009  1
  O  O201  1  0.10333124  1.06317018  0.87803241  1
  O  O202  1  0.62980073  0.46166867  0.24833641  1
  O  O203  1  0.62565863  0.50498107  0.71136736  1
  O  O204  1  0.60214667  1.02524421  0.18566087  1
  O  O205  1  0.66070633  1.00528298  0.72042172  1
  O  O206  1  0.37880466  -0.04258881  0.25601173  1
  O  O207  1  0.32503936  -0.03687659  0.75742879  1
  O  O208  1  0.32707961  0.47460894  0.34185212  1
  O  O209  1  0.38562688  0.38151321  0.65600187  1
  O  O210  1  0.82798647  -0.01737762  0.26881890  1
  O  O211  1  0.85646377  0.01234237  0.79534808  1
  O  O212  1  0.84235816  0.48834922  0.27857812  1
  O  O213  1  0.88021513  0.50388756  0.72608167  1
  O  O214  1  0.15264395  0.36802872  0.35878158  1
  O  O215  1  0.07612212  0.40516219  0.91410747  1
  O  O216  1  0.17430594  0.88555820  0.27747705  1
  O  O217  1  -0.01670797  0.91727061  0.95563997  1
  O  O218  1  0.62322596  0.34470679  0.41424952  1
  O  O219  1  0.61224596  0.35561775  0.83483219  1
  O  O220  1  0.66255260  0.95279315  0.33817341  1
  O  O221  1  0.65187830  0.83359356  0.90216258  1
  O  O222  1  0.41520636  0.07537761  0.11625645  1
  O  O223  1  0.41268247  0.05746145  0.65559410  1
  O  O224  1  0.46121611  0.54385520  0.25750612  1
  O  O225  1  0.36588551  0.60448525  0.61845049  1
  O  O226  1  0.90231716  0.18073714  0.16554634  1
  O  O227  1  0.87644315  0.12621186  0.63028747  1
  O  O228  1  0.85910257  0.61665873  0.18882578  1
  O  O229  1  0.80382785  0.68114757  0.61392056  1
  O  O230  1  0.35032568  0.05264203  0.11492939  1
  O  O231  1  0.23306925  0.23470530  0.60510913  1
  O  O232  1  0.31346371  0.67681407  0.08964122  1
  O  O233  1  0.26098426  0.72083355  0.60353017  1
  O  O234  1  0.78845074  0.29519387  0.14723042  1
  O  O235  1  0.73665408  0.27266704  0.61605478  1
  O  O236  1  0.71305734  0.72327849  0.09803795  1
  O  O237  1  0.73315824  0.80163281  0.62364359  1
  O  O238  1  0.26794003  0.15184650  0.42620095  1
  O  O239  1  0.26412504  0.26547281  0.82415294  1
  O  O240  1  0.26256115  0.69925969  0.43809846  1
  O  O241  1  0.15714541  0.75649530  0.88205599  1
  O  O242  1  0.75225549  0.23653425  0.41248992  1
  O  O243  1  0.74530732  0.27055313  0.86666331  1
  O  O244  1  0.74682119  0.81316289  0.33032975  1
  O  O245  1  0.76778986  0.72345533  0.86002567  1
  O  O246  1  -0.08656777  0.11145514  0.02765219  1
  O  O247  1  0.00275019  0.11031451  0.49539074  1
  O  O248  1  -0.01236044  0.55283061  0.00418123  1
  O  O249  1  0.02874242  0.58127703  0.63075482  1
  O  O250  1  0.48528128  0.11951300  -0.05482832  1
  O  O251  1  0.51626011  0.11450472  0.51718271  1
  O  O252  1  0.51312653  0.58123045  0.00408287  1
  O  O253  1  0.41255175  0.65300865  0.57312904  1
  O  O254  1  0.47902357  0.32249286  0.49630108  1
  O  O255  1  0.32406357  0.20784389  1.13267775  1
  O  O256  1  0.52165938  0.91255994  0.48633159  1
  O  O257  1  0.53492522  0.93001097  0.81366690  1
  O  O258  1  0.95369506  0.45036008  0.56385917  1
  O  O259  1  0.93427006  0.40839300  0.97154066  1
  O  O260  1  0.99391197  0.92807165  0.47399960  1
  O  O261  1  1.01799102  0.78214438  1.05081038  1
  O  O262  1  0.45597686  0.44874357  0.42380311  1
  O  O263  1  0.46943875  0.41300631  0.91665304  1
  O  O264  1  0.52749101  1.02790190  0.37952546  1
  O  O265  1  0.46862276  0.94600142  0.78709891  1
  O  O266  1  1.06386668  0.45016900  0.45463375  1
  O  O267  1  0.98182388  0.49831451  0.84020339  1
  O  O268  1  0.97768301  1.04564704  0.35247997  1
  O  O269  1  0.94638625  0.94485304  0.90513207  1
  O  O270  1  -0.02069845  -0.09645115  0.16080397  1
  O  O271  1  0.11661268  -0.03132081  0.56911296  1
  O  O272  1  0.05409204  0.42535131  0.08215254  1
  O  O273  1  0.07283476  0.55201213  0.67413468  1
  O  O274  1  0.54639771  0.16902884  0.08955889  1
  O  O275  1  0.53760371  0.00098507  0.63020434  1
  O  O276  1  0.52185335  0.46810103  0.11583177  1
  O  O277  1  0.52815063  0.54175176  0.58158579  1
  O  O278  1  0.23655333  0.28707564  0.27584670  1
  O  O279  1  0.24216606  0.37026962  0.70794603  1
  O  O280  1  0.27699581  0.89624007  0.15045769  1
  O  O281  1  0.19482104  0.88360257  0.79009852  1
  O  O282  1  0.73738676  0.36462655  0.27809935  1
  O  O283  1  0.74866824  0.38100488  0.71076615  1
  O  O284  1  0.71138874  0.91310011  0.17354813  1
  O  O285  1  0.76723484  0.91320325  0.76568069  1
  O  O286  1  0.13555499  0.29581422  0.04329024  1
  O  O287  1  0.23676485  0.12731703  0.81531365  1
  O  O288  1  0.28900568  0.63195084  0.27625130  1
  O  O289  1  0.25310069  0.67512600  0.78522960  1
  O  O290  1  0.77966419  0.16254994  0.26680186  1
  O  O291  1  0.76744787  0.10919713  0.73767400  1
  O  O292  1  0.69105594  0.60851693  0.25477807  1
  O  O293  1  0.76032407  0.62588492  0.74721976  1
  O  O294  1  0.35847442  0.10566762  0.29649534  1
  O  O295  1  0.36616054  0.18587324  0.87337322  1
  O  O296  1  0.40599235  0.60457727  0.41339970  1
  O  O297  1  0.45591819  0.55591232  0.84764033  1
  O  O298  1  0.89022888  0.16951235  0.38492367  1
  O  O299  1  0.89477820  0.07741356  0.79514862  1
  O  O300  1  0.88511264  0.63483226  0.33963597  1
  O  O301  1  0.88413313  0.61359421  0.85162159  1
  O  O302  1  0.21437719  0.38037139  0.15901571  1
  O  O303  1  0.12878441  0.40846587  0.60060651  1
  O  O304  1  0.12766836  0.89020937  0.11652878  1
  O  O305  1  0.16380386  0.91868310  0.57127119  1
  O  O306  1  0.65059542  0.35707650  0.11192673  1
  O  O307  1  0.64313667  0.41531392  0.59565187  1
  O  O308  1  0.65019003  0.96820855  0.03698964  1
  O  O309  1  0.63890288  0.89981386  0.60945003  1
  O  O310  1  0.09255062  0.30319835  0.21973821  1
  O  O311  1  0.12476144  0.22428971  0.73857755  1
  O  O312  1  0.19861796  0.76071854  0.18504437  1
  O  O313  1  0.12243004  0.89145513  0.77401616  1
  O  O314  1  0.63184907  0.24733361  0.28870833  1
  O  O315  1  0.63069558  0.24734108  0.75806504  1
  O  O316  1  0.60781761  0.74488346  0.23102343  1
  O  O317  1  0.66670847  0.75511495  0.76292682  1
  O  O318  1  0.33983533  0.17228497  0.28414635  1
  O  O319  1  0.31478464  0.19329972  0.70652603  1
  O  O320  1  0.42347044  0.78164252  0.17132101  1
  O  O321  1  0.39351458  0.80004731  0.82396167  1
  O  O322  1  0.88215733  0.30373856  0.27585320  1
  O  O323  1  0.83669668  0.24410073  0.72903855  1
  O  O324  1  0.70254136  0.79100881  0.08144880  1
  O  O325  1  0.85889117  0.77768682  0.71791446  1
  O  O326  1  0.32564557  0.48455617  0.49955547  1
  O  O327  1  0.36914115  0.36915137  1.07366892  1
  O  O328  1  0.41706486  1.00127230  0.49329915  1
  O  O329  1  0.47462718  0.97779938  1.03198508  1
  O  O330  1  0.88148504  0.57709293  0.49821152  1
  O  O331  1  0.90598659  0.47227976  1.11444627  1
  O  O332  1  0.87739799  1.02744160  0.48603856  1
  O  O333  1  0.83919870  0.83690002  1.00974888  1
  O  O334  1  0.03474641  0.02900968  0.06823325  1
  O  O335  1  0.05284108  0.02911684  0.37253950  1
  O  O336  1  0.20414095  0.47581989  0.04770973  1
  O  O337  1  0.18402833  0.42286255  0.55967742  1
  O  O338  1  0.55346158  -0.02366581  -0.12542889  1
  O  O339  1  0.62621183  0.02663578  0.50911458  1
  O  O340  1  0.62887272  0.47295587  -0.01739614  1
  O  O341  1  0.66287869  0.52436732  0.50192213  1
  O  O342  1  0.47267264  0.20347366  0.23627144  1
  O  O343  1  0.37005809  0.35466627  0.59551862  1
  O  O344  1  0.42297314  0.93122041  0.02706586  1
  O  O345  1  0.40384449  0.87883579  0.60644764  1
  O  O346  1  0.78426437  0.20917484  0.00831308  1
  O  O347  1  0.79882899  0.45192580  0.58352669  1
  O  O348  1  0.83842379  0.78723304  0.18090647  1
  O  O349  1  0.84943664  0.86641302  0.57839295  1
  O  O350  1  0.14347769  0.15273227  0.31476052  1
  O  O351  1  0.16493670  0.19744545  0.91243267  1
  O  O352  1  0.14191140  0.65446424  0.31431594  1
  O  O353  1  0.12648675  0.60515498  0.86021147  1
  O  O354  1  0.62774168  0.15610967  0.41920899  1
  O  O355  1  0.62695725  0.16086235  0.88145928  1
  O  O356  1  0.58753213  0.60466506  0.37404678  1
  O  O357  1  0.69153414  0.60669448  0.89982011  1
