# generated using pymatgen
data_V51Zn51O256
_symmetry_space_group_name_H-M   'P 1'
_cell_length_a   17.55335829
_cell_length_b   17.33609510
_cell_length_c   17.84304489
_cell_angle_alpha   91.02936132
_cell_angle_beta   89.75258966
_cell_angle_gamma   90.80271848
_symmetry_Int_Tables_number   1
_chemical_formula_structural   V51Zn51O256
_chemical_formula_sum   'V51 Zn51 O256'
_cell_volume   5428.30396009
_cell_formula_units_Z   1
loop_
 _symmetry_equiv_pos_site_id
 _symmetry_equiv_pos_as_xyz
  1  'x, y, z'
loop_
 _atom_site_type_symbol
 _atom_site_label
 _atom_site_symmetry_multiplicity
 _atom_site_fract_x
 _atom_site_fract_y
 _atom_site_fract_z
 _atom_site_occupancy
  V  V0  1  0.38534931  0.12159289  0.23450813  1
  V  V1  1  0.42566324  0.00493020  0.85609564  1
  V  V2  1  0.74495798  0.84045095  0.12350544  1
  V  V3  1  0.00814719  0.60330030  0.67557768  1
  V  V4  1  0.76406107  0.92518138  0.56380097  1
  V  V5  1  0.11777889  0.26227046  0.88634556  1
  V  V6  1  0.46969798  0.60656192  0.15569938  1
  V  V7  1  0.25666940  0.66724953  0.87169433  1
  V  V8  1  0.41510250  0.85558955  0.03597114  1
  V  V9  1  0.73496716  0.10926550  0.92586253  1
  V  V10  1  0.13351230  0.45347170  0.63274429  1
  V  V11  1  0.12625955  -0.03526639  0.15618628  1
  V  V12  1  0.22374136  0.60702301  0.41930764  1
  V  V13  1  0.08630239  0.26464423  0.36334719  1
  V  V14  1  0.72585058  0.15352781  0.35606932  1
  V  V15  1  0.76395867  0.47195369  0.24867174  1
  V  V16  1  0.20719070  0.01210507  0.76892255  1
  V  V17  1  0.03168819  0.63360348  0.15865698  1
  V  V18  1  -0.00732300  -0.04327291  0.00611972  1
  V  V19  1  0.78995207  -0.01596984  0.81190839  1
  V  V20  1  0.34658916  0.37441954  0.50589158  1
  V  V21  1  0.53928722  0.27302055  0.75836191  1
  V  V22  1  0.49301876  0.53127090  -0.01841471  1
  V  V23  1  0.22005813  0.85688988  0.59122315  1
  V  V24  1  0.01189384  0.00446845  0.48695521  1
  V  V25  1  0.36382785  0.66732358  0.73298801  1
  V  V26  1  0.26101037  0.74986101  0.03363028  1
  V  V27  1  0.62275259  0.74503141  0.85967708  1
  V  V28  1  0.48764166  0.38179143  0.40479918  1
  V  V29  1  0.73390989  0.39579503  0.61653046  1
  V  V30  1  0.24213543  0.23852134  0.48200319  1
  V  V31  1  0.86829714  0.12611686  0.24484398  1
  V  V32  1  0.63414562  0.37221317  0.18102301  1
  V  V33  1  0.73876238  -0.01167501  0.25200145  1
  V  V34  1  0.59927380  0.02269360  0.10605767  1
  V  V35  1  0.77114571  0.60829329  0.83200877  1
  V  V36  1  0.12132229  0.61897477  -0.01864532  1
  V  V37  1  0.09966231  0.87934944  0.74982459  1
  V  V38  1  0.16552056  0.35758851  0.76605452  1
  V  V39  1  0.23771694  0.14510487  0.32956526  1
  V  V40  1  0.36911023  0.49453511  0.85872852  1
  V  V41  1  0.12194877  0.35717957  0.20692715  1
  V  V42  1  0.37605678  0.37910612  0.00181115  1
  V  V43  1  0.09989348  0.65580957  0.52482150  1
  V  V44  1  0.91213758  0.77468160  0.17693552  1
  V  V45  1  0.65634400  0.62362939  0.03111925  1
  V  V46  1  0.87836999  0.14982947  0.78334784  1
  V  V47  1  0.23924465  0.15241971  0.90961060  1
  V  V48  1  0.36370030  0.95247483  0.56190142  1
  V  V49  1  0.60737230  0.26207726  0.38516879  1
  V  V50  1  0.27298613  -0.03929537  0.29233628  1
  Zn  Zn51  1  0.41496124  0.04937069  0.03379234  1
  Zn  Zn52  1  0.48901001  0.42006442  0.12122124  1
  Zn  Zn53  1  0.47156346  1.06075969  0.68408309  1
  Zn  Zn54  1  0.76345086  0.63972975  0.14149869  1
  Zn  Zn55  1  0.68403282  0.17819626  0.16873837  1
  Zn  Zn56  1  0.03420199  0.78079958  0.64478042  1
  Zn  Zn57  1  0.43269771  0.70334007  0.92468439  1
  Zn  Zn58  1  0.80554128  0.59080492  0.64743646  1
  Zn  Zn59  1  0.60226415  0.39361502  -0.01919980  1
  Zn  Zn60  1  0.29975987  0.84302747  0.43194258  1
  Zn  Zn61  1  0.93905013  0.44706059  0.63892215  1
  Zn  Zn62  1  0.25516128  0.11335614  0.11040303  1
  Zn  Zn63  1  0.33844750  0.30135344  0.81716958  1
  Zn  Zn64  1  0.91809619  0.66220039  0.54471272  1
  Zn  Zn65  1  0.96144065  0.47149157  0.20623214  1
  Zn  Zn66  1  0.90755917  0.17718665  0.42901754  1
  Zn  Zn67  1  0.27960378  0.27194534  0.21432035  1
  Zn  Zn68  1  0.82207945  0.01938778  0.07698533  1
  Zn  Zn69  1  0.34156975  0.58935370  0.04032227  1
  Zn  Zn70  1  0.05854446  0.07545644  0.30303397  1
  Zn  Zn71  1  0.29512438  0.55136961  0.57872133  1
  Zn  Zn72  1  0.05274095  0.07349199  0.84838556  1
  Zn  Zn73  1  0.16311167  0.42192758  0.43927801  1
  Zn  Zn74  1  0.65093825  0.44774103  0.80624138  1
  Zn  Zn75  1  0.30499565  0.84508581  0.80048810  1
  Zn  Zn76  1  0.21482225  1.00587973  0.46996994  1
  Zn  Zn77  1  0.55234989  0.49529781  0.27729448  1
  Zn  Zn78  1  0.21125843  0.29658058  0.05342429  1
  Zn  Zn79  1  0.56715959  0.76989154  0.08927524  1
  Zn  Zn80  1  0.60839462  0.01505921  0.80379504  1
  Zn  Zn81  1  0.96929540  0.62924786  0.86670603  1
  Zn  Zn82  1  0.92799047  0.94855056  0.66535701  1
  Zn  Zn83  1  0.07808158  0.79309842  0.05603876  1
  Zn  Zn84  1  0.80875777  0.13217243  0.59631809  1
  Zn  Zn85  1  0.95662695  0.98146106  0.18011508  1
  Zn  Zn86  1  0.28044092  0.11647436  0.61083587  1
  Zn  Zn87  1  0.41043433  0.97010602  0.16526653  1
  Zn  Zn88  1  0.83667596  0.32027533  0.21313251  1
  Zn  Zn89  1  0.69562741  0.42555225  0.41652569  1
  Zn  Zn90  1  0.21041276  0.44583560  0.93781537  1
  Zn  Zn91  1  0.41219218  0.53254345  0.42854951  1
  Zn  Zn92  1  0.24446662  0.52432726  0.75631807  1
  Zn  Zn93  1  0.42354662  0.19315270  0.91550647  1
  Zn  Zn94  1  0.58117761  0.07751422  0.27523879  1
  Zn  Zn95  1  0.11274736  0.53133973  0.29078139  1
  Zn  Zn96  1  0.39997027  0.22606126  0.37936586  1
  Zn  Zn97  1  0.52786541  0.60432489  0.80192983  1
  Zn  Zn98  1  0.68512203  0.95679722  0.39768851  1
  Zn  Zn99  1  0.54923238  0.30298148  0.55731633  1
  Zn  Zn100  1  0.68757091  0.90937062  0.95470089  1
  Zn  Zn101  1  0.18426124  0.69624194  0.69213688  1
  O  O102  1  0.17746225  0.03158786  0.10675257  1
  O  O103  1  0.06834523  0.20926509  0.60326326  1
  O  O104  1  0.10038313  0.61459019  0.09419450  1
  O  O105  1  0.10631351  0.62832339  0.63741339  1
  O  O106  1  0.62421387  0.11883004  0.09689361  1
  O  O107  1  0.70652309  0.14338300  0.61348718  1
  O  O108  1  0.64536915  0.61999934  0.12629806  1
  O  O109  1  0.49785689  0.61969114  0.54089031  1
  O  O110  1  0.38980039  0.38372868  0.39378073  1
  O  O111  1  0.36893158  0.39497847  0.87395548  1
  O  O112  1  0.38389437  0.89379052  0.48593007  1
  O  O113  1  0.36347331  0.92678452  0.84454525  1
  O  O114  1  0.87601730  0.34731036  0.40342741  1
  O  O115  1  0.98958329  0.43185916  0.95317387  1
  O  O116  1  0.86327700  0.75599937  0.42976942  1
  O  O117  1  0.91170987  0.84652571  0.84508521  1
  O  O118  1  0.23166198  0.02114267  0.36285276  1
  O  O119  1  0.24144656  0.05763666  0.85023504  1
  O  O120  1  0.17197789  0.52191989  0.37964861  1
  O  O121  1  0.27032089  0.51868783  0.87414981  1
  O  O122  1  0.68059758  0.04568942  0.33214734  1
  O  O123  1  0.77854716  -0.06606156  0.89324407  1
  O  O124  1  0.90667948  0.41158923  0.40473212  1
  O  O125  1  0.74057800  0.51354968  0.83268875  1
  O  O126  1  0.22598523  0.52254720  0.15417029  1
  O  O127  1  0.22412263  0.49926087  0.64724142  1
  O  O128  1  0.20534164  0.94521101  0.22313051  1
  O  O129  1  0.24264402  1.05777822  0.69255984  1
  O  O130  1  0.78605747  0.56157461  0.21357257  1
  O  O131  1  0.73472156  0.50006580  0.63362673  1
  O  O132  1  0.76599012  0.94031536  0.15464926  1
  O  O133  1  0.80776794  1.01815520  0.59543810  1
  O  O134  1  -0.03263519  0.26096493  0.08693598  1
  O  O135  1  -0.03930044  0.35084458  0.70483333  1
  O  O136  1  -0.13581908  0.80022454  0.37427395  1
  O  O137  1  0.01010466  0.88216254  0.69242335  1
  O  O138  1  0.53751318  0.39591829  0.21512579  1
  O  O139  1  0.55760234  0.37297899  0.78440185  1
  O  O140  1  0.40275798  0.75257711  0.26679109  1
  O  O141  1  0.57505957  1.05668178  0.71119883  1
  O  O142  1  0.47978360  0.09661410  0.24058070  1
  O  O143  1  0.53944350  0.18494216  0.70865407  1
  O  O144  1  0.49328146  0.58056435  0.24560436  1
  O  O145  1  0.45920907  0.65138732  0.73179259  1
  O  O146  1  0.95590799  0.11206412  0.28431045  1
  O  O147  1  0.97142632  0.13078645  0.80846647  1
  O  O148  1  1.07226261  0.62182706  0.24576264  1
  O  O149  1  1.01655547  0.60980573  0.76897010  1
  O  O150  1  0.40213088  0.28779472  -0.02824700  1
  O  O151  1  0.34621428  0.26127884  0.46833557  1
  O  O152  1  0.36904318  0.77022177  -0.01012806  1
  O  O153  1  0.54230080  0.79379757  0.55619484  1
  O  O154  1  0.87565350  0.24561045  -0.05178000  1
  O  O155  1  0.85919397  0.18911492  0.52365273  1
  O  O156  1  0.84359118  0.74919690  -0.04036728  1
  O  O157  1  0.81527383  0.63560599  0.55434870  1
  O  O158  1  0.14558748  0.24898969  0.44605811  1
  O  O159  1  0.19780582  0.24219860  0.95501094  1
  O  O160  1  0.07697248  0.74982628  0.54582150  1
  O  O161  1  0.15324458  0.72314392  1.01299311  1
  O  O162  1  0.60379278  0.24623688  0.47857100  1
  O  O163  1  0.74361263  0.28873570  1.03413483  1
  O  O164  1  0.61305256  0.71123839  0.45268286  1
  O  O165  1  0.62408980  0.71347699  1.00907920  1
  O  O166  1  0.57480598  0.25653095  0.00976145  1
  O  O167  1  0.53626072  0.30759784  0.66405325  1
  O  O168  1  0.49928990  0.70008524  0.14083873  1
  O  O169  1  0.58235720  0.75441679  0.59631258  1
  O  O170  1  0.95637903  0.19551222  0.06196888  1
  O  O171  1  0.94039487  0.28599450  0.68051358  1
  O  O172  1  0.99573734  0.73080094  0.12757751  1
  O  O173  1  0.96363796  0.69234900  0.64807363  1
  O  O174  1  -0.00205741  0.23421231  0.38887280  1
  O  O175  1  0.03937971  0.27383191  0.93360440  1
  O  O176  1  -0.06851616  0.73974298  0.46183082  1
  O  O177  1  -0.06518699  0.78081270  0.82437049  1
  O  O178  1  0.49766502  0.28071539  0.36578594  1
  O  O179  1  0.51123431  0.23317086  0.84717850  1
  O  O180  1  0.51676659  0.81314623  0.36740037  1
  O  O181  1  0.52949001  0.69668287  0.87214808  1
  O  O182  1  0.25046305  0.14629135  0.43649762  1
  O  O183  1  0.26705452  0.11377089  0.98985369  1
  O  O184  1  0.21089441  0.60273119  0.51832301  1
  O  O185  1  0.27805018  0.64954672  0.97241695  1
  O  O186  1  0.71988538  0.13276177  0.44430149  1
  O  O187  1  0.76682946  0.08678798  1.01539234  1
  O  O188  1  0.67805157  0.57754101  0.49492469  1
  O  O189  1  0.75562573  0.62134935  1.02999079  1
  O  O190  1  0.27255650  0.37988712  0.00419838  1
  O  O191  1  0.24594805  0.35800349  0.48243504  1
  O  O192  1  0.25398685  0.84475714  0.04843695  1
  O  O193  1  0.21678391  0.88773127  0.49511833  1
  O  O194  1  0.77539560  0.44293495  -0.00317902  1
  O  O195  1  0.74026857  0.40633896  0.51610241  1
  O  O196  1  0.74864355  0.84497146  0.03084645  1
  O  O197  1  0.76689106  0.96889423  0.46993979  1
  O  O198  1  0.06698169  0.44579512  0.22976488  1
  O  O199  1  0.15192604  0.45783950  0.76675609  1
  O  O200  1  0.05900270  0.99310623  0.23084066  1
  O  O201  1  0.10767923  1.01075874  0.76592728  1
  O  O202  1  0.65795199  0.47028987  0.23976946  1
  O  O203  1  0.59369925  0.52713670  0.76491564  1
  O  O204  1  0.62893162  1.00265590  0.20038051  1
  O  O205  1  0.70569752  0.97051378  0.76634486  1
  O  O206  1  0.36345023  -0.00687870  0.26104690  1
  O  O207  1  0.41411351  0.05967495  0.77753507  1
  O  O208  1  0.23096639  0.54437722  0.22007178  1
  O  O209  1  0.36623140  0.50406649  0.76438909  1
  O  O210  1  0.82735876  0.01291784  0.28213228  1
  O  O211  1  0.86713376  -0.03355130  0.75268580  1
  O  O212  1  0.86854118  0.42554567  0.23307381  1
  O  O213  1  0.88609542  0.43929210  0.82121875  1
  O  O214  1  0.09097466  0.36401043  0.37729062  1
  O  O215  1  0.16478472  0.36161008  0.87596149  1
  O  O216  1  0.06380649  0.82428808  0.30373343  1
  O  O217  1  0.07045228  0.87953387  0.83639900  1
  O  O218  1  0.60457960  0.37102896  0.38397807  1
  O  O219  1  0.65859891  0.38784291  0.89408464  1
  O  O220  1  0.58482369  0.91251169  0.41963404  1
  O  O221  1  0.62802286  0.83807380  0.89475223  1
  O  O222  1  0.36276686  0.07613629  0.13158632  1
  O  O223  1  0.41709251  0.19805861  0.58799938  1
  O  O224  1  0.37214170  0.59637187  0.14442265  1
  O  O225  1  0.33671969  0.62932696  0.64595244  1
  O  O226  1  0.88379167  0.06594178  0.16020651  1
  O  O227  1  0.86743608  0.13606874  0.68651195  1
  O  O228  1  0.89718081  0.76723207  -0.00013790  1
  O  O229  1  0.91272258  0.55263693  0.65824700  1
  O  O230  1  0.24495757  0.22380465  0.12346193  1
  O  O231  1  0.23440770  0.20836166  0.57203407  1
  O  O232  1  0.27589947  0.71316708  0.11595736  1
  O  O233  1  0.22304749  0.76017435  0.60703056  1
  O  O234  1  0.76996173  0.24676693  0.08270430  1
  O  O235  1  0.75200774  0.29850836  0.62330782  1
  O  O236  1  0.80917903  0.75489599  0.14643892  1
  O  O237  1  0.74995987  0.84560202  0.50473858  1
  O  O238  1  0.25746001  0.24266886  0.32146774  1
  O  O239  1  0.31744204  0.20135047  0.86504440  1
  O  O240  1  0.27148977  0.72612649  0.42319542  1
  O  O241  1  0.25402049  0.76435335  0.86903609  1
  O  O242  1  0.70995939  0.26076911  0.36277911  1
  O  O243  1  0.71917058  0.20238014  0.92557185  1
  O  O244  1  0.70329529  0.69636975  0.36699175  1
  O  O245  1  0.73005532  0.70831584  0.87742799  1
  O  O246  1  0.19355277  -0.09912790  -0.06540832  1
  O  O247  1  -0.02248548  0.10076557  0.47807659  1
  O  O248  1  0.02727442  0.61677731  -0.04228930  1
  O  O249  1  0.01356970  0.60663772  0.52079682  1
  O  O250  1  0.54164570  0.19500433  -0.00718644  1
  O  O251  1  0.48485959  0.19281270  0.55766753  1
  O  O252  1  0.45209203  0.62213330  0.00120081  1
  O  O253  1  0.45907899  0.63467850  0.47736311  1
  O  O254  1  0.48450874  0.37313010  0.50240391  1
  O  O255  1  0.49510087  0.42074500  0.99282135  1
  O  O256  1  0.44392459  0.98595058  0.60467347  1
  O  O257  1  0.51066811  0.83914976  1.02593926  1
  O  O258  1  0.96505492  0.32802804  0.52920458  1
  O  O259  1  0.99905741  0.42454072  1.02056983  1
  O  O260  1  1.02709063  0.90891618  0.50823428  1
  O  O261  1  1.01834057  0.86067087  0.99682998  1
  O  O262  1  0.50207632  0.48290291  0.37865279  1
  O  O263  1  0.47204163  0.52976426  0.87927101  1
  O  O264  1  0.50692311  1.06141099  0.45380790  1
  O  O265  1  0.51615985  0.97165299  0.84811992  1
  O  O266  1  0.96628644  0.39997000  0.53372006  1
  O  O267  1  0.84059320  0.39422591  0.84966466  1
  O  O268  1  1.05977931  1.00379855  0.39627278  1
  O  O269  1  1.02848737  1.01284817  0.93439345  1
  O  O270  1  0.03015123  -0.00782698  0.09241601  1
  O  O271  1  -0.02335912  0.01321790  0.58072637  1
  O  O272  1  -0.03970280  0.56483809  0.15024883  1
  O  O273  1  0.04095910  0.49274585  0.65995492  1
  O  O274  1  0.49981752  0.01124218  0.10181927  1
  O  O275  1  0.39426563  0.13959607  0.63562247  1
  O  O276  1  0.50465425  0.52901263  0.09572373  1
  O  O277  1  0.50558704  0.54864571  0.55627338  1
  O  O278  1  0.21572823  0.36769682  0.22960166  1
  O  O279  1  0.25779267  0.33051184  0.75364974  1
  O  O280  1  0.28796545  0.87339245  0.33120428  1
  O  O281  1  0.21418099  0.90807520  0.77147307  1
  O  O282  1  0.74304087  0.37696877  0.19470915  1
  O  O283  1  0.70788538  0.39890770  0.71341724  1
  O  O284  1  0.72002033  0.90639558  0.29954634  1
  O  O285  1  0.73934027  0.87528552  0.64370071  1
  O  O286  1  0.26127526  0.10717035  0.24009406  1
  O  O287  1  0.04446832  0.17041694  0.65552449  1
  O  O288  1  0.24140772  0.70060980  0.35767841  1
  O  O289  1  0.24702350  0.64010711  0.76471888  1
  O  O290  1  0.74829694  0.12345759  0.23444355  1
  O  O291  1  0.77515966  0.09843101  0.81065441  1
  O  O292  1  0.76431983  0.46763880  0.34522583  1
  O  O293  1  0.77344369  0.63282879  0.74000976  1
  O  O294  1  0.36252316  0.13188226  0.33561852  1
  O  O295  1  0.42694066  0.08432495  0.93199416  1
  O  O296  1  0.31474779  0.57768366  0.40287853  1
  O  O297  1  0.36090655  0.64904469  0.84694116  1
  O  O298  1  0.83100319  0.15583651  0.34910047  1
  O  O299  1  0.83425596  0.08306559  0.87107967  1
  O  O300  1  0.89816010  0.58022859  0.37753923  1
  O  O301  1  0.86258402  0.60782978  0.86836252  1
  O  O302  1  0.12074676  0.33739232  0.11291727  1
  O  O303  1  0.13384953  0.35738168  0.66112486  1
  O  O304  1  0.11692847  0.87204676  0.12410360  1
  O  O305  1  0.15022601  0.90237840  0.63807402  1
  O  O306  1  0.62434281  0.39138203  0.08724600  1
  O  O307  1  0.63451750  0.38637962  0.58817952  1
  O  O308  1  0.65572937  0.81312407  0.14708395  1
  O  O309  1  0.67344323  0.96216514  0.57805287  1
  O  O310  1  0.08634415  0.27609818  0.25705931  1
  O  O311  1  0.10070663  0.27710586  0.78496532  1
  O  O312  1  0.04047398  0.78384716  0.35483474  1
  O  O313  1  0.11503390  0.77938643  0.72897766  1
  O  O314  1  0.63339846  0.27378472  0.19091352  1
  O  O315  1  0.63374089  0.26016944  0.78139722  1
  O  O316  1  0.57810448  0.85073881  0.36553040  1
  O  O317  1  0.62910388  0.74864614  0.76859247  1
  O  O318  1  0.38198913  0.21731930  0.21505437  1
  O  O319  1  0.43632222  0.28616760  0.76484159  1
  O  O320  1  0.39947894  0.71523822  0.32409302  1
  O  O321  1  0.34841360  0.76531328  0.73512113  1
  O  O322  1  0.87077913  0.22062816  0.21146478  1
  O  O323  1  0.85790499  0.23992878  0.80325982  1
  O  O324  1  0.91720989  0.73205436  0.25711066  1
  O  O325  1  0.98801177  0.74741206  0.86765324  1
  O  O326  1  0.35334877  0.48041532  0.51240134  1
  O  O327  1  0.37703246  0.49442894  0.98419352  1
  O  O328  1  0.30152581  1.02999262  0.53779787  1
  O  O329  1  0.39389926  0.94194556  0.99504191  1
  O  O330  1  0.83420205  0.60730343  0.38127501  1
  O  O331  1  0.84375971  0.45565896  1.00370843  1
  O  O332  1  0.93213747  0.97398464  0.43586395  1
  O  O333  1  0.89542690  0.96105063  1.01860504  1
  O  O334  1  0.17946695  -0.03657356  -0.03774642  1
  O  O335  1  0.10899840  0.03537316  0.50841339  1
  O  O336  1  0.15332749  0.52649156  -0.01158500  1
  O  O337  1  0.12381233  0.44917040  0.53839700  1
  O  O338  1  0.64293664  -0.03195567  0.03864993  1
  O  O339  1  0.56365776  0.07204006  0.49266051  1
  O  O340  1  0.59484902  0.54718410  -0.02069789  1
  O  O341  1  0.64151294  0.53255190  0.45217899  1
  O  O342  1  0.39075286  0.37724496  0.09715162  1
  O  O343  1  0.35382901  0.34958715  0.59288289  1
  O  O344  1  0.39999637  0.86563451  0.13168401  1
  O  O345  1  0.31019001  0.89540231  0.62702754  1
  O  O346  1  0.87932624  0.31084205  -0.02578187  1
  O  O347  1  0.83528824  0.40533752  0.62046562  1
  O  O348  1  0.92368248  0.87178088  0.18717106  1
  O  O349  1  0.86291756  0.89771687  0.58373371  1
  O  O350  1  0.13398571  0.15248589  0.32919169  1
  O  O351  1  0.13656930  0.15502102  0.86939107  1
  O  O352  1  0.12452587  0.66042844  0.42920118  1
  O  O353  1  0.15866916  0.63800332  0.88644193  1
  O  O354  1  0.60622952  0.17055925  0.33477024  1
  O  O355  1  0.65375268  0.05940977  0.89673216  1
  O  O356  1  0.63336546  0.68834811  0.38638708  1
  O  O357  1  0.67986776  0.64168274  0.88780778  1
