# generated using pymatgen
data_V51Zn51O256
_symmetry_space_group_name_H-M   'P 1'
_cell_length_a   17.67527574
_cell_length_b   17.51871051
_cell_length_c   18.27830041
_cell_angle_alpha   91.15309498
_cell_angle_beta   90.00432737
_cell_angle_gamma   89.44016134
_symmetry_Int_Tables_number   1
_chemical_formula_structural   V51Zn51O256
_chemical_formula_sum   'V51 Zn51 O256'
_cell_volume   5658.42355042
_cell_formula_units_Z   1
loop_
 _symmetry_equiv_pos_site_id
 _symmetry_equiv_pos_as_xyz
  1  'x, y, z'
loop_
 _atom_site_type_symbol
 _atom_site_label
 _atom_site_symmetry_multiplicity
 _atom_site_fract_x
 _atom_site_fract_y
 _atom_site_fract_z
 _atom_site_occupancy
  V  V0  1  -0.03345424  0.08078801  0.63647417  1
  V  V1  1  0.74260710  0.76975415  0.47217097  1
  V  V2  1  0.72869356  0.59858007  0.35792466  1
  V  V3  1  0.82487457  0.61845211  0.22001781  1
  V  V4  1  0.63633626  0.79198605  0.35556984  1
  V  V5  1  0.13622716  0.37985020  0.25088535  1
  V  V6  1  0.52354915  0.91979293  0.38576899  1
  V  V7  1  -0.00526125  0.51114891  0.01146362  1
  V  V8  1  0.47329827  -0.02979957  0.04702081  1
  V  V9  1  0.61594286  0.62453760  0.47272742  1
  V  V10  1  0.54840345  0.10328209  0.13448631  1
  V  V11  1  0.79177919  -0.01391408  0.23450597  1
  V  V12  1  0.40781948  0.76248891  0.25764605  1
  V  V13  1  -0.03948263  0.33409680  0.91499036  1
  V  V14  1  0.06077726  0.62118677  0.50006511  1
  V  V15  1  0.92662948  0.15878084  0.23148994  1
  V  V16  1  0.86944824  0.25068836  0.64811815  1
  V  V17  1  0.91077853  0.81347002  0.01806401  1
  V  V18  1  0.53416425  0.41137180  0.30209130  1
  V  V19  1  0.73342898  0.47550179  0.69152092  1
  V  V20  1  0.24096930  0.72599035  0.04103117  1
  V  V21  1  0.12542482  0.63069839  -0.02658981  1
  V  V22  1  0.11071559  0.37787321  0.76963770  1
  V  V23  1  0.88338901  0.54908875  0.87004359  1
  V  V24  1  0.15749588  0.04074269  -0.02963586  1
  V  V25  1  0.34995897  0.01737236  0.36884921  1
  V  V26  1  0.11516101  -0.05739803  0.61140988  1
  V  V27  1  0.86591883  0.09308125  0.79108842  1
  V  V28  1  0.24023537  0.88810159  0.13901030  1
  V  V29  1  0.64812043  0.30114866  0.96587813  1
  V  V30  1  0.89844196  0.01004864  0.38066302  1
  V  V31  1  0.54683576  0.45608691  0.52942526  1
  V  V32  1  0.01780355  -0.02485712  0.01309728  1
  V  V33  1  0.78009311  0.27533414  0.50733036  1
  V  V34  1  0.05944891  0.60027203  0.13783899  1
  V  V35  1  0.64005560  0.33064522  0.71273188  1
  V  V36  1  0.89939212  0.84965698  0.45369447  1
  V  V37  1  0.35280264  0.22733864  0.10899748  1
  V  V38  1  0.83939990  0.79329466  0.62362910  1
  V  V39  1  0.13421728  0.89802758  0.25898779  1
  V  V40  1  0.14272329  0.15347814  0.48535056  1
  V  V41  1  0.86459623  0.49479834  0.33527131  1
  V  V42  1  0.27289316  0.58396960  0.38499132  1
  V  V43  1  0.30881551  0.12595181  0.25000886  1
  V  V44  1  0.74089290  0.11996424  0.94255854  1
  V  V45  1  0.01052743  0.87086564  0.82880582  1
  V  V46  1  0.07466058  0.30276452  0.39838081  1
  V  V47  1  0.04828335  0.73401275  0.26028985  1
  V  V48  1  0.30165275  0.73134900  0.50660495  1
  V  V49  1  0.66770482  0.11485828  0.48719188  1
  V  V50  1  0.13252323  0.75085214  0.82595975  1
  Zn  Zn51  1  0.63871220  0.67867943  0.19491802  1
  Zn  Zn52  1  0.15753215  0.75212360  0.63288861  1
  Zn  Zn53  1  0.92190230  0.73519973  0.86096762  1
  Zn  Zn54  1  0.05564847  0.06215321  0.33071916  1
  Zn  Zn55  1  0.49699196  1.06811179  0.48408978  1
  Zn  Zn56  1  0.57084649  0.50173577  0.71722636  1
  Zn  Zn57  1  0.14635503  0.21312212  0.65199769  1
  Zn  Zn58  1  0.41765356  0.57550697  0.48649496  1
  Zn  Zn59  1  0.04291786  0.56415902  0.32715954  1
  Zn  Zn60  1  0.88831274  0.28996613  0.35392182  1
  Zn  Zn61  1  0.13520571  0.48672566  0.45962329  1
  Zn  Zn62  1  0.59256505  0.30117717  0.14620768  1
  Zn  Zn63  1  0.68535845  0.42862647  0.42873146  1
  Zn  Zn64  1  0.89203840  0.92747331  0.74170632  1
  Zn  Zn65  1  0.57771639  0.49675735  0.16346270  1
  Zn  Zn66  1  0.61329051  0.05656709  0.29745232  1
  Zn  Zn67  1  0.71658979  0.46728069  0.88021056  1
  Zn  Zn68  1  0.82305677  0.80242782  0.28325289  1
  Zn  Zn69  1  0.71617226  0.95871786  0.40256270  1
  Zn  Zn70  1  0.18835087  0.15705866  0.12028315  1
  Zn  Zn71  1  0.91049194  0.67293927  0.40012808  1
  Zn  Zn72  1  0.52648512  0.61029504  0.29342507  1
  Zn  Zn73  1  0.93249724  0.17504014  0.48082018  1
  Zn  Zn74  1  0.73633432  0.09830391  0.12295747  1
  Zn  Zn75  1  0.89129960  0.43637202  0.70932848  1
  Zn  Zn76  1  0.21830674  0.65097382  0.21603184  1
  Zn  Zn77  1  0.45542354  0.95858899  0.23031628  1
  Zn  Zn78  1  0.68990403  0.66040709  0.65306230  1
  Zn  Zn79  1  0.32561422  0.32977727  0.24357624  1
  Zn  Zn80  1  0.80080390  0.54111232  0.03681435  1
  Zn  Zn81  1  0.50452313  0.19630964  1.01032088  1
  Zn  Zn82  1  0.06593661  0.36894767  0.07205721  1
  Zn  Zn83  1  0.28468160  0.86803483  0.65110560  1
  Zn  Zn84  1  0.98354243  0.47301897  0.20417842  1
  Zn  Zn85  1  0.18341465  0.91077357  0.44077383  1
  Zn  Zn86  1  0.78001787  0.26485236  0.84800797  1
  Zn  Zn87  1  0.84336976  0.96075080  0.92442943  1
  Zn  Zn88  1  0.17695545  0.85951958  0.94271567  1
  Zn  Zn89  1  0.07015159  0.79804633  0.09481749  1
  Zn  Zn90  1  0.88568929  0.07392303  0.07448842  1
  Zn  Zn91  1  0.01113306  0.77923295  0.56862259  1
  Zn  Zn92  1  0.32758921  0.76313691  0.89787834  1
  Zn  Zn93  1  0.57467919  0.25224939  0.55499563  1
  Zn  Zn94  1  0.31571255  0.05866978  0.06826601  1
  Zn  Zn95  1  0.34016975  0.85011010  0.39614836  1
  Zn  Zn96  1  0.46889204  0.72878470  0.41887862  1
  Zn  Zn97  1  0.62286618  0.01460999  0.92691919  1
  Zn  Zn98  1  0.39910590  0.78845872  0.08699396  1
  Zn  Zn99  1  0.32481536  0.15971291  0.44889842  1
  Zn  Zn100  1  0.16816487  0.45082459  0.91468032  1
  Zn  Zn101  1  0.21187778  0.76210796  0.35736448  1
  O  O102  1  0.08215679  0.20288181  0.10988304  1
  O  O103  1  0.09751606  0.16826914  0.56957578  1
  O  O104  1  0.15239040  0.58934922  0.14904401  1
  O  O105  1  0.25008125  0.57958302  0.70856950  1
  O  O106  1  0.63490686  0.06951768  0.10955294  1
  O  O107  1  0.57430643  0.12848384  0.52693739  1
  O  O108  1  0.66106091  0.64795432  0.06220495  1
  O  O109  1  0.63461304  0.64267204  0.56100732  1
  O  O110  1  0.42288912  0.37866639  0.29241678  1
  O  O111  1  0.37811657  0.40577694  0.87276074  1
  O  O112  1  0.41662613  0.93002129  0.38522642  1
  O  O113  1  0.35384834  0.87834290  0.86544043  1
  O  O114  1  0.86689400  0.39849354  0.34004520  1
  O  O115  1  0.86912937  0.33083095  0.88568809  1
  O  O116  1  0.89028056  0.84057504  0.36008584  1
  O  O117  1  0.91347259  0.83811441  0.82562429  1
  O  O118  1  0.27474456  -0.03528462  0.39589213  1
  O  O119  1  0.34092822  -0.10695630  0.79572493  1
  O  O120  1  0.23570203  0.50628472  0.42939981  1
  O  O121  1  0.27591541  0.47832654  0.90738243  1
  O  O122  1  0.80332826  -0.01728051  0.34412570  1
  O  O123  1  0.74262989  0.01790946  0.92841263  1
  O  O124  1  0.75439414  0.49936770  0.36915739  1
  O  O125  1  0.80307292  0.52299579  0.92714784  1
  O  O126  1  0.23896798  0.39158702  0.05120105  1
  O  O127  1  0.28893909  0.53203605  0.67427581  1
  O  O128  1  0.25297899  0.97676823  0.10962046  1
  O  O129  1  0.20250502  0.94404657  0.65239897  1
  O  O130  1  0.70290657  0.49304848  0.07422385  1
  O  O131  1  0.81805266  0.49062679  0.64944847  1
  O  O132  1  0.81231882  1.02039802  0.14427465  1
  O  O133  1  0.65085469  0.99222538  0.68580603  1
  O  O134  1  -0.06597030  0.37290611  0.17527311  1
  O  O135  1  0.02516133  0.35442248  0.81991589  1
  O  O136  1  0.03701682  0.82906465  0.26096843  1
  O  O137  1  0.00634159  0.92198102  0.75045960  1
  O  O138  1  0.56292505  0.39737918  0.20473638  1
  O  O139  1  0.57977972  0.39725537  0.75372070  1
  O  O140  1  0.45096530  0.84939918  0.25180626  1
  O  O141  1  0.43885364  0.81620117  0.65093157  1
  O  O142  1  0.55275398  0.11459020  0.23055269  1
  O  O143  1  0.34007097  0.06088982  0.82561746  1
  O  O144  1  0.45936728  0.69595336  0.31455572  1
  O  O145  1  0.49668054  0.56278759  0.77629736  1
  O  O146  1  1.01293860  0.13966496  0.27047638  1
  O  O147  1  0.94651227  0.12817394  0.81352647  1
  O  O148  1  1.01345729  0.58316668  0.22234437  1
  O  O149  1  0.85711095  0.64021564  0.70311898  1
  O  O150  1  0.39445193  0.21769501  0.02489998  1
  O  O151  1  0.35816802  0.26599565  0.45684651  1
  O  O152  1  0.33778216  0.73987902  0.00550536  1
  O  O153  1  0.38543815  0.77563037  0.47475002  1
  O  O154  1  0.81801882  0.32466050  0.08102319  1
  O  O155  1  0.88504459  0.24947154  0.54449633  1
  O  O156  1  0.93258524  0.73123604  -0.03371240  1
  O  O157  1  0.84201738  0.74818953  0.45396285  1
  O  O158  1  0.14420469  0.24729244  0.44280166  1
  O  O159  1  0.07868192  0.24374650  1.05265878  1
  O  O160  1  0.09697245  0.70021581  0.55486922  1
  O  O161  1  0.12850495  0.72327291  1.02836217  1
  O  O162  1  0.69250847  0.21645911  0.49763635  1
  O  O163  1  0.64899655  0.32335381  1.05827819  1
  O  O164  1  0.63864552  0.74006070  0.44755942  1
  O  O165  1  0.58178550  0.77327570  1.02196431  1
  O  O166  1  0.54162386  0.20681275  0.11707517  1
  O  O167  1  0.45846863  0.22467519  0.52443310  1
  O  O168  1  0.40727638  0.72050279  0.17261104  1
  O  O169  1  0.44451925  0.88220719  0.62455362  1
  O  O170  1  0.95676931  0.33458101  0.11891048  1
  O  O171  1  0.95532526  0.17856380  0.65964803  1
  O  O172  1  1.04183862  0.70820567  0.16130115  1
  O  O173  1  0.92937719  0.75515918  0.63387261  1
  O  O174  1  -0.01491672  0.26482680  0.41444633  1
  O  O175  1  -0.01322305  0.25055975  0.93963355  1
  O  O176  1  -0.00799789  0.69284358  0.32617688  1
  O  O177  1  0.03078808  0.75580410  0.81984566  1
  O  O178  1  0.46459325  0.34681696  0.34914222  1
  O  O179  1  0.56100592  0.26103769  0.94726404  1
  O  O180  1  0.52773747  0.81849580  0.39550009  1
  O  O181  1  0.58825654  0.75447514  0.75549072  1
  O  O182  1  0.23570732  0.13207032  0.50189460  1
  O  O183  1  0.21594871  0.09795110  1.03210814  1
  O  O184  1  0.34483816  0.64826899  0.53490276  1
  O  O185  1  0.22457061  0.63218687  0.98877222  1
  O  O186  1  0.72247751  0.06259370  0.53762478  1
  O  O187  1  0.78769879  0.12363615  1.02764809  1
  O  O188  1  0.73323361  0.63607105  0.44700622  1
  O  O189  1  0.71453866  0.66867517  1.02343335  1
  O  O190  1  0.17887247  0.38467679  0.01387622  1
  O  O191  1  0.26759413  0.39861826  0.57440708  1
  O  O192  1  0.22281406  0.82911915  0.04470848  1
  O  O193  1  0.24838113  0.81739328  0.45034056  1
  O  O194  1  0.64568311  0.49541902  0.02330418  1
  O  O195  1  0.75097658  0.36700831  0.49210908  1
  O  O196  1  0.84099231  0.86646699  -0.02612489  1
  O  O197  1  0.73584855  0.86651717  0.46377584  1
  O  O198  1  0.07762003  0.45921741  0.27397177  1
  O  O199  1  0.12169698  0.47341862  0.81238650  1
  O  O200  1  0.10526675  0.98894401  0.26318736  1
  O  O201  1  0.12114900  1.11829682  0.77815490  1
  O  O202  1  0.56687043  0.59767297  0.19487568  1
  O  O203  1  0.69088734  0.39390445  0.65007357  1
  O  O204  1  0.70032350  1.01695649  0.24368119  1
  O  O205  1  0.57785379  1.00398364  0.82466450  1
  O  O206  1  0.36899613  0.02660012  0.27121095  1
  O  O207  1  0.40597252  0.03899051  0.81936262  1
  O  O208  1  0.39393982  0.46323170  0.06818985  1
  O  O209  1  0.42630386  0.52640682  0.77051691  1
  O  O210  1  0.88678888  0.04918803  0.26486750  1
  O  O211  1  0.85586830  -0.00239698  0.82392777  1
  O  O212  1  0.87438965  0.51615016  0.23841937  1
  O  O213  1  0.90416397  0.48989062  0.79754392  1
  O  O214  1  0.08472883  0.39427420  0.42895355  1
  O  O215  1  0.15366778  0.34888727  0.85957832  1
  O  O216  1  0.14749238  0.86258071  0.34941911  1
  O  O217  1  0.12194884  0.85332765  0.84167352  1
  O  O218  1  0.61261571  0.39540422  0.35512452  1
  O  O219  1  0.66231322  0.38431606  0.91872446  1
  O  O220  1  0.63362379  0.89520166  0.35541629  1
  O  O221  1  0.65313420  0.84227323  0.86203468  1
  O  O222  1  0.35569933  0.12891814  0.15157442  1
  O  O223  1  0.29823213  0.16943010  0.64220007  1
  O  O224  1  0.37112567  0.52845880  0.05669324  1
  O  O225  1  0.44605078  0.68510716  0.72782136  1
  O  O226  1  0.92697377  0.15078619  0.13741709  1
  O  O227  1  0.89677479  0.03712915  0.69361974  1
  O  O228  1  0.81424575  0.60217479  0.12875623  1
  O  O229  1  0.79908268  0.68825030  0.65627615  1
  O  O230  1  0.25705057  0.24238334  0.10116313  1
  O  O231  1  0.25571983  0.23842612  0.64088477  1
  O  O232  1  0.25316491  0.70196034  0.12889682  1
  O  O233  1  0.26088624  0.77160823  0.59154203  1
  O  O234  1  0.72798289  0.20809654  0.15402787  1
  O  O235  1  0.77594233  0.26525085  0.61511683  1
  O  O236  1  0.62660527  0.79946715  0.06973745  1
  O  O237  1  0.74353574  0.76285000  0.56748487  1
  O  O238  1  0.33588309  0.39217488  0.58540583  1
  O  O239  1  0.34042412  0.25799506  0.82711821  1
  O  O240  1  0.24774694  0.67684227  0.43078480  1
  O  O241  1  0.21870963  0.76664964  0.89138132  1
  O  O242  1  0.81709524  0.24704841  0.42324131  1
  O  O243  1  0.72764098  0.24012880  0.94121437  1
  O  O244  1  0.73452303  0.77022385  0.34811435  1
  O  O245  1  0.69564843  0.79400959  0.88747791  1
  O  O246  1  0.06149104  0.06632136  -0.03093237  1
  O  O247  1  -0.06044019  0.08124381  0.54964600  1
  O  O248  1  0.03157860  0.61409042  0.04023317  1
  O  O249  1  -0.03357115  0.64009666  0.48774889  1
  O  O250  1  0.50180296  0.08683500  0.04094580  1
  O  O251  1  0.53571900  0.21668210  0.38604814  1
  O  O252  1  0.56173121  0.63557226  -0.07771754  1
  O  O253  1  0.51651270  0.64013579  0.46421889  1
  O  O254  1  0.56985791  0.36066655  0.52068688  1
  O  O255  1  0.48105454  0.48078421  0.92712732  1
  O  O256  1  0.54192004  0.96642308  0.46641093  1
  O  O257  1  0.46161916  0.87650967  1.07363127  1
  O  O258  1  1.01763797  0.36363516  0.56303137  1
  O  O259  1  1.00889357  0.40369753  0.98272473  1
  O  O260  1  0.98953332  0.82127832  0.47281224  1
  O  O261  1  1.00357660  0.86498471  1.03667879  1
  O  O262  1  0.50980774  0.50345114  0.31440074  1
  O  O263  1  0.63841318  0.55375490  0.85781452  1
  O  O264  1  0.52816166  0.98431899  0.31259783  1
  O  O265  1  0.51812987  0.93916171  0.95649992  1
  O  O266  1  0.94819925  0.52145893  0.37324001  1
  O  O267  1  0.96870897  0.54580114  0.92123001  1
  O  O268  1  0.98225378  0.97799267  0.34789067  1
  O  O269  1  1.00693104  0.92806222  0.90509310  1
  O  O270  1  0.03134157  0.00289059  0.09776262  1
  O  O271  1  0.05419873  0.02243784  0.64105466  1
  O  O272  1  0.03925643  0.49167782  0.10709789  1
  O  O273  1  -0.08707799  0.61863605  0.66734643  1
  O  O274  1  0.49289716  0.00564425  0.14429661  1
  O  O275  1  0.53779024  -0.06223890  0.81104884  1
  O  O276  1  0.45522746  0.54446730  -0.05962496  1
  O  O277  1  0.53811936  0.48885348  0.61661788  1
  O  O278  1  0.23277330  0.38379681  0.26405565  1
  O  O279  1  0.20203684  0.38512044  0.73475399  1
  O  O280  1  0.23185611  0.91064587  0.24047381  1
  O  O281  1  0.30725975  0.83512912  0.75679169  1
  O  O282  1  0.71405785  0.22648248  0.22544949  1
  O  O283  1  0.75106991  0.45185471  0.77974107  1
  O  O284  1  0.79587264  0.88960764  0.22523258  1
  O  O285  1  0.66080981  0.92344752  0.69177845  1
  O  O286  1  0.21885574  0.12115931  0.21777247  1
  O  O287  1  0.17302381  0.12934539  0.73333331  1
  O  O288  1  0.24939850  0.58862367  0.29356075  1
  O  O289  1  0.39211746  0.70308913  0.76971949  1
  O  O290  1  0.83678822  0.11657007  0.26725139  1
  O  O291  1  0.81925161  0.16186997  0.71954204  1
  O  O292  1  0.72606528  0.62323285  0.25109064  1
  O  O293  1  0.67030173  0.55654704  0.69184887  1
  O  O294  1  0.29479156  0.10771660  0.35276414  1
  O  O295  1  0.30601592  0.20745798  0.79425152  1
  O  O296  1  0.36878122  0.57718581  0.39050029  1
  O  O297  1  0.37735669  0.55159160  0.81546695  1
  O  O298  1  0.90807002  0.10383769  0.40592138  1
  O  O299  1  0.79814394  0.14099613  0.85951907  1
  O  O300  1  0.83460342  0.61232077  0.33924358  1
  O  O301  1  0.87218171  0.63983030  0.84116032  1
  O  O302  1  0.11902227  0.35711263  0.16227523  1
  O  O303  1  0.06239343  0.42412538  0.70292035  1
  O  O304  1  0.13683865  0.85556558  0.16127062  1
  O  O305  1  0.08663193  0.84600332  0.62129572  1
  O  O306  1  0.57635239  0.49100289  0.05207270  1
  O  O307  1  0.59251535  0.26440462  0.65879395  1
  O  O308  1  0.61556914  0.77892382  0.14166582  1
  O  O309  1  0.50669208  0.93246017  0.74824487  1
  O  O310  1  0.09747897  0.30151639  0.30399359  1
  O  O311  1  0.11094712  0.28695221  0.72588887  1
  O  O312  1  0.14608128  0.71519732  0.27960057  1
  O  O313  1  0.16410285  0.73293140  0.73891751  1
  O  O314  1  0.66693128  0.28523069  0.23361807  1
  O  O315  1  0.69584396  0.28971382  0.77782787  1
  O  O316  1  0.60495244  0.75080061  0.27754398  1
  O  O317  1  0.62500483  0.75112668  0.68973883  1
  O  O318  1  0.32895747  0.21849610  0.26901623  1
  O  O319  1  0.36869223  0.17716574  0.65033389  1
  O  O320  1  0.32094083  0.77742097  0.30810673  1
  O  O321  1  0.41390036  0.72026936  0.84310632  1
  O  O322  1  0.90248611  0.25125043  0.25683114  1
  O  O323  1  0.83767421  0.23574585  0.74883700  1
  O  O324  1  0.85674438  0.70867261  0.23081030  1
  O  O325  1  0.82372194  0.85601192  0.69454576  1
  O  O326  1  0.45941329  0.47524843  0.49267482  1
  O  O327  1  0.32009953  0.41158709  0.91285965  1
  O  O328  1  0.39991999  1.07293304  0.44181680  1
  O  O329  1  0.38602275  0.99676140  1.01455512  1
  O  O330  1  0.96872160  0.40956165  0.54492167  1
  O  O331  1  0.90669241  0.50608821  1.04616083  1
  O  O332  1  0.89212467  0.95336228  0.46124967  1
  O  O333  1  0.92074326  1.00585257  0.99805404  1
  O  O334  1  0.13402250  -0.05565257  -0.00454625  1
  O  O335  1  0.12986992  -0.04492497  0.52007183  1
  O  O336  1  0.11294892  0.52841118  -0.03178036  1
  O  O337  1  0.07931557  0.53624125  0.54254403  1
  O  O338  1  0.58169229  -0.04909117  0.00563404  1
  O  O339  1  0.66116890  0.06461029  0.40020934  1
  O  O340  1  0.62716730  0.60650013  -0.08578485  1
  O  O341  1  0.61994302  0.51462889  0.47987323  1
  O  O342  1  0.38753997  0.30549261  0.15661348  1
  O  O343  1  0.42254313  0.28362332  0.49396444  1
  O  O344  1  0.32587065  0.84712201  0.14999928  1
  O  O345  1  0.37745112  0.92476313  0.61842650  1
  O  O346  1  0.79938355  0.35631815  0.13869958  1
  O  O347  1  0.90665762  0.33739692  0.67205296  1
  O  O348  1  0.87908107  0.78623477  0.09793128  1
  O  O349  1  0.85987512  0.85430445  0.55243592  1
  O  O350  1  0.09679029  0.09414038  0.42520241  1
  O  O351  1  0.19580908  0.03664371  0.88890803  1
  O  O352  1  0.10020157  0.59863486  0.41136134  1
  O  O353  1  0.11580229  0.65950546  0.88421603  1
  O  O354  1  0.58942785  0.22239717  0.34344315  1
  O  O355  1  0.64304596  0.12270129  0.94268105  1
  O  O356  1  0.62731160  0.60653755  0.36000421  1
  O  O357  1  0.60195335  0.70232312  0.80113638  1
