# generated using pymatgen
data_V51Zn51O256
_symmetry_space_group_name_H-M   'P 1'
_cell_length_a   17.38348019
_cell_length_b   17.58987073
_cell_length_c   17.24190390
_cell_angle_alpha   88.43635682
_cell_angle_beta   89.48152394
_cell_angle_gamma   90.73711704
_symmetry_Int_Tables_number   1
_chemical_formula_structural   V51Zn51O256
_chemical_formula_sum   'V51 Zn51 O256'
_cell_volume   5269.47926974
_cell_formula_units_Z   1
loop_
 _symmetry_equiv_pos_site_id
 _symmetry_equiv_pos_as_xyz
  1  'x, y, z'
loop_
 _atom_site_type_symbol
 _atom_site_label
 _atom_site_symmetry_multiplicity
 _atom_site_fract_x
 _atom_site_fract_y
 _atom_site_fract_z
 _atom_site_occupancy
  V  V0  1  0.29050094  0.01592897  0.73177970  1
  V  V1  1  0.54758243  0.02418569  0.50426276  1
  V  V2  1  0.38165241  0.17004079  0.68960941  1
  V  V3  1  0.52977841  0.74712108  0.75225751  1
  V  V4  1  0.84349823  0.02075258  0.91000136  1
  V  V5  1  0.89991651  0.86802840  0.01418998  1
  V  V6  1  0.63617428  0.57687849  0.02408002  1
  V  V7  1  0.40541856  0.91409859  0.55219592  1
  V  V8  1  0.22755950  0.37764333  0.64284693  1
  V  V9  1  0.87659463  0.47932602  0.89753836  1
  V  V10  1  0.10271735  0.38280431  0.76992258  1
  V  V11  1  0.20910997  0.09628906  0.39586508  1
  V  V12  1  0.36302036  0.68031401  0.65100775  1
  V  V13  1  0.05073932  0.07875994  0.00859727  1
  V  V14  1  0.20991009  0.63074294  0.91388913  1
  V  V15  1  0.04568731  0.01612475  0.17322366  1
  V  V16  1  0.77478536  0.51419518  0.74826648  1
  V  V17  1  0.50377363  0.17760415  0.18306122  1
  V  V18  1  0.50306955  0.28201345  0.71260435  1
  V  V19  1  0.09952871  0.50478213  0.62618039  1
  V  V20  1  0.38842479  0.71623550  0.11239862  1
  V  V21  1  -0.01230905  0.14344545  0.63961702  1
  V  V22  1  0.86143537  0.13319998  0.77366857  1
  V  V23  1  0.79391177  0.62668671  0.37085444  1
  V  V24  1  0.26290495  -0.02814341  0.25419454  1
  V  V25  1  0.48201931  0.40488191  0.86355701  1
  V  V26  1  0.60168351  0.62769442  0.50444850  1
  V  V27  1  -0.00867551  0.25800261  0.77873108  1
  V  V28  1  0.75734266  0.62688882  0.88209451  1
  V  V29  1  0.71665271  0.73641616  0.00398214  1
  V  V30  1  0.10341735  0.02520440  0.66023678  1
  V  V31  1  0.18749816  0.27608584  0.50403511  1
  V  V32  1  0.45724991  0.03431440  0.06276241  1
  V  V33  1  0.62025341  0.51723598  0.63524772  1
  V  V34  1  0.49786165  0.90197463  0.86519295  1
  V  V35  1  0.78074359  0.10552679  0.38399628  1
  V  V36  1  0.01089635  0.76269336  0.76963454  1
  V  V37  1  0.61095383  0.84644848  0.25116144  1
  V  V38  1  0.75420041  0.37277342  0.63961860  1
  V  V39  1  0.87014347  -0.04028124  0.42552846  1
  V  V40  1  0.79753546  0.74324581  0.49433062  1
  V  V41  1  0.60721593  0.25778747  0.88564065  1
  V  V42  1  0.59174426  0.72782945  0.37042668  1
  V  V43  1  0.26969778  0.14671521  0.85732772  1
  V  V44  1  -0.00157667  0.63613751  0.11092055  1
  V  V45  1  0.21409732  0.60703445  0.30706729  1
  V  V46  1  0.72708198  0.85659797  0.12194674  1
  V  V47  1  0.72689127  0.01266159  0.21846881  1
  V  V48  1  0.87145762  0.36913337  0.50548090  1
  V  V49  1  0.35187131  0.23261012  0.11581595  1
  V  V50  1  -0.01437715  0.50250152  0.48901985  1
  Zn  Zn51  1  0.92676783  0.69921932  0.92367198  1
  Zn  Zn52  1  0.69031274  0.21370851  0.74416854  1
  Zn  Zn53  1  1.03488985  0.17012798  0.45132736  1
  Zn  Zn54  1  0.92401539  0.19546719  0.95232601  1
  Zn  Zn55  1  0.39582881  0.23052489  0.90789898  1
  Zn  Zn56  1  0.06380812  0.51041775  0.30738535  1
  Zn  Zn57  1  0.50288690  0.12534378  0.38143936  1
  Zn  Zn58  1  0.48708840  0.09212666  0.85967984  1
  Zn  Zn59  1  0.07481701  0.46503546  0.94308270  1
  Zn  Zn60  1  0.07342463  0.83862780  0.11927296  1
  Zn  Zn61  1  0.79162468  0.11529830  0.07578768  1
  Zn  Zn62  1  0.19712200  0.48177796  0.45924564  1
  Zn  Zn63  1  0.15631297  0.66575935  0.71705083  1
  Zn  Zn64  1  0.81598961  0.56041827  0.06108577  1
  Zn  Zn65  1  0.37304310  0.84792175  0.73451294  1
  Zn  Zn66  1  0.32214736  0.33134755  0.79098141  1
  Zn  Zn67  1  0.79981669  0.31899995  0.82009712  1
  Zn  Zn68  1  0.67336606  0.44652312  0.91592982  1
  Zn  Zn69  1  0.86598475  0.26210337  0.39880732  1
  Zn  Zn70  1  0.15857281  0.51534085  0.13286257  1
  Zn  Zn71  1  0.67972653  0.91027597  0.92475144  1
  Zn  Zn72  1  0.32198814  0.50976168  0.59031748  1
  Zn  Zn73  1  1.01852372  0.43226305  0.13317644  1
  Zn  Zn74  1  0.07768488  0.08886437  0.82496473  1
  Zn  Zn75  1  0.58157813  0.57149069  0.82256398  1
  Zn  Zn76  1  0.66598282  0.55077473  0.31770502  1
  Zn  Zn77  1  0.42628005  0.90083311  0.19619488  1
  Zn  Zn78  1  0.51379309  0.30197868  0.01917472  1
  Zn  Zn79  1  0.68917641  0.88019450  0.45609961  1
  Zn  Zn80  1  0.53907121  0.85705526  0.05241177  1
  Zn  Zn81  1  0.17507508  0.19705044  0.70867918  1
  Zn  Zn82  1  0.32170374  0.55077709  0.02422245  1
  Zn  Zn83  1  0.73008596  0.47849072  0.48199719  1
  Zn  Zn84  1  0.68650249  0.67914540  0.18993364  1
  Zn  Zn85  1  0.96596403  0.96798539  0.75084272  1
  Zn  Zn86  1  0.34931246  0.42981831  0.13028620  1
  Zn  Zn87  1  0.85901864  0.57908014  0.55966822  1
  Zn  Zn88  1  0.85641408  0.08615083  0.55562712  1
  Zn  Zn89  1  0.69446003  0.67469463  0.69204160  1
  Zn  Zn90  1  0.25349013  0.08835170  0.06352445  1
  Zn  Zn91  1  0.36475169  0.10858332  0.49854149  1
  Zn  Zn92  1  0.48500850  0.99901378  0.69368537  1
  Zn  Zn93  1  0.44613863  0.73341105  0.48474151  1
  Zn  Zn94  1  0.03762054  0.32273695  0.58070226  1
  Zn  Zn95  1  0.89579338  0.92234365  0.19169404  1
  Zn  Zn96  1  0.19494332  0.13224529  0.20970050  1
  Zn  Zn97  1  0.92983163  0.44042421  0.69919678  1
  Zn  Zn98  1  0.79938819  0.82329556  0.31861969  1
  Zn  Zn99  1  0.22732515  0.97886451  0.55478954  1
  Zn  Zn100  1  0.35158042  0.17088599  0.30741843  1
  Zn  Zn101  1  0.61421186  -0.00281800  0.35626426  1
  O  O102  1  0.09090432  0.09638310  0.21024518  1
  O  O103  1  0.09916006  0.13104652  0.64523305  1
  O  O104  1  0.09682059  0.60881692  0.10861569  1
  O  O105  1  0.12992089  0.59746464  0.63916365  1
  O  O106  1  0.48917550  0.05132777  -0.02881932  1
  O  O107  1  0.64877201  0.12874131  0.64270822  1
  O  O108  1  0.64334038  0.60411665  0.12271812  1
  O  O109  1  0.63832631  0.62705158  0.60597137  1
  O  O110  1  0.44733335  0.37858992  0.48846164  1
  O  O111  1  0.38188858  0.39503326  0.85788516  1
  O  O112  1  0.31953140  0.77522201  0.41991375  1
  O  O113  1  0.41710750  0.90875682  0.91161141  1
  O  O114  1  0.86083488  0.37261471  0.40570987  1
  O  O115  1  0.86236604  0.38377201  0.87981236  1
  O  O116  1  0.78777618  0.90401864  0.39459480  1
  O  O117  1  0.89604865  0.93368659  0.93147776  1
  O  O118  1  0.21752530  0.01009216  0.34514510  1
  O  O119  1  0.26852627  0.03655674  0.82509709  1
  O  O120  1  0.17972357  0.50239801  0.33947102  1
  O  O121  1  0.29570121  0.56221890  0.91493063  1
  O  O122  1  0.70651396  0.06072709  0.32644858  1
  O  O123  1  0.75137349  -0.00930672  0.89246658  1
  O  O124  1  0.75399287  0.52841925  0.38695561  1
  O  O125  1  0.76135634  0.50612526  0.86427363  1
  O  O126  1  0.25782057  0.48934377  0.09724496  1
  O  O127  1  0.20976999  0.47656627  0.61641338  1
  O  O128  1  0.24378762  1.03545762  0.17653857  1
  O  O129  1  0.21996430  1.03770206  0.65997358  1
  O  O130  1  0.79016811  0.51749307  0.16594011  1
  O  O131  1  0.78594037  0.53464291  0.64951182  1
  O  O132  1  0.71566480  0.95852437  0.12747524  1
  O  O133  1  0.85106963  0.86250386  0.64184032  1
  O  O134  1  0.03826926  0.31439739  0.17140524  1
  O  O135  1  -0.00612151  0.36502636  0.75597493  1
  O  O136  1  -0.02908998  0.80362904  0.28470558  1
  O  O137  1  0.00145486  0.86149181  0.77375244  1
  O  O138  1  0.57556669  0.31799092  0.23094982  1
  O  O139  1  0.49420128  0.37050260  0.76207790  1
  O  O140  1  0.51565870  0.85988762  0.25031126  1
  O  O141  1  0.46237985  0.82388593  0.79645534  1
  O  O142  1  0.51419998  0.09398263  0.13020798  1
  O  O143  1  0.48183048  0.16808862  0.71247301  1
  O  O144  1  0.53788002  0.48953467  0.16876530  1
  O  O145  1  0.53672699  0.67402852  0.81514183  1
  O  O146  1  0.97137298  0.18587009  0.28953713  1
  O  O147  1  0.99205795  0.14955254  0.76380115  1
  O  O148  1  0.97864959  0.62769053  0.21002057  1
  O  O149  1  1.03866761  0.66331509  0.75707170  1
  O  O150  1  0.36904941  0.22636176  0.01876368  1
  O  O151  1  0.48751548  0.43448080  0.49991699  1
  O  O152  1  0.37546921  0.74354205  0.01302949  1
  O  O153  1  0.44894725  0.84430730  0.50125044  1
  O  O154  1  0.81465861  0.28814922  0.06241852  1
  O  O155  1  0.87391200  0.27043053  0.51687081  1
  O  O156  1  0.87746192  0.78044934  -0.02056924  1
  O  O157  1  0.88620995  0.77246858  0.49849260  1
  O  O158  1  0.08752225  0.25642579  0.50158863  1
  O  O159  1  0.19228450  0.32984598  1.03527638  1
  O  O160  1  0.10211670  0.71258601  0.52026125  1
  O  O161  1  0.15933523  0.78780418  1.09164700  1
  O  O162  1  0.57560593  0.32324370  0.40908338  1
  O  O163  1  0.61614091  0.26549665  0.98492350  1
  O  O164  1  0.62418310  0.72650753  0.47499904  1
  O  O165  1  0.62379177  0.71932795  1.00106795  1
  O  O166  1  0.47624074  0.25477202  0.11626769  1
  O  O167  1  0.52336008  0.30372443  0.62234239  1
  O  O168  1  0.48415308  0.76239873  0.08555489  1
  O  O169  1  0.45634760  0.71508715  0.68457916  1
  O  O170  1  1.04310894  0.26841668  0.11777067  1
  O  O171  1  0.98824385  0.24241513  0.64770758  1
  O  O172  1  1.02155471  0.73104192  0.12867002  1
  O  O173  1  0.97478568  0.77060164  0.67915471  1
  O  O174  1  -0.02948699  0.22204322  0.37216469  1
  O  O175  1  -0.01354811  0.25894752  0.87576443  1
  O  O176  1  0.05911734  0.79374904  0.41855387  1
  O  O177  1  0.01995479  0.76074068  0.87802368  1
  O  O178  1  0.52990059  0.16677368  0.27836396  1
  O  O179  1  0.49187561  0.28553752  0.89523674  1
  O  O180  1  0.49573767  0.73492896  0.38083576  1
  O  O181  1  0.59278528  0.83777707  0.81173783  1
  O  O182  1  0.25954516  0.06454513  0.48177758  1
  O  O183  1  0.26176372  0.12046818  0.95080777  1
  O  O184  1  0.20731767  0.60604166  0.41162160  1
  O  O185  1  0.23182656  0.61964143  1.01808438  1
  O  O186  1  0.77024054  0.10866781  0.48284559  1
  O  O187  1  0.67729330  0.12146592  1.00549334  1
  O  O188  1  0.78975315  0.63543441  0.48682911  1
  O  O189  1  0.74827760  0.63245051  1.00825427  1
  O  O190  1  0.23547185  0.35547122  -0.01564266  1
  O  O191  1  0.20271939  0.36795482  0.47109163  1
  O  O192  1  0.18548069  0.89973939  -0.12168209  1
  O  O193  1  0.30725779  0.90544983  0.54858508  1
  O  O194  1  0.74648788  0.45031507  0.16127224  1
  O  O195  1  0.76033873  0.38437773  0.52922038  1
  O  O196  1  0.72227714  0.84572721  0.00881593  1
  O  O197  1  0.73793918  0.81387374  0.52894874  1
  O  O198  1  0.08711852  0.46820896  0.21062029  1
  O  O199  1  0.10511629  0.47826564  0.73884151  1
  O  O200  1  -0.02609548  0.98414298  0.23513272  1
  O  O201  1  0.09708479  0.99617215  0.75828219  1
  O  O202  1  0.70724882  0.43411898  0.22160828  1
  O  O203  1  0.65129644  0.53760646  0.73510825  1
  O  O204  1  0.64080525  0.95063376  0.25712762  1
  O  O205  1  0.69304793  1.07819757  0.62510349  1
  O  O206  1  0.36228111  -0.04047342  0.25724959  1
  O  O207  1  0.38440316  0.05242821  0.70280200  1
  O  O208  1  0.36035554  0.47537532  0.22369397  1
  O  O209  1  0.35231494  0.58449706  0.66311192  1
  O  O210  1  0.81246641  -0.02091954  0.24328951  1
  O  O211  1  0.88654699  0.02649029  0.80046282  1
  O  O212  1  0.92740923  0.42948449  0.22496155  1
  O  O213  1  0.87409368  0.50861086  0.77354056  1
  O  O214  1  0.34478817  0.34436159  0.37798273  1
  O  O215  1  0.10828251  0.39227680  0.86774442  1
  O  O216  1  0.16983352  0.84935562  0.45022355  1
  O  O217  1  0.13679169  0.90243959  0.93036203  1
  O  O218  1  0.59340518  0.46605943  0.31032190  1
  O  O219  1  0.60135304  0.37632866  0.87470337  1
  O  O220  1  0.62989402  0.83147125  0.36099882  1
  O  O221  1  0.66692921  0.84419373  0.82704468  1
  O  O222  1  0.36418666  0.05661036  0.07051430  1
  O  O223  1  0.37370653  0.16889196  0.59143031  1
  O  O224  1  0.39251570  0.61926272  0.07468123  1
  O  O225  1  0.36318529  0.70379515  0.55528373  1
  O  O226  1  0.83836619  0.20821881  0.02938507  1
  O  O227  1  0.88413774  0.11945453  0.66380452  1
  O  O228  1  0.89513438  0.64324458  0.09831146  1
  O  O229  1  0.85971733  0.67032510  0.63415559  1
  O  O230  1  0.25989950  0.18631796  0.12888373  1
  O  O231  1  0.21263152  0.27563778  0.60811025  1
  O  O232  1  0.29390634  0.70712069  0.13925271  1
  O  O233  1  0.25735350  0.71533534  0.67563602  1
  O  O234  1  0.82032755  0.29262665  0.13351118  1
  O  O235  1  0.73443822  0.28039115  0.65922559  1
  O  O236  1  0.74051273  0.74597558  0.10866803  1
  O  O237  1  0.79761676  0.70995322  0.62138592  1
  O  O238  1  0.23118278  0.20947489  0.45077817  1
  O  O239  1  0.28903313  0.24809282  0.86323670  1
  O  O240  1  0.21336142  0.70240929  0.29808707  1
  O  O241  1  0.14838249  0.69979949  0.93723096  1
  O  O242  1  0.79538295  0.19680193  0.34907237  1
  O  O243  1  0.70886744  0.26112791  0.85106224  1
  O  O244  1  0.77933410  0.73532242  0.38576077  1
  O  O245  1  0.74776107  0.72584487  0.89812743  1
  O  O246  1  0.01953319  0.17082028  0.00355239  1
  O  O247  1  -0.02913939  0.13180034  0.53934290  1
  O  O248  1  -0.00446258  0.65955318  0.00685341  1
  O  O249  1  -0.03054807  0.59535322  0.50894063  1
  O  O250  1  0.29563189  -0.07816012  0.00561309  1
  O  O251  1  0.56180443  0.11880297  0.48888394  1
  O  O252  1  0.54381021  0.56789274  0.00723614  1
  O  O253  1  0.50621784  0.63262535  0.51451127  1
  O  O254  1  0.47181059  0.43244506  0.33476472  1
  O  O255  1  0.49296028  0.40147544  0.97630954  1
  O  O256  1  0.31629318  0.82387060  0.36693744  1
  O  O257  1  0.56650677  0.89369778  0.94690956  1
  O  O258  1  0.97547685  0.39022615  0.51937214  1
  O  O259  1  0.98586443  0.31521879  1.03389252  1
  O  O260  1  1.12138317  0.82877148  0.39844952  1
  O  O261  1  0.99117858  0.86521118  1.04744723  1
  O  O262  1  0.52075749  0.48525767  0.34018927  1
  O  O263  1  0.50324146  0.49923899  0.84776694  1
  O  O264  1  0.51423382  1.01508032  0.39378066  1
  O  O265  1  0.50915015  0.98940838  0.80744734  1
  O  O266  1  0.99822041  0.49406039  0.38989416  1
  O  O267  1  0.97559225  0.49088732  0.90458132  1
  O  O268  1  0.95043270  0.91814377  0.40347784  1
  O  O269  1  1.03798874  1.04059460  0.91760862  1
  O  O270  1  -0.00833406  0.03390089  0.08418420  1
  O  O271  1  -0.00171422  0.02715898  0.65473310  1
  O  O272  1  -0.01677204  0.53518520  0.09779887  1
  O  O273  1  -0.00217878  0.50242084  0.63177975  1
  O  O274  1  0.47135897  -0.06237429  0.09587331  1
  O  O275  1  0.55236766  0.00910809  0.60528602  1
  O  O276  1  0.49876276  0.43890066  0.14140484  1
  O  O277  1  0.52795755  0.50717965  0.64245629  1
  O  O278  1  0.37319702  0.31778008  0.31933159  1
  O  O279  1  0.22002150  0.36762408  0.74592028  1
  O  O280  1  0.22387580  0.88902385  0.23709497  1
  O  O281  1  0.29287962  0.91865687  0.73481028  1
  O  O282  1  0.89520426  0.36757174  0.24172610  1
  O  O283  1  0.75635999  0.41027525  0.74513664  1
  O  O284  1  0.73537384  0.83547497  0.22426673  1
  O  O285  1  0.71446714  0.93907556  0.72532041  1
  O  O286  1  0.24059816  0.15627956  0.31200155  1
  O  O287  1  0.28391024  0.15965537  0.72910705  1
  O  O288  1  0.21593436  0.57445812  0.21073322  1
  O  O289  1  0.19072399  0.61768346  0.81503450  1
  O  O290  1  0.74090005  0.10048590  0.17187071  1
  O  O291  1  0.76533302  0.13211414  0.76121311  1
  O  O292  1  0.73857588  0.63125182  0.27831583  1
  O  O293  1  0.75808705  0.62862302  0.77572793  1
  O  O294  1  0.40003422  0.15649945  0.40303030  1
  O  O295  1  0.38505810  0.13679485  0.84838215  1
  O  O296  1  0.31079080  0.59635233  0.31072038  1
  O  O297  1  0.27748620  0.69948567  0.88594572  1
  O  O298  1  0.86742309  0.05500310  0.37313140  1
  O  O299  1  0.86316484  0.12946011  0.88383846  1
  O  O300  1  0.88375472  0.61946050  0.34922268  1
  O  O301  1  0.85928455  0.61208819  0.90150308  1
  O  O302  1  0.19753335  0.35347402  0.21409128  1
  O  O303  1  0.11029544  0.38353675  0.63804794  1
  O  O304  1  0.10031307  0.93768349  0.15511634  1
  O  O305  1  0.16176224  0.74387498  0.53912983  1
  O  O306  1  0.62919909  0.28767771  0.19243175  1
  O  O307  1  0.66169133  0.42448354  0.63042339  1
  O  O308  1  0.62008770  0.84372894  0.13681309  1
  O  O309  1  0.68916996  0.91146962  0.66629983  1
  O  O310  1  0.19785310  0.32003559  0.27748291  1
  O  O311  1  0.09640082  0.27047376  0.75751400  1
  O  O312  1  0.02749267  0.83286381  0.24727716  1
  O  O313  1  0.11421359  0.77017947  0.75281842  1
  O  O314  1  0.61196024  0.21736203  0.15911491  1
  O  O315  1  0.59254162  0.26095031  0.75919310  1
  O  O316  1  0.61159037  0.73569152  0.26162153  1
  O  O317  1  0.61384393  0.74932870  0.69919090  1
  O  O318  1  0.39617700  0.17746294  0.20469274  1
  O  O319  1  0.38799789  0.27125278  0.71817279  1
  O  O320  1  0.43707639  0.67188000  0.18871930  1
  O  O321  1  0.31511290  0.74303770  0.72781776  1
  O  O322  1  0.92175383  0.21215736  0.24549225  1
  O  O323  1  0.87777350  0.24064760  0.77174037  1
  O  O324  1  0.89601627  0.82023312  0.25097037  1
  O  O325  1  0.91789796  0.72887477  0.80318011  1
  O  O326  1  0.30144065  0.50914073  0.48323581  1
  O  O327  1  0.38921140  0.46942868  1.03273931  1
  O  O328  1  0.43137944  1.00884214  0.51797349  1
  O  O329  1  0.23978634  0.93403908  1.04731557  1
  O  O330  1  0.87650780  0.48424842  0.50561673  1
  O  O331  1  0.84831896  0.48232336  0.99484289  1
  O  O332  1  0.86760133  0.98200491  0.52242594  1
  O  O333  1  0.83907754  1.04839998  1.00613191  1
  O  O334  1  0.14298129  0.07411671  0.04072642  1
  O  O335  1  0.12088029  -0.03900962  0.58840247  1
  O  O336  1  0.09993748  0.45636233  0.05275385  1
  O  O337  1  0.09601398  0.49917313  0.51593550  1
  O  O338  1  0.64127092  0.06089964  -0.00168476  1
  O  O339  1  0.63054008  -0.03006543  0.47355297  1
  O  O340  1  0.67445779  0.48447965  0.02024696  1
  O  O341  1  0.63230725  0.52558680  0.51385914  1
  O  O342  1  0.33510573  0.32370280  0.13953590  1
  O  O343  1  0.32278915  0.39320674  0.62404106  1
  O  O344  1  0.37541007  0.80594423  0.15802185  1
  O  O345  1  0.43421948  0.90240566  0.65019106  1
  O  O346  1  0.95174910  0.37033298  0.06427090  1
  O  O347  1  0.85719219  0.38200835  0.63605348  1
  O  O348  1  0.84233340  0.88229242  0.10146447  1
  O  O349  1  0.86314329  0.91192930  0.69030999  1
  O  O350  1  0.11392363  0.10374838  0.41434284  1
  O  O351  1  0.16984461  0.15083383  0.82202111  1
  O  O352  1  0.10495240  0.61689090  0.29550438  1
  O  O353  1  0.14126683  0.55447742  0.92487192  1
  O  O354  1  0.63699760  0.29753830  0.38702162  1
  O  O355  1  0.57612876  0.16404211  0.87423728  1
  O  O356  1  0.60875518  0.62460586  0.38678770  1
  O  O357  1  0.65693965  0.59464056  0.90513229  1
