# generated using pymatgen
data_V51Zn51O256
_symmetry_space_group_name_H-M   'P 1'
_cell_length_a   17.77047873
_cell_length_b   17.55291245
_cell_length_c   17.90813955
_cell_angle_alpha   93.32731108
_cell_angle_beta   89.57462821
_cell_angle_gamma   90.64906009
_symmetry_Int_Tables_number   1
_chemical_formula_structural   V51Zn51O256
_chemical_formula_sum   'V51 Zn51 O256'
_cell_volume   5576.06998904
_cell_formula_units_Z   1
loop_
 _symmetry_equiv_pos_site_id
 _symmetry_equiv_pos_as_xyz
  1  'x, y, z'
loop_
 _atom_site_type_symbol
 _atom_site_label
 _atom_site_symmetry_multiplicity
 _atom_site_fract_x
 _atom_site_fract_y
 _atom_site_fract_z
 _atom_site_occupancy
  V  V0  1  0.58565713  0.69443299  0.42844356  1
  V  V1  1  0.40054022  0.23992313  0.60375046  1
  V  V2  1  0.40182424  0.37564085  -0.05713235  1
  V  V3  1  0.62828494  0.37686576  0.77497710  1
  V  V4  1  0.16555831  0.74911130  0.38709811  1
  V  V5  1  0.79638271  -0.01816293  0.44297914  1
  V  V6  1  0.12053327  0.38221032  0.74868489  1
  V  V7  1  0.74423564  0.75616589  -0.01613349  1
  V  V8  1  0.01230976  0.12934445  0.61490895  1
  V  V9  1  0.34912211  0.69483597  0.09675983  1
  V  V10  1  0.41137106  0.15069993  0.11795563  1
  V  V11  1  -0.00091820  0.64197493  0.10760527  1
  V  V12  1  0.55054587  0.40125617  0.41963323  1
  V  V13  1  0.38965844  0.39147759  0.51555499  1
  V  V14  1  0.27267140  0.87982151  0.09694456  1
  V  V15  1  0.12861507  0.27543770  0.87046935  1
  V  V16  1  0.94433275  0.37687378  -0.00315330  1
  V  V17  1  0.74964449  0.24657263  0.48164734  1
  V  V18  1  0.01404234  0.02735476  -0.01623487  1
  V  V19  1  0.11590515  0.49424727  0.13118126  1
  V  V20  1  -0.03870060  0.76290461  0.25229071  1
  V  V21  1  0.26953150  0.04045168  0.70780915  1
  V  V22  1  0.60782652  0.38247872  0.26226591  1
  V  V23  1  0.50110487  0.85591390  0.88028086  1
  V  V24  1  0.89860183  0.09909203  0.75483992  1
  V  V25  1  0.22166875  0.30360738  0.51006099  1
  V  V26  1  0.12784599  0.88619082  0.70514555  1
  V  V27  1  0.42206942  0.00800629  -0.03008818  1
  V  V28  1  0.85497633  0.80090908  0.13126392  1
  V  V29  1  0.34852501  0.03656317  0.36182210  1
  V  V30  1  0.90961566  0.66029491  0.77624268  1
  V  V31  1  0.25338574  0.90799338  0.58777558  1
  V  V32  1  0.34678533  0.77708799  0.62602446  1
  V  V33  1  0.24133009  0.51545694  0.73387027  1
  V  V34  1  0.72513711  0.87158022  0.63878773  1
  V  V35  1  0.05247937  0.15833012  0.11695686  1
  V  V36  1  0.17865695  0.64601575  0.91258132  1
  V  V37  1  0.18111956  0.84040083  0.23923114  1
  V  V38  1  0.08394740  0.06106610  0.45280533  1
  V  V39  1  0.24109004  0.12189185  0.87703255  1
  V  V40  1  0.85171162  0.35903544  0.58584701  1
  V  V41  1  0.80941365  0.54307319  0.35066517  1
  V  V42  1  0.91590904  0.52220366  0.89224629  1
  V  V43  1  -0.06211617  0.21064751  0.25971412  1
  V  V44  1  0.91936225  0.56930305  0.24140108  1
  V  V45  1  0.68776277  0.60047349  0.07306474  1
  V  V46  1  0.73246135  0.58771587  0.49642461  1
  V  V47  1  0.83367053  0.92619341  -0.01188291  1
  V  V48  1  0.22843459  0.01131157  0.24552788  1
  V  V49  1  0.46936398  0.15423400  0.27572092  1
  V  V50  1  0.87417754  0.84430568  0.52444521  1
  Zn  Zn51  1  0.27099587  0.11138472  0.53520354  1
  Zn  Zn52  1  0.65166980  0.23528935  0.30861259  1
  Zn  Zn53  1  0.55677561  0.68852107  -0.01912705  1
  Zn  Zn54  1  0.06523062  0.05281042  0.25548522  1
  Zn  Zn55  1  0.07624623  0.86665497  0.51733294  1
  Zn  Zn56  1  0.29311195  0.51101722  0.55514116  1
  Zn  Zn57  1  0.88290501  0.66754980  0.97833551  1
  Zn  Zn58  1  0.78578851  0.05412206  0.63518353  1
  Zn  Zn59  1  0.43698732  0.18018425  0.93420478  1
  Zn  Zn60  1  0.90805941  0.67843096  0.42513139  1
  Zn  Zn61  1  0.19115965  0.93485987  0.40988777  1
  Zn  Zn62  1  0.23970571  0.08483009  0.07393017  1
  Zn  Zn63  1  0.10994792  0.65141384  0.24425880  1
  Zn  Zn64  1  0.79271219  0.24213288  0.73153992  1
  Zn  Zn65  1  0.06033541  0.11309664  0.81421616  1
  Zn  Zn66  1  0.39749782  0.70371009  0.90757537  1
  Zn  Zn67  1  0.73700079  0.41089221  0.42904173  1
  Zn  Zn68  1  0.39359200  0.92547305  0.73314738  1
  Zn  Zn69  1  0.57032564  0.49453812  0.94935162  1
  Zn  Zn70  1  0.83029267  0.40817011  0.76209902  1
  Zn  Zn71  1  0.83119845  0.81666985  0.34141454  1
  Zn  Zn72  1  0.61090501  0.54947444  0.33072822  1
  Zn  Zn73  1  0.45071772  0.31300806  0.25696948  1
  Zn  Zn74  1  0.58455679  0.29710375  0.57935990  1
  Zn  Zn75  1  0.29437730  0.68842096  0.27774745  1
  Zn  Zn76  1  0.04518372  0.31549313  0.58496501  1
  Zn  Zn77  1  0.94271307  -0.03580654  0.12363178  1
  Zn  Zn78  1  0.74510538  0.66758546  0.68193275  1
  Zn  Zn79  1  0.40284635  0.99219262  0.16686177  1
  Zn  Zn80  1  0.54845069  0.37833829  0.08980889  1
  Zn  Zn81  1  0.64125761  0.87336815  0.97072489  1
  Zn  Zn82  1  0.93771898  0.92639415  0.68382652  1
  Zn  Zn83  1  0.10527566  0.33233010  0.05018088  1
  Zn  Zn84  1  1.11931136  0.95461479  0.11096611  1
  Zn  Zn85  1  0.97275457  0.38755481  0.17789716  1
  Zn  Zn86  1  0.85045365  0.54761131  0.63147499  1
  Zn  Zn87  1  0.16282227  0.74375643  0.08901689  1
  Zn  Zn88  1  0.90605226  0.13373407  0.43932916  1
  Zn  Zn89  1  0.67923925  0.85538859  0.45786353  1
  Zn  Zn90  1  0.29436994  0.31936884  0.76357139  1
  Zn  Zn91  1  0.82000365  0.81932201  0.82062150  1
  Zn  Zn92  1  0.92239392  0.26102436  0.86114355  1
  Zn  Zn93  1  0.10030792  0.46999745  0.92038784  1
  Zn  Zn94  1  0.26280699  0.52456227  0.00719692  1
  Zn  Zn95  1  0.44994252  0.56473732  0.44492128  1
  Zn  Zn96  1  0.08592929  0.58954738  0.75940765  1
  Zn  Zn97  1  0.22932161  0.71060943  0.74123660  1
  Zn  Zn98  1  0.84930310  0.50796031  0.07576978  1
  Zn  Zn99  1  0.34905852  0.22057519  0.41476208  1
  Zn  Zn100  1  0.17871345  0.21898601  0.67028441  1
  Zn  Zn101  1  0.71140248  0.70849607  0.23865686  1
  O  O102  1  0.14046127  0.12685192  0.10662322  1
  O  O103  1  0.10584348  0.13224394  0.62894187  1
  O  O104  1  0.08383723  0.68663549  0.13778333  1
  O  O105  1  0.11687396  0.65153904  0.57716319  1
  O  O106  1  0.62960047  0.09937851  0.03627794  1
  O  O107  1  0.66631090  0.12888194  0.63559500  1
  O  O108  1  0.67031602  0.64597777  0.15996068  1
  O  O109  1  0.76368591  0.60768086  0.59003689  1
  O  O110  1  0.45078754  0.37841033  0.43460614  1
  O  O111  1  0.35987926  0.36677723  0.85399061  1
  O  O112  1  0.41461261  0.83048066  0.30749904  1
  O  O113  1  0.46921563  0.91342494  0.95789795  1
  O  O114  1  0.97846281  0.35999566  0.40108861  1
  O  O115  1  0.89897780  0.42215899  0.92756596  1
  O  O116  1  0.85079727  0.89120566  0.43058439  1
  O  O117  1  0.84691634  0.89508106  0.89683583  1
  O  O118  1  0.24473946  0.00490717  0.34925043  1
  O  O119  1  0.23861601  0.04186108  0.81826980  1
  O  O120  1  0.33721488  0.54276520  0.33067112  1
  O  O121  1  0.18475907  0.54550190  0.93393995  1
  O  O122  1  0.70795424  -0.04890763  0.41194887  1
  O  O123  1  0.71551986  0.13286870  0.89669224  1
  O  O124  1  0.82078552  0.45019091  0.36795607  1
  O  O125  1  0.66717986  0.61406650  0.81466062  1
  O  O126  1  0.32715115  0.40319363  0.19035969  1
  O  O127  1  0.30142563  0.52481936  0.65819428  1
  O  O128  1  0.23294570  0.98602251  0.13175593  1
  O  O129  1  0.27197352  1.02019944  0.60410297  1
  O  O130  1  0.73963110  0.52050817  0.08095374  1
  O  O131  1  0.83392601  0.43950919  0.64936973  1
  O  O132  1  0.75619566  1.05084674  0.15819983  1
  O  O133  1  0.73467151  0.96665076  0.67062529  1
  O  O134  1  -0.04576369  0.30368293  0.24134644  1
  O  O135  1  0.02788098  0.37732624  0.75586667  1
  O  O136  1  0.04228738  0.80936068  0.25026102  1
  O  O137  1  0.03275242  0.87625154  0.68989662  1
  O  O138  1  0.53163142  0.34634388  0.32597529  1
  O  O139  1  0.57407887  0.30890186  0.81509998  1
  O  O140  1  0.50625803  0.92859750  0.20466816  1
  O  O141  1  0.45327303  0.87513352  0.80087730  1
  O  O142  1  0.46132426  0.08797748  0.18943953  1
  O  O143  1  0.62268860  0.14205780  0.68893595  1
  O  O144  1  0.42558514  0.53143266  0.19605974  1
  O  O145  1  0.50641449  0.70330355  0.73430806  1
  O  O146  1  1.01998662  0.15601649  0.21598557  1
  O  O147  1  0.99547094  0.13021465  0.72891622  1
  O  O148  1  0.98651041  0.65345079  0.23764246  1
  O  O149  1  0.99046540  0.62853832  0.73379749  1
  O  O150  1  0.44725387  0.28896050  -0.08602810  1
  O  O151  1  0.37739147  0.27946674  0.51158947  1
  O  O152  1  0.40262521  0.74586202  0.02101244  1
  O  O153  1  0.25997886  0.65805977  0.51810222  1
  O  O154  1  0.92659790  0.28347992  -0.02629708  1
  O  O155  1  0.82114690  0.18437005  0.49453025  1
  O  O156  1  0.84679028  0.76429846  0.02540900  1
  O  O157  1  0.86234309  0.74933052  0.50252997  1
  O  O158  1  0.12752668  0.32471737  0.50753601  1
  O  O159  1  0.15608826  0.28541538  0.96325498  1
  O  O160  1  0.13444657  0.77768065  0.47483414  1
  O  O161  1  0.12258566  0.84250839  0.91641205  1
  O  O162  1  0.67577030  0.24259883  0.54375146  1
  O  O163  1  0.60122866  0.26875655  1.03693867  1
  O  O164  1  0.65770889  0.65268345  0.48569896  1
  O  O165  1  0.64120489  0.76112191  0.99398614  1
  O  O166  1  0.60246793  0.11696398  0.09794322  1
  O  O167  1  0.49869886  0.23853942  0.60751691  1
  O  O168  1  0.45404672  0.69190274  0.05363102  1
  O  O169  1  0.43201231  0.75479420  0.59814475  1
  O  O170  1  1.05089037  0.25138049  0.09835398  1
  O  O171  1  0.98689191  0.22026769  0.60651708  1
  O  O172  1  0.93536240  0.73885655  0.14386509  1
  O  O173  1  1.06773002  0.69202483  0.60550459  1
  O  O174  1  -0.05975405  0.19126028  0.35149244  1
  O  O175  1  0.03508519  0.25647965  0.85870711  1
  O  O176  1  -0.07146118  0.75310366  0.34565742  1
  O  O177  1  0.05975820  0.82252328  0.89527561  1
  O  O178  1  0.41297478  0.22712310  0.32632889  1
  O  O179  1  0.61438841  0.23422180  0.97586357  1
  O  O180  1  0.50084385  0.66208541  0.46055653  1
  O  O181  1  0.49307583  0.75701509  0.90194822  1
  O  O182  1  0.16747536  0.09823201  0.48262809  1
  O  O183  1  0.23821449  0.10766717  0.96955040  1
  O  O184  1  0.23712768  0.58744379  0.49628974  1
  O  O185  1  0.15413711  0.69639924  0.99160011  1
  O  O186  1  0.62137945  0.08220292  0.48746793  1
  O  O187  1  0.75321732  0.17927302  1.05036095  1
  O  O188  1  0.82153885  0.59624512  0.45050965  1
  O  O189  1  0.74758714  0.65928728  1.01913511  1
  O  O190  1  0.33113657  0.33144592  -0.00636363  1
  O  O191  1  0.28014463  0.39255592  0.53006088  1
  O  O192  1  0.25873597  0.88928499  0.00890545  1
  O  O193  1  0.25597575  0.92531682  0.49561285  1
  O  O194  1  0.74287863  0.34318801  -0.00173238  1
  O  O195  1  0.79211963  0.34553122  0.49844025  1
  O  O196  1  0.74484321  0.86313398  0.00528205  1
  O  O197  1  0.75106755  0.85527320  0.53812941  1
  O  O198  1  0.13883099  0.54751612  0.21069792  1
  O  O199  1  0.12926371  0.48587331  0.73956662  1
  O  O200  1  0.14655329  0.94689747  0.25054050  1
  O  O201  1  0.09514200  0.99930708  0.75982864  1
  O  O202  1  0.62497969  0.47681804  0.24642794  1
  O  O203  1  0.56387820  0.44153551  0.74635375  1
  O  O204  1  0.63841361  0.94149032  0.26440719  1
  O  O205  1  0.53117960  1.06206945  0.77288153  1
  O  O206  1  0.33308735  0.02318650  0.25062244  1
  O  O207  1  0.36299552  0.02945879  0.73043263  1
  O  O208  1  0.36126176  0.39228648  0.24973599  1
  O  O209  1  0.28945768  0.54433430  0.80856299  1
  O  O210  1  0.88637874  0.00152243  0.24450070  1
  O  O211  1  0.89726384  0.00159910  0.76122152  1
  O  O212  1  0.96530905  0.48598692  0.23904523  1
  O  O213  1  0.87174489  0.49872199  0.80935511  1
  O  O214  1  0.13853011  0.41707615  0.32986816  1
  O  O215  1  0.13407813  0.38142908  0.85785012  1
  O  O216  1  0.16705655  0.84281864  0.34464543  1
  O  O217  1  0.11100044  0.94286220  0.80294252  1
  O  O218  1  0.64616631  0.39692190  0.37029441  1
  O  O219  1  0.63081485  0.42769794  0.86572851  1
  O  O220  1  0.59489412  0.79281409  0.43618710  1
  O  O221  1  0.59542691  0.87838619  0.87564722  1
  O  O222  1  0.31592468  0.15395755  0.12155963  1
  O  O223  1  0.36949932  0.14917460  0.58641734  1
  O  O224  1  0.31074476  0.61244335  0.05954632  1
  O  O225  1  0.31307653  0.65985107  0.57084564  1
  O  O226  1  0.87293919  0.15690384  0.18928871  1
  O  O227  1  0.91055629  0.07380956  0.63123046  1
  O  O228  1  0.90762594  0.58690826  0.13898861  1
  O  O229  1  0.83455502  0.61917286  0.72033603  1
  O  O230  1  0.21136477  0.29803551  0.20139719  1
  O  O231  1  0.23344741  0.22861245  0.56988065  1
  O  O232  1  0.27566053  0.76646995  0.09306985  1
  O  O233  1  0.26392595  0.80464154  0.57052951  1
  O  O234  1  0.73380760  0.22006377  0.10482017  1
  O  O235  1  0.82162298  0.28614879  0.63538844  1
  O  O236  1  0.76943117  0.77153357  0.15545148  1
  O  O237  1  0.76121099  0.77520544  0.67954186  1
  O  O238  1  0.24879788  0.27109901  0.42206499  1
  O  O239  1  0.29093333  0.21392647  0.84629464  1
  O  O240  1  0.25699163  0.71416066  0.37703850  1
  O  O241  1  0.24082652  0.71785321  0.86084769  1
  O  O242  1  0.71645970  0.23797600  0.39128297  1
  O  O243  1  0.75211354  0.28770661  0.95432113  1
  O  O244  1  0.74547657  0.75422444  0.32624265  1
  O  O245  1  0.76268993  0.74654697  0.89177357  1
  O  O246  1  -0.00480941  0.10997985  0.04613920  1
  O  O247  1  0.00279694  0.10522462  0.50236868  1
  O  O248  1  -0.01328598  0.66865024  0.02106415  1
  O  O249  1  -0.03545339  0.63945974  0.51716204  1
  O  O250  1  0.44651753  0.19237231  0.04096508  1
  O  O251  1  0.50153010  0.05234217  0.59851256  1
  O  O252  1  0.60532362  0.59050082  0.01381468  1
  O  O253  1  0.55949425  0.56175243  0.62131374  1
  O  O254  1  0.58183837  0.37247438  0.50325569  1
  O  O255  1  0.47717453  0.44067747  0.91317070  1
  O  O256  1  0.47684462  0.80132578  0.30985277  1
  O  O257  1  0.63859030  0.95662785  1.11573658  1
  O  O258  1  0.98432420  0.42826423  0.41824078  1
  O  O259  1  1.04110795  0.40093432  0.99117230  1
  O  O260  1  0.96961449  0.85856413  0.51781516  1
  O  O261  1  0.93726582  0.96386576  1.00579513  1
  O  O262  1  0.54074183  0.50187975  0.40917818  1
  O  O263  1  0.45024113  0.59846722  0.87143715  1
  O  O264  1  0.44269996  1.08105903  0.33264309  1
  O  O265  1  0.47114470  1.07807685  0.92399184  1
  O  O266  1  0.97178846  0.56425596  0.51315998  1
  O  O267  1  1.01152008  0.51967568  0.88505907  1
  O  O268  1  0.93623404  0.99528388  0.29213685  1
  O  O269  1  1.01959126  1.05417691  0.89511779  1
  O  O270  1  0.03274538  0.00195335  0.16155604  1
  O  O271  1  -0.03098471  0.01892438  0.61620357  1
  O  O272  1  0.04402069  0.54718554  0.08850221  1
  O  O273  1  0.11583268  0.49530268  0.54652850  1
  O  O274  1  0.41000240  0.04504742  0.06544577  1
  O  O275  1  0.49179723  0.11510787  0.75575969  1
  O  O276  1  0.46946867  0.53381291  0.14242260  1
  O  O277  1  0.50119916  0.57016237  0.65854196  1
  O  O278  1  0.24694786  0.27185021  0.25208187  1
  O  O279  1  0.24088688  0.41024221  0.74082072  1
  O  O280  1  0.27034284  0.86919554  0.23100745  1
  O  O281  1  0.22430980  0.94227856  0.70277466  1
  O  O282  1  0.67478807  0.31432489  0.23944112  1
  O  O283  1  0.71713287  0.42921074  0.76324564  1
  O  O284  1  0.63917821  0.87225823  0.25050652  1
  O  O285  1  0.73914784  0.82640984  0.74334944  1
  O  O286  1  0.18590054  0.09429546  0.24371628  1
  O  O287  1  0.24148714  0.13293774  0.70499314  1
  O  O288  1  0.28761325  0.56403667  0.28249750  1
  O  O289  1  0.18714122  0.61194232  0.71998498  1
  O  O290  1  0.71748230  0.07962338  0.20921872  1
  O  O291  1  0.81098565  0.13400191  0.71323046  1
  O  O292  1  0.81804009  0.54927791  0.24819361  1
  O  O293  1  0.65599882  0.62399617  0.74620259  1
  O  O294  1  0.32812024  0.11105993  0.43158793  1
  O  O295  1  0.34476596  0.16063623  0.86660641  1
  O  O296  1  0.38428568  0.60025605  0.35687083  1
  O  O297  1  0.29335948  0.67174243  0.90072338  1
  O  O298  1  0.84024065  0.05028566  0.39270915  1
  O  O299  1  0.89484716  0.14861558  0.83925787  1
  O  O300  1  0.90738596  0.59252668  0.34428087  1
  O  O301  1  0.90492072  0.63512437  0.87129401  1
  O  O302  1  0.08076849  0.40027788  0.14578207  1
  O  O303  1  0.12557511  0.32295304  0.65959404  1
  O  O304  1  0.15979341  0.85066540  0.13252917  1
  O  O305  1  0.14823306  0.89408467  0.59987987  1
  O  O306  1  0.53466830  0.36201385  0.18992949  1
  O  O307  1  0.61844734  0.34487979  0.67866699  1
  O  O308  1  0.52396101  0.86229504  0.18507576  1
  O  O309  1  0.63438901  0.85693073  0.63188567  1
  O  O310  1  0.11824965  0.35040660  0.33407488  1
  O  O311  1  0.18211762  0.27859616  0.77726899  1
  O  O312  1  0.19232485  0.73842761  0.23447703  1
  O  O313  1  0.16033038  0.80035266  0.72837031  1
  O  O314  1  0.56357592  0.17474419  0.28960625  1
  O  O315  1  0.70203351  0.29941170  0.77525244  1
  O  O316  1  0.59463388  0.65927286  0.33631662  1
  O  O317  1  0.56059668  0.73751662  0.70917850  1
  O  O318  1  0.44183755  0.22190364  0.19001508  1
  O  O319  1  0.36076661  0.27703707  0.68735707  1
  O  O320  1  0.36020661  0.69087982  0.19235919  1
  O  O321  1  0.32875734  0.74544469  0.71466421  1
  O  O322  1  0.83170591  0.19785311  0.24277010  1
  O  O323  1  0.85381634  0.30897826  0.79549800  1
  O  O324  1  0.88457668  0.83170640  0.23434266  1
  O  O325  1  0.90110874  0.75726924  0.77813203  1
  O  O326  1  0.38489510  0.49602305  0.49590697  1
  O  O327  1  0.35011104  0.46105573  0.96782591  1
  O  O328  1  0.38094463  0.96324428  0.40092435  1
  O  O329  1  0.34097038  0.99764504  0.92924822  1
  O  O330  1  0.94551491  0.52684504  0.57205248  1
  O  O331  1  0.87199562  0.55529481  0.98046979  1
  O  O332  1  0.79396837  1.01984270  0.53219281  1
  O  O333  1  0.78886860  1.00632765  0.98946219  1
  O  O334  1  0.09484718  -0.01578997  0.00823109  1
  O  O335  1  0.09333604  -0.03951296  0.45916546  1
  O  O336  1  0.19233806  0.47698277  0.07360387  1
  O  O337  1  0.11086175  0.49766736  0.47841884  1
  O  O338  1  0.59663736  -0.05806715  0.06027787  1
  O  O339  1  0.54765611  0.00236610  0.60732520  1
  O  O340  1  0.60357997  0.43283681  0.02437830  1
  O  O341  1  0.70700974  0.49522925  0.50129534  1
  O  O342  1  0.45752737  0.37782731  0.02697446  1
  O  O343  1  0.43542844  0.39438919  0.59413114  1
  O  O344  1  0.36569126  0.89913290  0.11621101  1
  O  O345  1  0.35240414  0.88496218  0.64017207  1
  O  O346  1  0.90752468  0.40974209  0.08769758  1
  O  O347  1  0.94543310  0.35773447  0.56609768  1
  O  O348  1  0.85824132  0.89866731  0.10123179  1
  O  O349  1  0.86321743  0.87415666  0.62091343  1
  O  O350  1  0.06856394  0.07428252  0.36037459  1
  O  O351  1  0.14939934  0.16353484  0.85817453  1
  O  O352  1  0.10273897  0.68287123  0.35021424  1
  O  O353  1  0.10349612  0.64927786  0.85650114  1
  O  O354  1  0.56054364  0.11312798  0.47990446  1
  O  O355  1  0.65230788  0.11086399  0.87725464  1
  O  O356  1  0.71532109  0.56316515  0.36778401  1
  O  O357  1  0.51734795  0.59335243  0.90165168  1
