# generated using pymatgen
data_V51Zn51O256
_symmetry_space_group_name_H-M   'P 1'
_cell_length_a   17.68279751
_cell_length_b   17.65863661
_cell_length_c   17.63990260
_cell_angle_alpha   90.64331315
_cell_angle_beta   89.75197670
_cell_angle_gamma   88.83935370
_symmetry_Int_Tables_number   1
_chemical_formula_structural   V51Zn51O256
_chemical_formula_sum   'V51 Zn51 O256'
_cell_volume   5506.59742942
_cell_formula_units_Z   1
loop_
 _symmetry_equiv_pos_site_id
 _symmetry_equiv_pos_as_xyz
  1  'x, y, z'
loop_
 _atom_site_type_symbol
 _atom_site_label
 _atom_site_symmetry_multiplicity
 _atom_site_fract_x
 _atom_site_fract_y
 _atom_site_fract_z
 _atom_site_occupancy
  V  V0  1  0.21227172  0.89988556  0.57379678  1
  V  V1  1  0.59622473  0.87439089  0.26933933  1
  V  V2  1  0.09006291  0.92037527  0.78040689  1
  V  V3  1  0.46171825  0.35774652  0.91037911  1
  V  V4  1  0.18100605  0.11272454  0.00650876  1
  V  V5  1  0.76635283  0.62193623  0.87761730  1
  V  V6  1  0.87627520  0.37539916  0.51827549  1
  V  V7  1  0.74644427  0.26740043  0.42884593  1
  V  V8  1  0.14384716  0.25174070  0.89634888  1
  V  V9  1  0.77577748  0.38592885  0.65864514  1
  V  V10  1  0.64181769  0.17703113  -0.00381654  1
  V  V11  1  0.63711562  0.84840678  0.76533076  1
  V  V12  1  0.38561841  0.19970556  0.15074849  1
  V  V13  1  -0.01591035  0.63107229  0.13667471  1
  V  V14  1  0.12516647  0.36177602  0.23632304  1
  V  V15  1  0.37433506  0.52780785  0.92425753  1
  V  V16  1  -0.03772181  0.15528880  0.59505102  1
  V  V17  1  -0.04212751  0.90400453  0.89514499  1
  V  V18  1  0.59776032  0.28837715  0.84792363  1
  V  V19  1  0.26421985  0.77271641  -0.02769820  1
  V  V20  1  -0.06116451  0.06138218  -0.00690424  1
  V  V21  1  0.23554733  0.26894145  0.50003005  1
  V  V22  1  0.73729104  0.88537456  0.61155171  1
  V  V23  1  0.37162005  0.11219774  0.30069281  1
  V  V24  1  0.28589374  0.24231490  0.02365255  1
  V  V25  1  0.63032728  0.12048728  0.50017532  1
  V  V26  1  0.61293824  0.74373557  0.91669652  1
  V  V27  1  0.46603212  0.25738976  0.31679592  1
  V  V28  1  0.39211753  0.85514094  0.05765292  1
  V  V29  1  0.90532911  0.78532547  0.19209560  1
  V  V30  1  0.76091495  0.18505058  0.83325088  1
  V  V31  1  -0.01083091  0.78229504  0.73384630  1
  V  V32  1  0.10478121  0.48639585  0.11137023  1
  V  V33  1  0.67942542  0.60763712  0.50480963  1
  V  V34  1  0.36555758  -0.00128297  0.89681973  1
  V  V35  1  0.86886235  0.93184211  0.49600900  1
  V  V36  1  0.10050231  0.51474448  0.57333779  1
  V  V37  1  0.88541793  0.61347137  0.74233009  1
  V  V38  1  0.84494451  0.02965538  0.83371840  1
  V  V39  1  0.01724868  0.24345938  0.19653471  1
  V  V40  1  0.40878063  0.18284936  0.69018768  1
  V  V41  1  0.62814221  0.77875341  0.41458551  1
  V  V42  1  0.09403134  0.01245181  0.11123471  1
  V  V43  1  0.12460218  0.72134319  0.39938977  1
  V  V44  1  0.03104446  0.25256064  0.73987682  1
  V  V45  1  0.87234019  0.14876911  0.24793679  1
  V  V46  1  0.26382139  0.40901138  0.13144069  1
  V  V47  1  0.77719736  -0.03761128  0.26349834  1
  V  V48  1  0.31422145  0.47138049  0.76529874  1
  V  V49  1  0.49998133  0.73014175  0.27786999  1
  V  V50  1  0.60552326  0.37425456  0.24514784  1
  Zn  Zn51  1  0.56728014  0.78488091  0.10125079  1
  Zn  Zn52  1  0.02270664  0.06992005  0.29235355  1
  Zn  Zn53  1  0.81669685  0.84801906  0.78340753  1
  Zn  Zn54  1  0.47457310  0.37058320  0.72838205  1
  Zn  Zn55  1  0.02669924  0.81914664  0.54550606  1
  Zn  Zn56  1  0.16523211  0.10023703  0.79994398  1
  Zn  Zn57  1  0.09620590  0.77379374  -0.11522042  1
  Zn  Zn58  1  0.78131211  0.07132799  0.10512417  1
  Zn  Zn59  1  0.23391311  0.57877279  0.02677341  1
  Zn  Zn60  1  0.64253427  0.64170378  0.29719249  1
  Zn  Zn61  1  0.24298041  0.47499892  0.47636276  1
  Zn  Zn62  1  0.56017098  0.27652076  0.48039274  1
  Zn  Zn63  1  0.53861044  0.31246994  0.08629160  1
  Zn  Zn64  1  0.20410756  0.16477298  0.19822587  1
  Zn  Zn65  1  0.80224170  0.82210815  0.35672067  1
  Zn  Zn66  1  0.94734093  0.19065976  0.87552487  1
  Zn  Zn67  1  0.12382514  0.43781765  0.92620398  1
  Zn  Zn68  1  0.83043032  0.68251496  0.05312570  1
  Zn  Zn69  1  0.04027692  0.31382235  0.55303101  1
  Zn  Zn70  1  0.08028366  0.58522177  -0.08344345  1
  Zn  Zn71  1  0.69159924  0.41999647  0.50254438  1
  Zn  Zn72  1  0.40027043  0.88087294  0.66799816  1
  Zn  Zn73  1  0.17862774  0.16806915  0.65158737  1
  Zn  Zn74  1  0.30076137  0.75947103  0.29666716  1
  Zn  Zn75  1  0.52083017  0.64542912  0.41464168  1
  Zn  Zn76  1  0.72805188  0.42583380  0.84218883  1
  Zn  Zn77  1  0.66662730  0.22248114  0.67074217  1
  Zn  Zn78  1  0.70315834  0.11438186  0.34004200  1
  Zn  Zn79  1  0.46096584  0.16570080  0.95774501  1
  Zn  Zn80  1  0.43382394  0.37757007  0.19738314  1
  Zn  Zn81  1  0.42195565  0.17269421  0.48725594  1
  Zn  Zn82  1  0.71942959  0.69732355  0.67660318  1
  Zn  Zn83  1  0.41304379  0.92402605  0.24402460  1
  Zn  Zn84  1  0.68514818  0.95426388  0.43572878  1
  Zn  Zn85  1  0.83010307  0.54529673  0.57050395  1
  Zn  Zn86  1  0.94036018  0.98506127  0.66073063  1
  Zn  Zn87  1  0.94054220  0.76400800  0.39233459  1
  Zn  Zn88  1  0.29668383  0.35866593  0.32192504  1
  Zn  Zn89  1  0.56971020  0.80664976  0.61280647  1
  Zn  Zn90  1  0.89341566  0.12778494  0.43522664  1
  Zn  Zn91  1  0.19959184  0.92835407  0.97864333  1
  Zn  Zn92  1  0.93869672  0.70101993  0.89581806  1
  Zn  Zn93  1  0.71958440  0.77746480  0.19488750  1
  Zn  Zn94  1  0.41498140  0.71617280  0.92749825  1
  Zn  Zn95  1  0.17631705  0.88896599  0.37669611  1
  Zn  Zn96  1  0.93659932  0.98266746  0.17319739  1
  Zn  Zn97  1  0.02225806  0.46087069  0.76379665  1
  Zn  Zn98  1  0.29547500  0.29388717  0.80953854  1
  Zn  Zn99  1  0.77666420  0.10662297  0.64363275  1
  Zn  Zn100  1  0.10219966  0.30405775  0.05941244  1
  Zn  Zn101  1  0.53188864  0.05348943  0.31772612  1
  O  O102  1  0.15412922  0.09508396  0.11802829  1
  O  O103  1  0.13510518  0.12415823  0.56834883  1
  O  O104  1  0.07521106  0.58714561  0.12244772  1
  O  O105  1  0.12348253  0.60805447  0.59318178  1
  O  O106  1  0.57810569  0.12689027  0.17517087  1
  O  O107  1  0.67657490  0.14616519  0.59160850  1
  O  O108  1  0.68352694  0.66939162  0.19242343  1
  O  O109  1  0.66320272  0.64671674  0.59379571  1
  O  O110  1  0.28752834  0.45776618  0.37861392  1
  O  O111  1  0.38030362  0.32636817  0.87187404  1
  O  O112  1  0.32342787  0.87334152  0.31108762  1
  O  O113  1  0.42982909  0.91616612  0.91550309  1
  O  O114  1  0.92181081  0.43177750  0.31133547  1
  O  O115  1  0.89361511  0.42419807  0.91011215  1
  O  O116  1  0.88167816  0.86997999  0.41648718  1
  O  O117  1  0.86387892  0.92365679  0.85013318  1
  O  O118  1  0.26950427  -0.07427195  0.32394517  1
  O  O119  1  0.27171924  -0.01564829  0.90624750  1
  O  O120  1  0.32250741  0.52059715  0.32543174  1
  O  O121  1  0.29969062  0.49063387  0.86636368  1
  O  O122  1  0.73925468  0.00324325  0.34859988  1
  O  O123  1  0.75211873  0.03112711  0.83942374  1
  O  O124  1  0.77830348  0.46916222  0.34079532  1
  O  O125  1  0.74286038  0.52877285  0.87014697  1
  O  O126  1  0.22070787  0.50069438  0.11375664  1
  O  O127  1  0.20194425  0.49554419  0.58255395  1
  O  O128  1  0.14135966  0.93116304  0.10296866  1
  O  O129  1  0.22643869  0.99763801  0.57465890  1
  O  O130  1  0.73024445  0.60804521  0.14949759  1
  O  O131  1  0.75252848  0.46182359  0.59931982  1
  O  O132  1  0.74511465  1.00313765  0.18127871  1
  O  O133  1  0.76723148  0.99442285  0.63094666  1
  O  O134  1  0.02342523  0.33608088  0.23842174  1
  O  O135  1  0.03548928  0.35010621  0.74480856  1
  O  O136  1  0.08393754  0.85815609  0.22806421  1
  O  O137  1  0.01191354  0.93196599  0.72652903  1
  O  O138  1  0.40668986  0.34546897  0.30052041  1
  O  O139  1  0.52989089  0.36840064  0.82686214  1
  O  O140  1  0.49976262  0.85223484  0.27015164  1
  O  O141  1  0.46574245  0.80819349  0.63438530  1
  O  O142  1  0.48258728  0.15761507  0.30193552  1
  O  O143  1  0.45213690  0.11201372  0.75937701  1
  O  O144  1  0.53104403  0.63205964  0.30311482  1
  O  O145  1  0.51813672  0.65275874  0.70865867  1
  O  O146  1  1.04063646  0.15397911  0.22752141  1
  O  O147  1  1.10731119  0.17966113  0.73537602  1
  O  O148  1  0.93855672  0.59366639  0.20742874  1
  O  O149  1  0.96148011  0.68514155  0.75172996  1
  O  O150  1  0.38423071  0.21094505  0.03331354  1
  O  O151  1  0.33138447  0.25104767  0.51401506  1
  O  O152  1  0.37338640  0.75862704  0.02759056  1
  O  O153  1  0.38356123  0.70925192  0.60727080  1
  O  O154  1  0.82923085  0.30916907  0.00733532  1
  O  O155  1  0.83425877  0.22120614  0.43763468  1
  O  O156  1  0.86961707  0.76176503  -0.02509836  1
  O  O157  1  0.95802558  0.75351279  0.49570533  1
  O  O158  1  0.13435341  0.28851062  0.50264910  1
  O  O159  1  0.17318935  0.21700919  1.02800539  1
  O  O160  1  0.11058263  0.74286624  0.49948444  1
  O  O161  1  0.17661216  0.82137968  0.93979160  1
  O  O162  1  0.65820595  0.31709561  0.47769181  1
  O  O163  1  0.62463049  0.26070455  1.04391435  1
  O  O164  1  0.60315866  0.79120253  0.50663912  1
  O  O165  1  0.62881197  0.75223166  1.01246070  1
  O  O166  1  0.45793960  0.26872310  0.15270559  1
  O  O167  1  0.50545063  0.13645215  0.70909249  1
  O  O168  1  0.51709283  0.72690858  0.18178486  1
  O  O169  1  0.34369654  0.69803684  0.66284981  1
  O  O170  1  1.01795259  0.25160080  0.09988777  1
  O  O171  1  1.01445455  0.24253072  0.63198693  1
  O  O172  1  0.98581141  0.73277018  0.16256690  1
  O  O173  1  1.02909583  0.77756452  0.64704735  1
  O  O174  1  0.09734078  0.14772877  0.37336712  1
  O  O175  1  0.05111294  0.24369772  0.86343029  1
  O  O176  1  0.03586941  0.67946142  0.39603392  1
  O  O177  1  -0.03028521  0.80891082  0.85575922  1
  O  O178  1  0.46660788  0.26188515  0.41704914  1
  O  O179  1  0.51920768  0.25184311  0.90205298  1
  O  O180  1  0.52231457  0.75609360  0.38678813  1
  O  O181  1  0.51949395  0.72883973  0.90188783  1
  O  O182  1  0.21556675  0.18123842  0.46693791  1
  O  O183  1  0.27323131  0.10578578  1.01119083  1
  O  O184  1  0.30943997  0.57113532  0.49788233  1
  O  O185  1  0.23384441  0.68714582  1.00815926  1
  O  O186  1  0.70144210  0.17032630  0.44540302  1
  O  O187  1  0.70823094  0.12716117  1.04601575  1
  O  O188  1  0.77478696  0.60135301  0.49454092  1
  O  O189  1  0.77088112  0.63769315  0.97408134  1
  O  O190  1  0.28322781  0.33923911  0.05218843  1
  O  O191  1  0.24885609  0.37339484  0.51131400  1
  O  O192  1  0.28481904  0.86471128  0.02167612  1
  O  O193  1  0.22983365  0.91134335  0.47193164  1
  O  O194  1  0.80546068  0.46288776  0.03788123  1
  O  O195  1  0.79102743  0.36330647  0.46523065  1
  O  O196  1  0.81005558  0.79622720  -0.06278603  1
  O  O197  1  0.76347975  0.90453032  0.50720891  1
  O  O198  1  0.09406252  0.46403365  0.20889258  1
  O  O199  1  0.07586262  0.50080812  0.66796607  1
  O  O200  1  0.04554360  1.00436118  0.20123937  1
  O  O201  1  0.15209199  0.99478752  0.77524081  1
  O  O202  1  0.61532717  0.47619543  0.28185633  1
  O  O203  1  0.55087300  0.42448858  0.66235957  1
  O  O204  1  0.59050265  0.97030705  0.26216387  1
  O  O205  1  0.56608666  0.90582238  0.74752700  1
  O  O206  1  0.42675470  0.02129634  0.29042102  1
  O  O207  1  0.37964513  -0.01636502  0.78861993  1
  O  O208  1  0.39114551  0.53209769  0.33230700  1
  O  O209  1  0.40881609  0.45781113  0.75078821  1
  O  O210  1  0.87192515  -0.03079817  0.26859368  1
  O  O211  1  0.87188319  0.03818570  0.74205945  1
  O  O212  1  0.76380847  0.52358456  0.29707635  1
  O  O213  1  0.92896873  0.52605610  0.75600485  1
  O  O214  1  0.13995750  0.37569191  0.32677303  1
  O  O215  1  0.12900051  0.33635788  0.95506950  1
  O  O216  1  0.09027864  0.82303639  0.39779318  1
  O  O217  1  0.05751149  0.92922169  0.87568262  1
  O  O218  1  0.62063559  0.42589576  0.34104227  1
  O  O219  1  0.66486201  0.35139048  0.88118291  1
  O  O220  1  0.62420091  0.87936979  0.37672254  1
  O  O221  1  0.63868773  0.82840352  0.86618469  1
  O  O222  1  0.41604347  0.11171719  0.15586089  1
  O  O223  1  0.39861139  0.15401743  0.59900591  1
  O  O224  1  0.23479523  0.61938228  0.21577930  1
  O  O225  1  0.44168634  0.55143068  0.60297297  1
  O  O226  1  0.88156369  0.08791996  0.16798391  1
  O  O227  1  0.86580162  0.15527410  0.60786154  1
  O  O228  1  0.92628087  0.62708983  0.05795072  1
  O  O229  1  0.87290458  0.60985933  0.64535965  1
  O  O230  1  0.28372145  0.21073303  0.13367426  1
  O  O231  1  0.22662328  0.25520810  0.60115967  1
  O  O232  1  0.20556476  0.75245775  0.15397283  1
  O  O233  1  0.24686584  0.80691185  0.55706632  1
  O  O234  1  0.63459767  0.15974249  0.19747519  1
  O  O235  1  0.70814914  0.31989631  0.64581997  1
  O  O236  1  0.82107169  0.74935950  0.14629573  1
  O  O237  1  0.76165663  0.79222805  0.62134022  1
  O  O238  1  0.25237693  0.29561767  0.40310589  1
  O  O239  1  0.27309039  0.24553028  0.92825806  1
  O  O240  1  0.21606902  0.77339110  0.37504162  1
  O  O241  1  0.31496647  0.75893885  0.89099548  1
  O  O242  1  0.73003692  0.28077203  0.33942292  1
  O  O243  1  0.79195189  0.27100099  0.83227152  1
  O  O244  1  0.72684193  0.76770054  0.40817119  1
  O  O245  1  0.80297261  0.76618597  0.86489091  1
  O  O246  1  -0.04153626  0.15449277  -0.02150714  1
  O  O247  1  -0.02129343  0.15305433  0.49993686  1
  O  O248  1  0.04527048  0.68432552  -0.08676273  1
  O  O249  1  -0.09383700  0.57996992  0.36442576  1
  O  O250  1  0.55928866  0.12829446  -0.00538797  1
  O  O251  1  0.54027048  0.16668665  0.51055600  1
  O  O252  1  0.58710435  0.58410514  0.04239991  1
  O  O253  1  0.46349642  0.63026892  0.50590659  1
  O  O254  1  0.52204863  0.33214158  0.57816855  1
  O  O255  1  0.47241529  0.34670186  1.00541545  1
  O  O256  1  0.47252485  1.00573881  0.58459917  1
  O  O257  1  0.48859055  0.84619862  1.05300130  1
  O  O258  1  0.95653155  0.32942630  0.48671368  1
  O  O259  1  0.94228883  0.37339245  0.90892213  1
  O  O260  1  0.95118805  0.90813741  0.54905365  1
  O  O261  1  0.94828975  0.89287942  0.98543027  1
  O  O262  1  0.42861676  0.44419387  0.46278088  1
  O  O263  1  0.45064278  0.46116242  0.91770942  1
  O  O264  1  0.42727744  0.83880863  0.46646862  1
  O  O265  1  0.36484437  0.91092438  0.77153318  1
  O  O266  1  0.91381747  0.45714431  0.24798603  1
  O  O267  1  1.07848197  0.49733269  0.84913856  1
  O  O268  1  1.04760763  0.99353398  0.37656151  1
  O  O269  1  0.94315338  1.02303120  0.89838654  1
  O  O270  1  -0.00098693  0.01903666  0.06357930  1
  O  O271  1  -0.00256313  0.07274217  0.63220253  1
  O  O272  1  0.03604675  0.44643516  0.06229673  1
  O  O273  1  0.01832894  0.54782630  0.53439133  1
  O  O274  1  0.55518098  -0.00003303  0.09147394  1
  O  O275  1  0.43673747  -0.00768844  0.64397667  1
  O  O276  1  0.57362879  0.54195753  0.09542652  1
  O  O277  1  0.48978724  0.57095342  0.55440341  1
  O  O278  1  0.24381985  0.37343703  0.22440261  1
  O  O279  1  0.27338533  0.38860385  0.74520674  1
  O  O280  1  0.24753426  0.79217481  0.19437307  1
  O  O281  1  0.16329940  0.88895185  0.66004241  1
  O  O282  1  0.68466759  0.35187422  0.20363993  1
  O  O283  1  0.78398834  0.41578617  0.75064251  1
  O  O284  1  0.75469985  0.86281734  0.26507133  1
  O  O285  1  0.72659413  0.88661707  0.73390555  1
  O  O286  1  0.28199977  0.10143441  0.26395831  1
  O  O287  1  0.25842689  0.13376621  0.72457335  1
  O  O288  1  0.28190614  0.64647638  0.26092184  1
  O  O289  1  0.30480048  0.54917835  0.68838686  1
  O  O290  1  0.77814210  0.15098896  0.27061000  1
  O  O291  1  0.74076164  0.16123218  0.73825359  1
  O  O292  1  0.73705677  0.58951545  0.33307039  1
  O  O293  1  0.78088839  0.64567586  0.75653901  1
  O  O294  1  0.36842788  0.12581321  0.39754998  1
  O  O295  1  0.39932190  0.08811578  0.90901219  1
  O  O296  1  0.33261416  0.61881891  0.45182049  1
  O  O297  1  0.40266423  0.61246451  0.89138833  1
  O  O298  1  0.92316936  0.11199806  0.32634060  1
  O  O299  1  0.84611853  0.13691324  0.86710103  1
  O  O300  1  0.87833735  0.63936036  0.39019036  1
  O  O301  1  0.86952935  0.62366248  0.85996675  1
  O  O302  1  0.15478706  0.37903114  0.11738646  1
  O  O303  1  0.07366725  0.41486751  0.57514222  1
  O  O304  1  0.14302174  0.88689362  0.25245355  1
  O  O305  1  0.11279044  0.89442325  0.54714284  1
  O  O306  1  0.54011666  0.39366296  0.16919684  1
  O  O307  1  0.55878391  0.39798142  0.59162601  1
  O  O308  1  0.63066023  0.84477106  0.17477061  1
  O  O309  1  0.64324895  0.89307362  0.60526433  1
  O  O310  1  0.13544644  0.25695924  0.21157634  1
  O  O311  1  0.18519852  0.28442963  0.81759300  1
  O  O312  1  0.11875597  0.70996545  0.30269134  1
  O  O313  1  0.09356770  0.81517990  0.77833472  1
  O  O314  1  0.55522025  0.29137825  0.28899524  1
  O  O315  1  0.60676095  0.25561678  0.75775318  1
  O  O316  1  0.62194745  0.76067180  0.29458844  1
  O  O317  1  0.62608128  0.76586818  0.70798763  1
  O  O318  1  0.36967529  0.21508221  0.26010914  1
  O  O319  1  0.31245626  0.19201143  0.74223259  1
  O  O320  1  0.40373184  0.72955410  0.29275557  1
  O  O321  1  0.46236427  0.62406916  0.73633177  1
  O  O322  1  0.91188921  0.23564006  0.22063085  1
  O  O323  1  0.94636066  0.21817439  0.76864365  1
  O  O324  1  0.89828188  0.77533917  0.29270120  1
  O  O325  1  0.90270274  0.82431383  0.71791950  1
  O  O326  1  0.40491139  0.43628060  0.52789024  1
  O  O327  1  0.33835687  0.53969379  1.01251633  1
  O  O328  1  0.42685044  0.90872199  0.46838762  1
  O  O329  1  0.40550369  0.94557297  0.98851767  1
  O  O330  1  0.89185143  0.47000927  0.51571768  1
  O  O331  1  0.84648150  0.45913167  1.09357302  1
  O  O332  1  0.87165532  1.02268248  0.46654629  1
  O  O333  1  0.84815471  1.04777884  1.01969966  1
  O  O334  1  0.13593815  0.02404313  -0.00489361  1
  O  O335  1  0.12114179  -0.01133665  0.37923740  1
  O  O336  1  0.14308192  0.52787626  -0.00910082  1
  O  O337  1  0.13083895  0.50003197  0.47181753  1
  O  O338  1  0.61846978  -0.02232429  0.07299453  1
  O  O339  1  0.63716226  0.02461074  0.50771810  1
  O  O340  1  0.70707534  0.54207042  0.15707384  1
  O  O341  1  0.64299781  0.51717263  0.49836571  1
  O  O342  1  0.35547568  0.43239114  0.14762758  1
  O  O343  1  0.42710838  0.27655412  0.70199749  1
  O  O344  1  0.37561052  0.88246928  0.15025990  1
  O  O345  1  0.30143954  0.90100433  0.62412725  1
  O  O346  1  0.84081508  0.30000361  0.07512218  1
  O  O347  1  0.86509893  0.35170073  0.61799549  1
  O  O348  1  0.92125933  0.87333576  0.16108652  1
  O  O349  1  0.83928989  0.95461502  0.61377942  1
  O  O350  1  0.15961737  0.13761424  0.34106613  1
  O  O351  1  0.16139902  0.14428549  0.90290839  1
  O  O352  1  0.18360903  0.64870714  0.42182976  1
  O  O353  1  0.24774009  0.55937363  0.73800717  1
  O  O354  1  0.60562271  0.09417991  0.38273344  1
  O  O355  1  0.67257340  0.19517103  0.89409954  1
  O  O356  1  0.63248445  0.65922072  0.42673785  1
  O  O357  1  0.67055504  0.67351992  0.87154227  1
