# generated using pymatgen
data_V51Zn51O256
_symmetry_space_group_name_H-M   'P 1'
_cell_length_a   17.16589674
_cell_length_b   18.07390977
_cell_length_c   17.40455241
_cell_angle_alpha   89.57883972
_cell_angle_beta   89.08782899
_cell_angle_gamma   90.11322652
_symmetry_Int_Tables_number   1
_chemical_formula_structural   V51Zn51O256
_chemical_formula_sum   'V51 Zn51 O256'
_cell_volume   5399.00512561
_cell_formula_units_Z   1
loop_
 _symmetry_equiv_pos_site_id
 _symmetry_equiv_pos_as_xyz
  1  'x, y, z'
loop_
 _atom_site_type_symbol
 _atom_site_label
 _atom_site_symmetry_multiplicity
 _atom_site_fract_x
 _atom_site_fract_y
 _atom_site_fract_z
 _atom_site_occupancy
  V  V0  1  0.33996131  0.53414664  0.33492198  1
  V  V1  1  0.70364113  0.03000809  0.27853706  1
  V  V2  1  0.07021227  0.16817998  0.48612395  1
  V  V3  1  0.76790673  0.77468771  0.44748713  1
  V  V4  1  0.60043310  0.03305829  0.13803871  1
  V  V5  1  -0.00666590  0.50091509  0.47529945  1
  V  V6  1  0.34969288  0.21916151  0.08607881  1
  V  V7  1  0.74100343  0.40344115  0.14355463  1
  V  V8  1  0.02557161  0.67407097  0.57338950  1
  V  V9  1  0.08687250  0.25112134  0.85899608  1
  V  V10  1  0.85085147  0.76082440  0.62848043  1
  V  V11  1  0.19969820  0.87019043  0.23788098  1
  V  V12  1  0.22774232  0.74628056  -0.01284892  1
  V  V13  1  -0.07339565  0.25731899  0.74475872  1
  V  V14  1  0.53074941  -0.01642899  -0.00800776  1
  V  V15  1  0.04932855  0.09465113  0.13866358  1
  V  V16  1  0.47049848  0.49485231  0.01776963  1
  V  V17  1  0.74322085  0.63727322  0.89904656  1
  V  V18  1  0.80758437  0.10709791  0.89758505  1
  V  V19  1  0.42686184  -0.04618132  0.86261980  1
  V  V20  1  0.11022301  0.47643616  0.13540530  1
  V  V21  1  0.11727738  0.51055015  0.61179299  1
  V  V22  1  0.22457211  0.50497432  0.75327174  1
  V  V23  1  0.26783046  -0.01260314  0.16611999  1
  V  V24  1  0.29521725  -0.01012050  0.77534636  1
  V  V25  1  -0.02357171  0.70460672  0.77526353  1
  V  V26  1  0.57306506  0.25344344  0.75060831  1
  V  V27  1  0.90577815  0.19096471  0.12206436  1
  V  V28  1  0.77353734  -0.01705062  0.76413573  1
  V  V29  1  -0.04143105  0.38246113  0.89085263  1
  V  V30  1  0.04752761  -0.01515501  0.01566664  1
  V  V31  1  0.34776769  0.36515901  -0.03101216  1
  V  V32  1  0.35266574  0.24237580  0.64579769  1
  V  V33  1  0.45724700  0.34106265  0.35327488  1
  V  V34  1  0.14116373  -0.00160432  0.69394232  1
  V  V35  1  0.86402670  0.92833088  0.52995449  1
  V  V36  1  0.41975621  0.36534956  0.54654753  1
  V  V37  1  0.89326006  0.90604985  0.06591024  1
  V  V38  1  0.73562397  0.48553445  0.65605141  1
  V  V39  1  0.36717090  0.50845324  0.86555202  1
  V  V40  1  0.46093141  0.83598931  0.00906921  1
  V  V41  1  0.19223349  0.60836210  0.88604249  1
  V  V42  1  0.77725554  0.26471181  0.48294513  1
  V  V43  1  0.53516259  0.32745376  0.91836817  1
  V  V44  1  0.08788704  0.39153983  0.74883330  1
  V  V45  1  0.92230286  -0.03743733  0.88722877  1
  V  V46  1  0.12163462  0.32456777  0.23764605  1
  V  V47  1  -0.01569004  0.50005592  0.01883463  1
  V  V48  1  0.36504924  0.01413187  0.45252470  1
  V  V49  1  0.61729278  -0.01188969  0.63269728  1
  V  V50  1  0.23611498  0.35129620  0.10562286  1
  Zn  Zn51  1  -0.00695553  0.15880273  0.32250033  1
  Zn  Zn52  1  -0.00648931  0.09396063  0.79156253  1
  Zn  Zn53  1  0.37690023  0.22011211  0.43693160  1
  Zn  Zn54  1  0.14101882  0.65971624  0.71846626  1
  Zn  Zn55  1  0.70294323  0.63792435  0.69003194  1
  Zn  Zn56  1  0.94874241  0.98299687  0.67903163  1
  Zn  Zn57  1  0.66509327  0.45165281  0.95840266  1
  Zn  Zn58  1  0.39092564  0.71951336  0.37043079  1
  Zn  Zn59  1  0.65742848  0.54671115  0.18724584  1
  Zn  Zn60  1  0.41519052  0.34712782  0.76617584  1
  Zn  Zn61  1  0.39416668  0.66528368  0.96562340  1
  Zn  Zn62  1  0.87684584  0.56634621  0.58742846  1
  Zn  Zn63  1  0.25660968  0.31388035  0.79561030  1
  Zn  Zn64  1  0.02072362  0.53590569  0.81749526  1
  Zn  Zn65  1  0.97459467  0.16210156  0.96481017  1
  Zn  Zn66  1  0.68038766  0.94687222  0.46489548  1
  Zn  Zn67  1  0.26151378  0.51235944  0.02479855  1
  Zn  Zn68  1  0.94120339  0.40511198  0.20662847  1
  Zn  Zn69  1  0.53822300  -0.01951058  0.33172420  1
  Zn  Zn70  1  0.77792950  0.06856826  0.09003397  1
  Zn  Zn71  1  0.58551621  0.60938733  1.02024977  1
  Zn  Zn72  1  0.75924124  0.09011254  0.56603647  1
  Zn  Zn73  1  0.51326079  0.16695453  1.03287881  1
  Zn  Zn74  1  0.47126838  0.89497874  0.17754910  1
  Zn  Zn75  1  0.05028124  0.30440295  0.04718870  1
  Zn  Zn76  1  0.73494629  0.95648339  -0.03094852  1
  Zn  Zn77  1  0.36727846  0.89214634  0.32423591  1
  Zn  Zn78  1  0.55913142  0.78836552  0.47128975  1
  Zn  Zn79  1  0.04985944  0.87054626  0.58740061  1
  Zn  Zn80  1  0.10755593  0.62863467  0.04942958  1
  Zn  Zn81  1  0.31767970  0.28284161  0.27057144  1
  Zn  Zn82  1  0.74755764  0.18549092  0.74962166  1
  Zn  Zn83  1  0.84321587  0.80823109  0.82014781  1
  Zn  Zn84  1  0.83360719  0.92028195  0.35884234  1
  Zn  Zn85  1  0.45991363  0.09453141  0.71397463  1
  Zn  Zn86  1  0.25821643  -0.05510043  -0.02210692  1
  Zn  Zn87  1  0.01495555  0.34314871  0.57690092  1
  Zn  Zn88  1  0.89498138  0.66043192  0.45457192  1
  Zn  Zn89  1  0.26775764  0.44364923  0.48762031  1
  Zn  Zn90  1  0.62356636  0.34561981  0.57289711  1
  Zn  Zn91  1  0.90080786  1.02957850  0.22491516  1
  Zn  Zn92  1  0.87044919  0.26620723  0.29805811  1
  Zn  Zn93  1  0.53117333  0.49122642  0.32236878  1
  Zn  Zn94  1  0.06968877  0.80948273  0.08053017  1
  Zn  Zn95  1  0.89373334  0.41192400  0.70661678  1
  Zn  Zn96  1  0.15019986  0.42835535  0.93199823  1
  Zn  Zn97  1  0.38328110  0.42724789  0.18291332  1
  Zn  Zn98  1  0.14836170  0.46094066  0.34577089  1
  Zn  Zn99  1  0.22350193  0.16144919  0.19851739  1
  Zn  Zn100  1  0.20296727  0.29350195  0.41226101  1
  Zn  Zn101  1  0.79241408  0.55694865  0.06364849  1
  O  O102  1  0.14568711  0.10576882  0.14311364  1
  O  O103  1  0.04162926  0.16141856  0.58169736  1
  O  O104  1  0.11331938  0.56952176  0.14390197  1
  O  O105  1  0.11027376  0.62458700  0.61802920  1
  O  O106  1  0.58453988  0.12090001  0.11095222  1
  O  O107  1  0.66681580  0.02387342  0.55035602  1
  O  O108  1  0.67989873  0.58428013  0.08594853  1
  O  O109  1  0.52680826  0.62717727  0.54060485  1
  O  O110  1  0.40104028  0.36631166  0.43299092  1
  O  O111  1  0.35085405  0.38803937  0.86539267  1
  O  O112  1  0.36417687  0.91178938  0.44976146  1
  O  O113  1  0.43713069  0.87723518  0.81705971  1
  O  O114  1  0.87344199  0.37118747  0.29171395  1
  O  O115  1  0.86513464  0.38982411  0.87834267  1
  O  O116  1  0.90866513  0.91884776  0.44057322  1
  O  O117  1  0.91107445  0.86976543  0.88500860  1
  O  O118  1  0.26707965  0.02040451  0.47635101  1
  O  O119  1  0.31113761  -0.03694100  0.87788940  1
  O  O120  1  0.25669739  0.48647936  0.38236323  1
  O  O121  1  0.21533440  0.50574512  0.87302061  1
  O  O122  1  0.65314308  -0.01921303  0.36153878  1
  O  O123  1  0.81475392  -0.01457539  0.87319475  1
  O  O124  1  0.78496538  0.55829668  0.32514413  1
  O  O125  1  0.70363068  0.54487568  0.91538600  1
  O  O126  1  0.21780590  0.46043490  0.10997433  1
  O  O127  1  0.22144076  0.52009527  0.65424493  1
  O  O128  1  0.29568748  0.98600170  0.07211277  1
  O  O129  1  0.22050966  1.06020401  0.65792737  1
  O  O130  1  0.76953241  0.50583643  0.16548025  1
  O  O131  1  0.76625811  0.57852762  0.61701224  1
  O  O132  1  0.70718148  1.02276602  0.16330111  1
  O  O133  1  0.83651579  1.00912925  0.69429527  1
  O  O134  1  0.02079558  0.32990875  0.22885239  1
  O  O135  1  -0.01447036  0.42440339  0.77287252  1
  O  O136  1  0.00115093  0.94467925  0.30478503  1
  O  O137  1  0.10928359  0.85825039  0.84832710  1
  O  O138  1  0.40366800  0.35504645  0.26533699  1
  O  O139  1  0.51498171  0.32264108  0.81380972  1
  O  O140  1  0.60715854  0.84109250  0.19864709  1
  O  O141  1  0.64287257  0.87784249  0.85175198  1
  O  O142  1  0.61900280  0.23009239  0.20520901  1
  O  O143  1  0.52604424  0.17059402  0.75501298  1
  O  O144  1  0.45233616  0.65449067  0.18426736  1
  O  O145  1  0.55361598  0.67771224  0.73703242  1
  O  O146  1  1.00161012  0.09089229  0.23753054  1
  O  O147  1  0.94481736  0.16818074  0.72217591  1
  O  O148  1  0.95209641  0.57509456  0.24703087  1
  O  O149  1  0.96725036  0.60973861  0.76046928  1
  O  O150  1  0.35540681  0.27319158  -0.02633470  1
  O  O151  1  0.38314550  0.26751957  0.53759280  1
  O  O152  1  0.45247259  0.75638555  -0.04293917  1
  O  O153  1  0.36930567  0.67240047  0.69433036  1
  O  O154  1  0.89053091  0.21266888  0.02836991  1
  O  O155  1  0.86118823  0.22706888  0.52542115  1
  O  O156  1  0.89548114  0.78947921  0.08437474  1
  O  O157  1  0.84894417  0.75291694  0.52205542  1
  O  O158  1  0.03912840  0.26449564  0.49719881  1
  O  O159  1  0.06051950  0.23804209  0.95884296  1
  O  O160  1  0.12176761  0.86135626  0.47434348  1
  O  O161  1  0.13664471  0.73270989  1.04281860  1
  O  O162  1  0.67437764  0.29189336  0.47233580  1
  O  O163  1  0.72936348  0.20277531  1.08021695  1
  O  O164  1  0.67028011  0.76448328  0.46734199  1
  O  O165  1  0.69157270  0.86700612  0.91178134  1
  O  O166  1  0.44898303  0.23227408  0.09189818  1
  O  O167  1  0.58492547  0.28508543  0.65812770  1
  O  O168  1  0.57726939  0.70444700  0.09365254  1
  O  O169  1  0.48521236  0.75675925  0.56577616  1
  O  O170  1  1.00860222  0.19625865  0.12786642  1
  O  O171  1  0.94340444  0.31802514  0.66180004  1
  O  O172  1  0.95727235  0.75129881  0.09482525  1
  O  O173  1  1.04640230  0.76506102  0.58704924  1
  O  O174  1  -0.02562242  0.26310014  0.34110223  1
  O  O175  1  -0.02969648  0.28314295  0.83867829  1
  O  O176  1  0.07358323  0.74379529  0.33311818  1
  O  O177  1  -0.03960499  0.72215753  0.86726859  1
  O  O178  1  0.46896415  0.24744781  0.37057336  1
  O  O179  1  0.54186919  0.24149620  0.95571238  1
  O  O180  1  0.47891942  0.68454701  0.24105540  1
  O  O181  1  0.50042811  0.72461753  0.74946634  1
  O  O182  1  0.16421384  0.21071030  0.48742322  1
  O  O183  1  0.20367433  0.12238319  0.95667523  1
  O  O184  1  0.32389426  0.70614974  0.52595485  1
  O  O185  1  0.20446224  0.59698358  0.99085952  1
  O  O186  1  0.75288079  0.16692054  0.48084400  1
  O  O187  1  0.76287047  0.06496222  0.98382109  1
  O  O188  1  0.79712457  0.68873106  0.41039445  1
  O  O189  1  0.78832655  0.64350301  0.99258508  1
  O  O190  1  0.24429807  0.38342891  -0.01657594  1
  O  O191  1  0.20538132  0.35561415  0.49638700  1
  O  O192  1  0.23976807  0.83865392  -0.02082574  1
  O  O193  1  0.18099830  0.82241093  0.47772723  1
  O  O194  1  0.73685127  0.43550943  0.04158176  1
  O  O195  1  0.82761078  0.34727115  0.46730401  1
  O  O196  1  0.80001802  0.89116570  0.03399303  1
  O  O197  1  0.76904246  0.88629178  0.49902444  1
  O  O198  1  0.11810288  0.44782645  0.23270721  1
  O  O199  1  0.10901265  0.50770288  0.74435302  1
  O  O200  1  0.17138470  0.95416446  0.18550091  1
  O  O201  1  0.18389155  0.98516083  0.78400247  1
  O  O202  1  0.58557310  0.55797213  0.26268077  1
  O  O203  1  0.51475547  0.51779561  0.64046217  1
  O  O204  1  0.58851209  1.03026708  0.24060110  1
  O  O205  1  0.67796268  0.98343590  0.71463836  1
  O  O206  1  0.34148497  0.00035299  0.34826109  1
  O  O207  1  0.40308866  0.02579749  0.78687994  1
  O  O208  1  0.33981955  0.51267175  0.23825043  1
  O  O209  1  0.32845817  0.49780238  0.76688390  1
  O  O210  1  0.80642660  -0.00149763  0.29079135  1
  O  O211  1  0.94933416  -0.01193943  0.79197630  1
  O  O212  1  0.94239004  0.51292960  0.27630379  1
  O  O213  1  0.85128240  0.46686263  0.62232981  1
  O  O214  1  0.14346036  0.34890420  0.33681157  1
  O  O215  1  0.08485873  0.37141237  0.86379758  1
  O  O216  1  0.17472871  0.87907783  0.32726308  1
  O  O217  1  0.07936830  0.81675566  0.89578831  1
  O  O218  1  0.54499752  0.38895142  0.34740077  1
  O  O219  1  0.62618912  0.36307830  0.92083890  1
  O  O220  1  0.72384880  0.75819918  0.24574931  1
  O  O221  1  0.60832980  0.82077507  0.82723200  1
  O  O222  1  0.33682418  0.13592177  0.05370372  1
  O  O223  1  0.39896519  0.15755702  0.64860471  1
  O  O224  1  0.30065875  0.67745496  0.18650630  1
  O  O225  1  0.40284403  0.62165284  0.66144526  1
  O  O226  1  0.86982133  0.09933225  0.14076559  1
  O  O227  1  0.73473004  0.14765735  0.64986464  1
  O  O228  1  0.86148758  0.62954824  0.13312731  1
  O  O229  1  0.92770824  0.66566468  0.61317713  1
  O  O230  1  0.23924037  0.26136908  0.07356746  1
  O  O231  1  0.26024332  0.23016560  0.62868827  1
  O  O232  1  0.30777210  0.70870123  0.02775847  1
  O  O233  1  0.26964010  0.71965723  0.57044727  1
  O  O234  1  0.72335948  0.31938965  0.10550885  1
  O  O235  1  0.74171235  0.29103477  0.57796487  1
  O  O236  1  0.81086010  0.67216076  0.16017985  1
  O  O237  1  0.76274596  0.73116673  0.65863235  1
  O  O238  1  0.28898651  0.24179252  0.36980288  1
  O  O239  1  0.18620156  0.26063239  0.86027271  1
  O  O240  1  0.32443114  0.79924541  0.34051804  1
  O  O241  1  0.21833994  0.70874760  0.89290703  1
  O  O242  1  0.78860622  0.25833559  0.38082224  1
  O  O243  1  0.78721808  0.19424214  0.90709169  1
  O  O244  1  0.78458887  0.82598576  0.36400899  1
  O  O245  1  0.78020694  0.72732199  0.88021618  1
  O  O246  1  0.03406168  0.08863553  0.02640906  1
  O  O247  1  -0.02000398  0.13750751  0.44673133  1
  O  O248  1  0.00522300  0.59171422  0.02551854  1
  O  O249  1  0.01017024  0.66636332  0.47676381  1
  O  O250  1  0.48867766  0.06840041  -0.00380777  1
  O  O251  1  0.54291318  0.17742543  0.52703738  1
  O  O252  1  0.46831346  0.59541834  0.01374623  1
  O  O253  1  0.62985021  0.56326935  0.41945664  1
  O  O254  1  0.51886150  0.37791197  0.53824263  1
  O  O255  1  0.46780501  0.38574190  0.97298029  1
  O  O256  1  0.48412303  0.76346796  0.39984947  1
  O  O257  1  0.55427342  0.86808697  1.00460086  1
  O  O258  1  0.98110199  0.40997514  0.49702241  1
  O  O259  1  0.97214970  0.36264099  0.98928515  1
  O  O260  1  0.96383900  0.93660301  0.58254946  1
  O  O261  1  1.00654148  0.88680218  1.04355189  1
  O  O262  1  0.42933356  0.50825791  0.36851306  1
  O  O263  1  0.46206572  0.50491551  0.85615240  1
  O  O264  1  0.46433841  1.02006559  0.40907667  1
  O  O265  1  0.52891512  0.97715886  0.88769706  1
  O  O266  1  1.05889804  0.50741986  0.39998516  1
  O  O267  1  0.98811026  0.48414031  0.91140244  1
  O  O268  1  1.04806300  0.97097971  0.34991323  1
  O  O269  1  1.02550717  0.98171430  0.91484923  1
  O  O270  1  0.03355083  -0.00064443  0.12753181  1
  O  O271  1  0.05187864  0.04202330  0.69874325  1
  O  O272  1  -0.00073605  0.46013383  0.12532472  1
  O  O273  1  0.01854601  0.53521074  0.57121095  1
  O  O274  1  0.51862026  -0.02428330  0.11431079  1
  O  O275  1  0.53605725  0.03507584  0.65362392  1
  O  O276  1  0.46187053  0.47390438  0.11145681  1
  O  O277  1  0.52025624  0.47947205  0.69806501  1
  O  O278  1  0.23950989  0.34546824  0.20721745  1
  O  O279  1  0.20018489  0.40207309  0.75876092  1
  O  O280  1  0.30370904  0.90596041  0.22040349  1
  O  O281  1  0.30906542  0.92359973  0.71524489  1
  O  O282  1  0.72670703  0.37476796  0.23760974  1
  O  O283  1  0.67032402  0.52999358  0.71684068  1
  O  O284  1  0.75874982  0.79756555  0.19923737  1
  O  O285  1  0.78246067  0.88873867  0.77407555  1
  O  O286  1  0.28306897  0.06713967  0.21352692  1
  O  O287  1  0.27728171  0.07553939  0.71020302  1
  O  O288  1  0.24556913  0.63917203  0.20698007  1
  O  O289  1  0.21815706  0.60956319  0.77670537  1
  O  O290  1  0.70768301  0.11689906  0.29607265  1
  O  O291  1  0.75958864  0.08873307  0.80561037  1
  O  O292  1  0.73997116  0.59850928  0.28924525  1
  O  O293  1  0.70240849  0.64659410  0.80602103  1
  O  O294  1  0.36853213  0.11179998  0.45126309  1
  O  O295  1  0.25684532  0.13859606  0.91231863  1
  O  O296  1  0.33724731  0.62933114  0.35016912  1
  O  O297  1  0.34662291  0.60060445  0.88673741  1
  O  O298  1  0.88124259  0.15905693  0.31549132  1
  O  O299  1  0.91465588  0.10379120  0.89022636  1
  O  O300  1  0.90001354  0.71284530  0.29280414  1
  O  O301  1  0.82403529  0.58770323  0.86466752  1
  O  O302  1  0.12246643  0.34719061  0.11862230  1
  O  O303  1  0.08491026  0.41286013  0.63917144  1
  O  O304  1  0.11439250  0.81426001  0.19135953  1
  O  O305  1  0.13339282  0.92104618  0.63921637  1
  O  O306  1  0.64161362  0.43916106  0.15193138  1
  O  O307  1  0.67810362  0.43694735  0.59426785  1
  O  O308  1  0.65719642  0.85573896  0.14884982  1
  O  O309  1  0.58847768  0.89816017  0.59257628  1
  O  O310  1  0.14361735  0.23202215  0.23941842  1
  O  O311  1  0.08555884  0.29828187  0.74046478  1
  O  O312  1  0.18518718  0.77429189  0.20162871  1
  O  O313  1  0.07137059  0.73291654  0.75120462  1
  O  O314  1  0.56689519  0.27546245  0.21682571  1
  O  O315  1  0.66206751  0.24314445  0.78940191  1
  O  O316  1  0.61521073  0.70170104  0.15443264  1
  O  O317  1  0.59969224  0.68809097  0.67223711  1
  O  O318  1  0.32273588  0.21187706  0.18761159  1
  O  O319  1  0.34307872  0.26442937  0.75358557  1
  O  O320  1  0.47169899  0.90888565  0.28405782  1
  O  O321  1  0.45987556  0.81035955  0.61372506  1
  O  O322  1  0.85998369  0.24824624  0.18705408  1
  O  O323  1  0.82962933  0.26092726  0.75887351  1
  O  O324  1  0.94044923  0.73916955  0.24060729  1
  O  O325  1  0.89916561  0.76169763  0.72915480  1
  O  O326  1  0.36145171  0.44499080  0.54656163  1
  O  O327  1  0.36302096  0.48369786  0.97861256  1
  O  O328  1  0.40153380  1.00152205  0.54275130  1
  O  O329  1  0.42157101  0.92497978  0.97197787  1
  O  O330  1  0.90207171  0.55044976  0.47034951  1
  O  O331  1  0.88357751  0.50666063  1.02792509  1
  O  O332  1  0.83603813  1.01851847  0.53633326  1
  O  O333  1  0.91270698  0.98273192  1.00134047  1
  O  O334  1  0.14376830  -0.02976759  0.00706394  1
  O  O335  1  0.11171254  0.08221430  0.50113960  1
  O  O336  1  0.09601264  0.46855786  0.02210001  1
  O  O337  1  0.16106278  0.49517784  0.52836302  1
  O  O338  1  0.62901552  -0.00291342  0.02009718  1
  O  O339  1  0.58380662  -0.10544012  0.51141573  1
  O  O340  1  0.57171974  0.49729551  -0.00233003  1
  O  O341  1  0.46944479  0.60055462  0.51019861  1
  O  O342  1  0.34314760  0.36872823  0.08989225  1
  O  O343  1  0.40705868  0.34226266  0.65083331  1
  O  O344  1  0.43587262  0.82575969  0.10517227  1
  O  O345  1  0.39068565  0.80316623  0.64034080  1
  O  O346  1  0.84265146  0.39710627  0.14576161  1
  O  O347  1  0.78355206  0.42985142  0.72828318  1
  O  O348  1  0.88682449  0.93937038  0.15634437  1
  O  O349  1  0.84735147  0.85591930  0.61961213  1
  O  O350  1  0.09234089  0.16493420  0.37911704  1
  O  O351  1  0.07179939  0.16316946  0.82826829  1
  O  O352  1  0.13719545  0.71961679  0.35116118  1
  O  O353  1  0.09612847  0.60872752  0.88023243  1
  O  O354  1  0.57196216  0.13586213  0.47847071  1
  O  O355  1  0.68961627  0.23220844  1.03149859  1
  O  O356  1  0.67764615  0.55608312  0.47061519  1
  O  O357  1  0.65126954  0.66492695  0.94320638  1
