# generated using pymatgen
data_V51Zn51O256
_symmetry_space_group_name_H-M   'P 1'
_cell_length_a   18.02368374
_cell_length_b   17.86762346
_cell_length_c   17.76581784
_cell_angle_alpha   89.72674286
_cell_angle_beta   90.95793865
_cell_angle_gamma   90.55480215
_symmetry_Int_Tables_number   1
_chemical_formula_structural   V51Zn51O256
_chemical_formula_sum   'V51 Zn51 O256'
_cell_volume   5720.18244285
_cell_formula_units_Z   1
loop_
 _symmetry_equiv_pos_site_id
 _symmetry_equiv_pos_as_xyz
  1  'x, y, z'
loop_
 _atom_site_type_symbol
 _atom_site_label
 _atom_site_symmetry_multiplicity
 _atom_site_fract_x
 _atom_site_fract_y
 _atom_site_fract_z
 _atom_site_occupancy
  V  V0  1  0.57959671  0.94389747  0.28476746  1
  V  V1  1  0.50783797  0.76091621  0.76995578  1
  V  V2  1  0.82691077  0.47327863  0.85324413  1
  V  V3  1  0.10862708  0.41950911  0.77188924  1
  V  V4  1  0.89713977  0.42185826  0.48994321  1
  V  V5  1  0.06464164  0.85592346  0.74289739  1
  V  V6  1  0.24237550  -0.04525503  0.24711203  1
  V  V7  1  0.38894346  0.52680530  0.38992485  1
  V  V8  1  0.25943794  0.76859484  0.53247199  1
  V  V9  1  0.10391266  -0.02342445  0.08975415  1
  V  V10  1  0.26875545  0.49244853  0.72634491  1
  V  V11  1  0.66976057  0.53196159  0.11415520  1
  V  V12  1  0.14755721  0.78297713  0.40138785  1
  V  V13  1  0.80892620  0.30595769  0.14018871  1
  V  V14  1  0.25960206  0.52925509  0.25049580  1
  V  V15  1  0.25585421  0.18058455  0.33694083  1
  V  V16  1  0.48204675  0.90657971  0.41922537  1
  V  V17  1  0.26194346  0.64251143  0.39594045  1
  V  V18  1  0.49196600  0.77089080  0.29769831  1
  V  V19  1  0.36953288  0.89772350  0.53178256  1
  V  V20  1  0.73438459  0.88312098  0.61191692  1
  V  V21  1  -0.00900520  0.85506005  0.35579912  1
  V  V22  1  -0.01387798  0.19023684  0.76896376  1
  V  V23  1  0.64619253  0.63761940  0.49964101  1
  V  V24  1  0.86623731  0.21265819  0.63129517  1
  V  V25  1  0.84504036  0.61583898  0.73409042  1
  V  V26  1  0.83025240  0.52476636  0.20015826  1
  V  V27  1  0.50529305  0.54062439  0.52089866  1
  V  V28  1  0.37864211  0.66265047  0.26918092  1
  V  V29  1  0.38264735  0.41543734  0.53994616  1
  V  V30  1  0.62624750  0.03861151  0.60613154  1
  V  V31  1  0.62742687  0.29333068  0.81153039  1
  V  V32  1  0.15658429  0.21911288  0.83392540  1
  V  V33  1  0.37076989  0.77845357  0.11977163  1
  V  V34  1  0.80045717  -0.03730818  0.89680503  1
  V  V35  1  0.34552645  0.65855349  0.77813143  1
  V  V36  1  0.58873397  0.12924890  0.03694511  1
  V  V37  1  -0.03640090  0.72466778  0.70854544  1
  V  V38  1  0.38687902  0.44115632  0.93047381  1
  V  V39  1  0.05211620  0.48773823  -0.05918638  1
  V  V40  1  0.04760181  0.49204863  0.55569107  1
  V  V41  1  0.23974552  0.30833478  0.07733612  1
  V  V42  1  0.49690681  0.38607281  0.40288797  1
  V  V43  1  0.38190888  0.23971774  0.61303974  1
  V  V44  1  0.08453687  0.14589508  0.39072832  1
  V  V45  1  0.72342743  0.83723809  0.10688747  1
  V  V46  1  0.14096070  0.64324318  0.53336929  1
  V  V47  1  0.38035473  0.75951059  0.64505423  1
  V  V48  1  0.09672053  0.83795615  0.21888516  1
  V  V49  1  0.85916316  0.77143288  -0.01976792  1
  V  V50  1  0.50690616  0.22533292  0.72909399  1
  Zn  Zn51  1  0.55257012  0.83708405  0.15653454  1
  Zn  Zn52  1  0.43484848  0.71141744  0.46007952  1
  Zn  Zn53  1  0.65471459  0.45266872  0.93381493  1
  Zn  Zn54  1  0.82006395  0.02438437  0.61717139  1
  Zn  Zn55  1  0.30427186  0.34413547  0.25888507  1
  Zn  Zn56  1  0.48884373  0.63390242  0.65159124  1
  Zn  Zn57  1  0.34410238  0.31069333  0.80147918  1
  Zn  Zn58  1  0.21347000  0.41742804  0.92877431  1
  Zn  Zn59  1  0.80907721  0.28197434  0.78962680  1
  Zn  Zn60  1  0.34718202  0.08692681  0.48671472  1
  Zn  Zn61  1  0.47932809  0.92914025  0.67580952  1
  Zn  Zn62  1  0.11192064  0.57846037  0.33800496  1
  Zn  Zn63  1  0.90693110  0.59080173  0.95054297  1
  Zn  Zn64  1  0.08919291  0.29752214  -0.00274458  1
  Zn  Zn65  1  0.71696229  0.16385811  0.14706741  1
  Zn  Zn66  1  0.52129923  0.27758672  0.53423566  1
  Zn  Zn67  1  0.02674478  0.75286512  0.05575891  1
  Zn  Zn68  1  0.89782187  0.43455451  0.04327085  1
  Zn  Zn69  1  -0.01424383  0.35590651  0.64618640  1
  Zn  Zn70  1  0.06967136  0.01206277  0.26652292  1
  Zn  Zn71  1  0.53080522  0.08554211  0.84477215  1
  Zn  Zn72  1  0.28527184  -0.05777927  0.08122806  1
  Zn  Zn73  1  0.87127755  0.38044158  0.31206861  1
  Zn  Zn74  1  0.32177161  0.58757447  0.57322756  1
  Zn  Zn75  1  0.06743387  0.06233053  0.80831568  1
  Zn  Zn76  1  0.65737828  0.91718740  0.48141332  1
  Zn  Zn77  1  0.88857338  0.12434033  0.87242365  1
  Zn  Zn78  1  0.13023924  0.97613768  0.40730449  1
  Zn  Zn79  1  0.59100276  0.31867133  0.06153734  1
  Zn  Zn80  1  0.68400306  0.22700280  0.65400879  1
  Zn  Zn81  1  0.69205214  0.99200955  1.03176652  1
  Zn  Zn82  1  0.41960619  0.73969605  0.93220232  1
  Zn  Zn83  1  0.75337968  0.68803832  0.17875339  1
  Zn  Zn84  1  0.21710434  0.47248218  0.48119046  1
  Zn  Zn85  1  0.00017136  0.89715111  0.94411686  1
  Zn  Zn86  1  0.93071398  0.25276742  0.45233084  1
  Zn  Zn87  1  0.23069573  0.31575272  0.69562071  1
  Zn  Zn88  1  0.18620324  0.14709619  0.15026823  1
  Zn  Zn89  1  0.33495105  0.44805491  0.10710162  1
  Zn  Zn90  1  0.55153890  0.81130532  0.58159646  1
  Zn  Zn91  1  0.51569996  0.45922654  0.05211116  1
  Zn  Zn92  1  0.49745112  0.56523986  0.82328940  1
  Zn  Zn93  1  0.76963059  0.67155774  0.86409547  1
  Zn  Zn94  1  1.00567461  0.74998637  0.52046150  1
  Zn  Zn95  1  0.57482445  0.04410829  0.41308822  1
  Zn  Zn96  1  0.85513584  0.85880664  0.73918000  1
  Zn  Zn97  1  0.31786170  0.83162873  0.35346633  1
  Zn  Zn98  1  0.68133225  0.69502140  0.69758692  1
  Zn  Zn99  1  0.41830873  0.91107501  0.21677399  1
  Zn  Zn100  1  0.17376015  0.73422524  0.70916402  1
  Zn  Zn101  1  -0.02209434  0.51624743  0.74550319  1
  O  O102  1  0.12316308  0.06825471  0.11016435  1
  O  O103  1  0.12913832  0.17099826  0.61103178  1
  O  O104  1  0.15143516  0.63275971  0.06443495  1
  O  O105  1  0.15090080  0.65697492  0.62633343  1
  O  O106  1  0.61190099  0.14785454  0.13824004  1
  O  O107  1  0.64267461  0.13044161  0.62780419  1
  O  O108  1  0.68169411  0.62728558  0.12674543  1
  O  O109  1  0.61706202  0.65858572  0.60842005  1
  O  O110  1  0.39875074  0.42714454  0.38174159  1
  O  O111  1  0.39267433  0.35604116  0.88495886  1
  O  O112  1  0.37945625  0.88320221  0.42865195  1
  O  O113  1  0.33843500  0.94727888  0.77553567  1
  O  O114  1  0.90613761  0.35127538  0.41142995  1
  O  O115  1  0.83153590  0.37961212  0.82969482  1
  O  O116  1  0.90326054  0.85555959  0.37271283  1
  O  O117  1  0.82488596  0.76410755  0.89138156  1
  O  O118  1  0.17921153  -0.00179362  0.30620521  1
  O  O119  1  0.29140452  0.03679628  0.95090214  1
  O  O120  1  0.26566970  0.54210211  0.40660814  1
  O  O121  1  0.30169983  0.47925189  0.91398557  1
  O  O122  1  0.85601150  0.03423265  0.45473335  1
  O  O123  1  0.71182926  -0.04425859  0.93456590  1
  O  O124  1  0.87128991  0.48326410  0.27750358  1
  O  O125  1  0.73528513  0.48899856  0.86664919  1
  O  O126  1  0.28358324  0.52441576  0.15738873  1
  O  O127  1  0.26255548  0.51742539  0.63395404  1
  O  O128  1  0.26676914  1.00801995  0.17124948  1
  O  O129  1  0.24267948  1.04704595  0.66919416  1
  O  O130  1  0.74924937  0.46466776  0.15114562  1
  O  O131  1  0.61692203  0.51894363  0.73482850  1
  O  O132  1  0.74009887  0.93225859  0.10585927  1
  O  O133  1  0.70970624  0.99252156  0.63455449  1
  O  O134  1  0.04005414  0.24034137  0.13550966  1
  O  O135  1  0.01214631  0.40769427  0.73890096  1
  O  O136  1  0.00424684  0.82751893  0.25884344  1
  O  O137  1  -0.04259892  0.82305552  0.75192863  1
  O  O138  1  0.47600068  0.32436842  0.28985475  1
  O  O139  1  0.68369647  0.33343158  0.51782824  1
  O  O140  1  0.47706378  0.88763141  0.31524164  1
  O  O141  1  0.50679145  0.85586912  0.74891431  1
  O  O142  1  0.62174327  0.20395248  0.28943734  1
  O  O143  1  0.50576254  0.13228583  0.75070839  1
  O  O144  1  0.47777145  0.66947220  0.28863318  1
  O  O145  1  0.46553491  0.64792299  0.76135686  1
  O  O146  1  0.95221160  0.11968265  0.17571943  1
  O  O147  1  1.00958538  0.11546387  0.71670164  1
  O  O148  1  0.99707257  0.58361965  0.32973691  1
  O  O149  1  0.95754126  0.62748982  0.74072619  1
  O  O150  1  0.40074887  0.16272420  -0.05035420  1
  O  O151  1  0.40632840  0.30872656  0.54388540  1
  O  O152  1  0.40681666  0.76021424  0.03231180  1
  O  O153  1  0.36550797  0.76266403  0.53071239  1
  O  O154  1  0.89210559  0.19573458  -0.01706993  1
  O  O155  1  0.86891265  0.22244499  0.53574323  1
  O  O156  1  0.87686035  0.68080396  0.00651936  1
  O  O157  1  0.95190249  0.87152424  0.54136141  1
  O  O158  1  0.17842693  0.16044096  0.56528847  1
  O  O159  1  0.14305644  0.23518389  0.92657855  1
  O  O160  1  0.15675512  0.75552984  0.51301061  1
  O  O161  1  0.11873851  0.77311776  0.97659137  1
  O  O162  1  0.71653924  0.26111147  0.41858815  1
  O  O163  1  0.61092732  0.22205485  1.01085334  1
  O  O164  1  0.62298124  0.72455988  0.55775473  1
  O  O165  1  0.55495539  0.67790765  1.03025185  1
  O  O166  1  0.52577594  0.27134549  0.12509445  1
  O  O167  1  0.49746306  0.22731047  0.62515064  1
  O  O168  1  0.45686056  0.79691483  0.19115362  1
  O  O169  1  0.48323789  0.75004692  0.64075406  1
  O  O170  1  1.04558855  0.21427056  0.06403529  1
  O  O171  1  0.95131618  0.24995813  0.67351694  1
  O  O172  1  1.08491378  0.64317881  0.07809991  1
  O  O173  1  0.95824253  0.73422326  0.61248008  1
  O  O174  1  0.05333299  0.34601729  0.27030204  1
  O  O175  1  -0.00487631  0.13089012  0.85772695  1
  O  O176  1  0.03829503  0.78988992  0.42371150  1
  O  O177  1  0.10037964  0.67549393  0.88300921  1
  O  O178  1  0.52289255  0.29557601  0.43097512  1
  O  O179  1  0.53720526  0.25130806  0.82818218  1
  O  O180  1  0.49323779  0.77784839  0.39945880  1
  O  O181  1  0.49801780  0.75858870  0.86620119  1
  O  O182  1  0.16685587  0.20226890  0.37738478  1
  O  O183  1  0.41355866  0.22436314  0.97831645  1
  O  O184  1  0.25479127  0.65398201  0.51226648  1
  O  O185  1  0.18203041  0.74737500  0.99000787  1
  O  O186  1  0.79748474  0.04177757  0.50397747  1
  O  O187  1  0.69702562  0.10758753  1.04286565  1
  O  O188  1  0.73297481  0.62061835  0.50941954  1
  O  O189  1  0.62169350  0.64132686  0.88784781  1
  O  O190  1  0.26825506  0.34273267  -0.00880069  1
  O  O191  1  0.28920359  0.40437917  0.51629159  1
  O  O192  1  0.22068208  0.88784083  -0.11352926  1
  O  O193  1  0.27162550  0.86942618  0.52417729  1
  O  O194  1  0.74515510  0.33520063  0.05889556  1
  O  O195  1  0.81772846  0.46200559  0.47704937  1
  O  O196  1  0.62951426  0.82283790  0.08888567  1
  O  O197  1  0.75347678  0.87916912  0.51698248  1
  O  O198  1  0.16519838  0.54830770  0.25223471  1
  O  O199  1  0.17613807  0.49907966  0.76020031  1
  O  O200  1  0.06966698  0.93847966  0.18348391  1
  O  O201  1  0.04576381  0.95469713  0.79537126  1
  O  O202  1  0.72042880  0.50522582  0.21712686  1
  O  O203  1  0.55235923  0.48791803  0.76081219  1
  O  O204  1  0.58138100  1.03977457  0.30838044  1
  O  O205  1  0.62670423  1.02710304  0.81173254  1
  O  O206  1  0.32524649  -0.07799938  0.28828367  1
  O  O207  1  0.38246145  -0.00952464  0.74411976  1
  O  O208  1  0.36847880  0.55295050  0.28933452  1
  O  O209  1  0.33489332  0.55510377  0.76729387  1
  O  O210  1  0.78020880  0.03157178  0.21967939  1
  O  O211  1  0.80499161  -0.07696565  0.81060104  1
  O  O212  1  0.88473749  0.51019570  0.12282058  1
  O  O213  1  0.86656343  0.50985105  0.76149029  1
  O  O214  1  0.14252461  0.42177559  0.39851122  1
  O  O215  1  0.14366753  0.37417611  0.85046336  1
  O  O216  1  0.16407974  0.87523165  0.41637010  1
  O  O217  1  0.06441676  0.90035539  0.85544724  1
  O  O218  1  0.56457336  0.42826116  0.36178328  1
  O  O219  1  0.63313249  0.37916800  0.84763875  1
  O  O220  1  0.58713949  0.91099272  0.39821339  1
  O  O221  1  0.49639162  0.94793536  0.90463226  1
  O  O222  1  0.39710493  0.15293167  0.11430819  1
  O  O223  1  0.37413506  0.15729542  0.56544653  1
  O  O224  1  0.37725653  0.67134723  0.17538199  1
  O  O225  1  0.36998349  0.65694080  0.64429430  1
  O  O226  1  0.91714244  0.06065653  0.16912213  1
  O  O227  1  0.85808524  0.11882143  0.64948394  1
  O  O228  1  0.95316143  0.69549974  0.13818617  1
  O  O229  1  0.83410625  0.59775588  0.64543371  1
  O  O230  1  0.24337041  0.21216988  0.08616487  1
  O  O231  1  0.29221642  0.26222914  0.63153244  1
  O  O232  1  0.28190805  0.75985434  0.11800523  1
  O  O233  1  0.26683694  0.76580930  0.63067678  1
  O  O234  1  0.80933650  0.20843312  0.14026995  1
  O  O235  1  0.78614025  0.25605069  0.67246034  1
  O  O236  1  0.75024775  0.79252642  0.18979918  1
  O  O237  1  0.74155257  0.78069840  0.64400578  1
  O  O238  1  0.30457346  0.26325058  0.32598412  1
  O  O239  1  0.24140120  0.25705746  0.79738841  1
  O  O240  1  0.25324978  0.75992343  0.40844054  1
  O  O241  1  0.27046603  0.84367579  0.90173510  1
  O  O242  1  0.81528569  0.16185371  0.32691045  1
  O  O243  1  0.70913259  0.24615280  0.82517496  1
  O  O244  1  0.65191058  0.71240139  0.41579981  1
  O  O245  1  0.68146205  0.65309818  0.93189688  1
  O  O246  1  -0.09489046  0.15633012  0.03899334  1
  O  O247  1  0.01706632  0.19832332  0.43240668  1
  O  O248  1  0.01047095  0.56963155  -0.03074726  1
  O  O249  1  0.04855207  0.65011169  0.51169875  1
  O  O250  1  0.49941374  0.13545677  0.05967446  1
  O  O251  1  0.69671744  0.19831605  0.43943614  1
  O  O252  1  0.51162457  0.63892988  0.06642940  1
  O  O253  1  0.48977960  0.63845427  0.51814454  1
  O  O254  1  0.48899589  0.42898144  0.50021447  1
  O  O255  1  0.58021162  0.39843697  0.99505127  1
  O  O256  1  0.48368194  0.87897705  0.51960376  1
  O  O257  1  0.46299449  0.90323174  0.94816274  1
  O  O258  1  1.05967152  0.39949453  0.57029270  1
  O  O259  1  1.02296193  0.37858647  0.95470823  1
  O  O260  1  0.96573818  0.92284645  0.49640953  1
  O  O261  1  0.95923983  0.80494648  0.99072210  1
  O  O262  1  0.47769690  0.55030234  0.39934377  1
  O  O263  1  0.45123612  0.50163760  0.89462693  1
  O  O264  1  0.47191923  1.00170268  0.42463211  1
  O  O265  1  0.45645801  1.01040453  0.87923739  1
  O  O266  1  1.08988784  0.46486639  0.37543056  1
  O  O267  1  1.04769362  0.49530808  0.84082917  1
  O  O268  1  1.03269756  0.94548328  0.35285415  1
  O  O269  1  0.90050683  0.94595598  0.93732086  1
  O  O270  1  0.03713814  -0.03352172  0.02128312  1
  O  O271  1  0.05256333  0.02831442  0.59348255  1
  O  O272  1  0.00963030  0.42634599  0.02014078  1
  O  O273  1  0.02105338  0.52774735  0.63775132  1
  O  O274  1  0.39398849  0.09177948  0.08510619  1
  O  O275  1  0.54541114  0.00693150  0.64721535  1
  O  O276  1  0.57768066  0.50656580  0.12652138  1
  O  O277  1  0.50618586  0.53221816  0.61633566  1
  O  O278  1  0.26555523  0.44014444  0.28502169  1
  O  O279  1  0.29547967  0.39930027  0.74211806  1
  O  O280  1  0.19513017  0.87254626  0.21766507  1
  O  O281  1  0.15975787  0.83644689  0.75200097  1
  O  O282  1  0.81559876  0.33183362  0.23416407  1
  O  O283  1  0.66093521  0.47550455  0.70182311  1
  O  O284  1  0.66226952  0.92430013  0.25592042  1
  O  O285  1  0.73955033  0.82969359  0.70979503  1
  O  O286  1  0.23409195  0.14602458  0.24975720  1
  O  O287  1  0.19898877  -0.00457143  0.65499071  1
  O  O288  1  0.26806367  0.64439478  0.29443898  1
  O  O289  1  0.25597704  0.68200397  0.76213652  1
  O  O290  1  0.72944337  0.07768014  0.22809690  1
  O  O291  1  0.67816161  0.07323128  0.79916049  1
  O  O292  1  0.82648806  0.62028496  0.21507252  1
  O  O293  1  0.74606225  0.63869020  0.76029018  1
  O  O294  1  0.30304507  0.11770761  0.39638205  1
  O  O295  1  0.30888162  0.05040338  0.88363152  1
  O  O296  1  0.36355400  0.64608272  0.40503404  1
  O  O297  1  0.35894989  0.67182224  0.87243848  1
  O  O298  1  0.87963358  0.18184158  0.34288299  1
  O  O299  1  0.81240968  0.05999935  0.89292190  1
  O  O300  1  0.96227228  0.64190088  0.34575560  1
  O  O301  1  0.84658041  0.59728645  0.86157567  1
  O  O302  1  0.14917307  0.33615536  0.08299192  1
  O  O303  1  0.14076538  0.36631108  0.69826202  1
  O  O304  1  0.08908038  0.78668211  0.14072133  1
  O  O305  1  0.05842075  0.88976227  0.65712490  1
  O  O306  1  0.69507406  0.31550061  0.11600725  1
  O  O307  1  0.64335618  0.28643470  0.55372803  1
  O  O308  1  0.52554425  0.93985979  0.19610959  1
  O  O309  1  0.63107922  0.88230754  0.59139850  1
  O  O310  1  0.08648634  0.21238471  0.18454064  1
  O  O311  1  0.06924440  0.24515672  0.78511506  1
  O  O312  1  0.13050797  0.77829736  0.30332169  1
  O  O313  1  0.06127025  0.74246172  0.73102287  1
  O  O314  1  0.67824365  0.22635142  0.25672125  1
  O  O315  1  0.60401203  0.27738758  0.71047323  1
  O  O316  1  0.57856453  0.78670780  0.26779790  1
  O  O317  1  0.59590623  0.73183936  0.75252570  1
  O  O318  1  0.43353890  0.35008700  0.23909388  1
  O  O319  1  0.40948930  0.25592359  0.72550549  1
  O  O320  1  0.37220568  0.75882958  0.29732547  1
  O  O321  1  0.38230940  0.76136797  0.74561441  1
  O  O322  1  0.98955744  0.34403023  0.24378207  1
  O  O323  1  0.89063230  0.21000344  0.80118792  1
  O  O324  1  0.98008475  0.66778853  0.19700689  1
  O  O325  1  0.86401243  0.72236482  0.73451645  1
  O  O326  1  0.38528331  0.52321628  0.50522585  1
  O  O327  1  0.41070419  0.44469228  1.03489884  1
  O  O328  1  0.36202970  0.99213463  0.53725636  1
  O  O329  1  0.33355601  0.98207041  0.98741820  1
  O  O330  1  0.97106390  0.49370400  0.48919931  1
  O  O331  1  0.87462623  0.47734987  0.94459541  1
  O  O332  1  0.99458261  1.05285125  0.56686722  1
  O  O333  1  0.84574405  0.89919831  0.97328446  1
  O  O334  1  0.17942551  -0.07060178  0.05946396  1
  O  O335  1  0.11201851  0.07129391  0.44774608  1
  O  O336  1  0.14280324  0.49131506  -0.03212016  1
  O  O337  1  0.13856540  0.53468622  0.52254765  1
  O  O338  1  0.58736613  0.02690214  0.05120320  1
  O  O339  1  0.62499973  0.02992469  0.50519950  1
  O  O340  1  0.69000472  0.51155596  0.02352985  1
  O  O341  1  0.60106057  0.54307113  0.49899470  1
  O  O342  1  0.29718067  0.35408446  0.14969061  1
  O  O343  1  0.39122410  0.43154935  0.62914498  1
  O  O344  1  0.36445971  0.88268971  0.12312638  1
  O  O345  1  0.39121457  0.86967384  0.63039219  1
  O  O346  1  0.88566976  0.33847518  0.09370721  1
  O  O347  1  0.90210398  0.37624351  0.57581238  1
  O  O348  1  0.78007484  0.79185767  0.03726788  1
  O  O349  1  0.82899398  0.91874613  0.64142219  1
  O  O350  1  0.05283190  0.10871097  0.30657898  1
  O  O351  1  0.15625283  0.12358335  0.82011796  1
  O  O352  1  0.15590419  0.65336638  0.40408364  1
  O  O353  1  0.16274424  0.65306739  0.89899595  1
  O  O354  1  0.83896578  0.02350301  0.38607649  1
  O  O355  1  0.57342043  0.11077016  0.94052732  1
  O  O356  1  0.62408230  0.64715085  0.39086396  1
  O  O357  1  0.58643817  0.57470326  0.90002359  1
