# generated using pymatgen
data_V51Zn51O256
_symmetry_space_group_name_H-M   'P 1'
_cell_length_a   17.07640345
_cell_length_b   17.06290192
_cell_length_c   17.24637551
_cell_angle_alpha   89.51980385
_cell_angle_beta   89.79110123
_cell_angle_gamma   90.37637624
_symmetry_Int_Tables_number   1
_chemical_formula_structural   V51Zn51O256
_chemical_formula_sum   'V51 Zn51 O256'
_cell_volume   5024.80880346
_cell_formula_units_Z   1
loop_
 _symmetry_equiv_pos_site_id
 _symmetry_equiv_pos_as_xyz
  1  'x, y, z'
loop_
 _atom_site_type_symbol
 _atom_site_label
 _atom_site_symmetry_multiplicity
 _atom_site_fract_x
 _atom_site_fract_y
 _atom_site_fract_z
 _atom_site_occupancy
  V  V0  1  0.51609540  0.51662600  0.48085231  1
  V  V1  1  0.50537697  0.85997576  0.36627413  1
  V  V2  1  0.36631152  0.38450543  0.50626019  1
  V  V3  1  0.39191512  0.36806507  0.04609208  1
  V  V4  1  0.10418250  0.74863680  0.88788779  1
  V  V5  1  0.72502167  0.64000038  0.87754974  1
  V  V6  1  0.37263644  0.23533816  0.61769101  1
  V  V7  1  0.89121190  0.13759861  0.72587644  1
  V  V8  1  0.52599686  0.01950975  -0.00017875  1
  V  V9  1  0.01015136  -0.03284147  0.49449889  1
  V  V10  1  0.26903148  0.14401123  0.86065961  1
  V  V11  1  0.90094638  0.76401727  0.13223493  1
  V  V12  1  0.60873669  0.84498341  0.70419477  1
  V  V13  1  0.50258179  0.62210776  0.63672139  1
  V  V14  1  0.66534933  0.39025579  0.26490878  1
  V  V15  1  0.50475935  0.49755432  0.04711965  1
  V  V16  1  0.87462003  0.09712657  0.25704121  1
  V  V17  1  0.35828547  0.84538334  0.49054595  1
  V  V18  1  0.61998071  0.62379838  0.02005859  1
  V  V19  1  0.89088832  0.23849798  0.15618968  1
  V  V20  1  0.11711958  0.12853090  0.48354459  1
  V  V21  1  0.47855577  0.73871655  0.76911997  1
  V  V22  1  0.11460050  0.88678228  0.24388935  1
  V  V23  1  0.71542065  -0.00815978  0.25931239  1
  V  V24  1  0.63166194  0.23428185  0.38457675  1
  V  V25  1  0.24982350  0.00275701  0.22105892  1
  V  V26  1  0.88309339  0.63771689  0.78519437  1
  V  V27  1  0.26842115  0.10955266  0.37774518  1
  V  V28  1  0.26145380  0.24950312  0.02678174  1
  V  V29  1  0.24141078  0.62433816  0.33495406  1
  V  V30  1  0.37934462  0.12814081  0.22674368  1
  V  V31  1  0.74611045  0.73091121  0.48085197  1
  V  V32  1  0.29193648  0.00027929  0.74209709  1
  V  V33  1  0.49490599  0.37734558  0.35577026  1
  V  V34  1  0.76119089  0.86236979  0.61058606  1
  V  V35  1  0.23788786  0.48946242  0.77231405  1
  V  V36  1  0.24448988  0.25191108  0.49404364  1
  V  V37  1  0.11048781  0.63765829  0.53177104  1
  V  V38  1  0.61959179  -0.00249925  0.60804625  1
  V  V39  1  0.88549358  0.72312718  0.61822702  1
  V  V40  1  0.74304989  0.88283356  0.12717197  1
  V  V41  1  0.13282733  0.01739633  0.62504110  1
  V  V42  1  0.48519003  0.00293441  0.49527402  1
  V  V43  1  0.74371911  0.24702730  -0.03539308  1
  V  V44  1  0.25130399  0.84594323  0.62860942  1
  V  V45  1  -0.02353936  0.01970284  -0.02543907  1
  V  V46  1  0.11603545  0.87909045  0.75326998  1
  V  V47  1  0.35993405  0.49181934  0.33983043  1
  V  V48  1  0.74391178  0.49784571  0.75049158  1
  V  V49  1  0.74135739  0.10352097  0.39401859  1
  V  V50  1  0.51577758  0.27839693  0.69959147  1
  Zn  Zn51  1  0.19617361  0.45386087  0.44159705  1
  Zn  Zn52  1  0.31419841  0.06321162  0.04687962  1
  Zn  Zn53  1  0.04927969  0.57690160  0.38107590  1
  Zn  Zn54  1  0.31696959  0.54697645  0.59068841  1
  Zn  Zn55  1  0.77969821  0.68794101  0.07674948  1
  Zn  Zn56  1  0.43053181  0.19270539  0.94180046  1
  Zn  Zn57  1  0.06894382  0.80668506  0.57053481  1
  Zn  Zn58  1  0.68915191  0.56373577  0.56100868  1
  Zn  Zn59  1  0.21357697  0.96712535  0.90785408  1
  Zn  Zn60  1  0.90955681  0.89996728  0.23882684  1
  Zn  Zn61  1  0.43969485  0.91217559  0.66350835  1
  Zn  Zn62  1  0.86884109  0.34936208  0.73022701  1
  Zn  Zn63  1  0.79122158  0.80460030  0.78841139  1
  Zn  Zn64  1  0.54412118  0.05916875  0.32580975  1
  Zn  Zn65  1  0.16180435  0.68590860  0.71022774  1
  Zn  Zn66  1  0.59263017  0.32854163  0.08905976  1
  Zn  Zn67  1  0.31153235  0.05895409  0.55507873  1
  Zn  Zn68  1  0.10795262  0.67910369  0.24100059  1
  Zn  Zn69  1  0.14489865  0.22555730  0.66635403  1
  Zn  Zn70  1  0.32544616  0.29294583  0.32139240  1
  Zn  Zn71  1  0.89492894  0.76355277  0.92586100  1
  Zn  Zn72  1  0.89440493  0.62399796  0.49234386  1
  Zn  Zn73  1  0.93653283  0.52031630  0.66903854  1
  Zn  Zn74  1  0.43661200  0.19141306  0.43962186  1
  Zn  Zn75  1  0.77783544  0.77816822  0.27580096  1
  Zn  Zn76  1  0.54935620  0.78127206  0.52371713  1
  Zn  Zn77  1  0.41020483  0.68143400  0.41046210  1
  Zn  Zn78  1  0.67497307  0.15915505  0.71019449  1
  Zn  Zn79  1  0.54368589  0.30903336  0.51456623  1
  Zn  Zn80  1  0.06694563  0.05461270  0.31177962  1
  Zn  Zn81  1  0.04151481  0.37978139  0.64764319  1
  Zn  Zn82  1  0.18622578  0.93027194  0.44129972  1
  Zn  Zn83  1  0.74491230  0.09916393  0.10546269  1
  Zn  Zn84  1  0.62542154  0.83869663  0.01117925  1
  Zn  Zn85  1  0.80793005  0.27534695  0.31111852  1
  Zn  Zn86  1  0.26217878  0.83269461  0.32063165  1
  Zn  Zn87  1  0.67989225  0.91747478  0.44221444  1
  Zn  Zn88  1  0.66094065  0.52203415  0.36541622  1
  Zn  Zn89  1  0.44217416  0.94642914  0.19208527  1
  Zn  Zn90  1  0.91492786  0.19576526  0.89565024  1
  Zn  Zn91  1  0.68468818  0.68149658  0.68718457  1
  Zn  Zn92  1  0.61863502  0.00742405  0.81199275  1
  Zn  Zn93  1  0.04839750  0.27946889  0.01933972  1
  Zn  Zn94  1  0.48053967  0.70828938  0.97169435  1
  Zn  Zn95  1  0.19265013  0.41652877  0.97202247  1
  Zn  Zn96  1  0.94527503  0.93712877  0.67068881  1
  Zn  Zn97  1  0.06785974  0.85032959  0.06732113  1
  Zn  Zn98  1  0.62112818  0.74298896  0.15781016  1
  Zn  Zn99  1  0.92541461  0.08221565  0.44098579  1
  Zn  Zn100  1  0.64272349  0.49202296  0.89425680  1
  Zn  Zn101  1  0.09762406  0.08569547  0.80667169  1
  O  O102  1  0.08390028  0.12674591  0.04773981  1
  O  O103  1  0.12889379  0.11880925  0.61020549  1
  O  O104  1  0.09162418  0.60843925  0.05888993  1
  O  O105  1  0.09373509  0.64475477  0.62944822  1
  O  O106  1  0.65122413  0.16278979  0.16298296  1
  O  O107  1  0.63572753  0.09223189  0.62707190  1
  O  O108  1  0.63778533  0.62975826  0.11616585  1
  O  O109  1  0.61403091  0.61938436  0.62396174  1
  O  O110  1  0.37164664  0.37924819  0.37591512  1
  O  O111  1  0.42395205  0.37772997  0.88139358  1
  O  O112  1  0.34481949  0.87055641  0.39458068  1
  O  O113  1  0.31322828  0.79962742  0.85960408  1
  O  O114  1  0.90220815  0.31773507  0.41811470  1
  O  O115  1  0.95160241  0.38891904  0.82340287  1
  O  O116  1  0.94907473  0.75759157  0.37813987  1
  O  O117  1  0.86468763  0.84675140  0.85653158  1
  O  O118  1  0.25674427  0.01251919  0.39608456  1
  O  O119  1  0.30414380  -0.02884128  0.83560840  1
  O  O120  1  0.25280548  0.49280662  0.35257935  1
  O  O121  1  0.22849887  0.46285936  0.87484757  1
  O  O122  1  0.72747262  -0.00428685  0.37121405  1
  O  O123  1  0.68031852  -0.07756685  0.87124118  1
  O  O124  1  0.78542933  0.56278997  0.35307444  1
  O  O125  1  0.75407085  0.52671377  0.87255427  1
  O  O126  1  0.09381750  0.44888415  0.17339179  1
  O  O127  1  0.24306583  0.50110545  0.66723291  1
  O  O128  1  0.23689719  1.03066464  0.12872119  1
  O  O129  1  0.23875623  1.00231701  0.62419471  1
  O  O130  1  0.89093460  0.51866956  0.19543767  1
  O  O131  1  0.74069558  0.51104089  0.64945394  1
  O  O132  1  0.73292164  0.99250360  0.14363059  1
  O  O133  1  0.72128150  0.95978550  0.60871339  1
  O  O134  1  -0.04707673  0.41183672  0.29427007  1
  O  O135  1  0.01585967  0.35474281  0.81959553  1
  O  O136  1  0.01842440  0.90692291  0.26425786  1
  O  O137  1  0.01733990  0.88622384  0.74370854  1
  O  O138  1  0.48289915  0.36187404  0.26413945  1
  O  O139  1  0.51601571  0.37090364  0.71811307  1
  O  O140  1  0.48904712  0.88370214  0.26985691  1
  O  O141  1  0.50127339  0.84344021  0.73012645  1
  O  O142  1  0.47647199  0.11329833  0.25554819  1
  O  O143  1  0.51672344  0.20874173  0.80497843  1
  O  O144  1  0.51406343  0.69393714  0.17179314  1
  O  O145  1  0.50702696  0.63842587  0.73868110  1
  O  O146  1  0.97453219  0.09485060  0.25680150  1
  O  O147  1  0.99260533  0.12184115  0.74948024  1
  O  O148  1  1.01869629  0.63822610  0.29336183  1
  O  O149  1  0.97870336  0.64100540  0.78294268  1
  O  O150  1  0.38998318  0.26570423  0.01070459  1
  O  O151  1  0.36568131  0.26273906  0.49870289  1
  O  O152  1  0.39757169  0.77387039  0.02924264  1
  O  O153  1  0.35587397  0.74656421  0.48937215  1
  O  O154  1  0.82536152  0.26141171  -0.10558436  1
  O  O155  1  0.96141809  0.27799585  0.42748180  1
  O  O156  1  0.86170091  0.76526840  0.03203551  1
  O  O157  1  0.86692398  0.73751556  0.51479581  1
  O  O158  1  0.14195751  0.23478360  0.50227774  1
  O  O159  1  0.16083667  0.25808935  1.00457037  1
  O  O160  1  0.12656412  0.73311324  0.50589761  1
  O  O161  1  0.12982951  0.77736273  0.99915692  1
  O  O162  1  0.64298039  0.28280624  0.47276549  1
  O  O163  1  0.66064649  0.26118239  1.02326519  1
  O  O164  1  0.64596334  0.73070939  0.48750617  1
  O  O165  1  0.59078710  0.73054974  1.00705089  1
  O  O166  1  0.59042542  0.20336921  0.15090761  1
  O  O167  1  0.48675745  0.26072230  0.59717533  1
  O  O168  1  0.43173966  0.82109030  0.08141427  1
  O  O169  1  0.49335031  0.71435659  0.59743976  1
  O  O170  1  0.97847603  0.25323768  0.10667266  1
  O  O171  1  1.03459511  0.26814678  0.64747561  1
  O  O172  1  0.99913790  0.77433417  0.11645805  1
  O  O173  1  0.97528339  0.76502884  0.62392694  1
  O  O174  1  0.02450245  0.43463045  0.46404483  1
  O  O175  1  0.00673796  0.23906034  0.92086035  1
  O  O176  1  0.01439996  0.73857132  0.35828813  1
  O  O177  1  0.00655689  0.76034016  0.90491190  1
  O  O178  1  0.51079216  0.26984977  0.39779010  1
  O  O179  1  0.51334466  0.24495649  0.86917894  1
  O  O180  1  0.47793787  0.76133663  0.36771023  1
  O  O181  1  0.47921889  0.74522995  0.86817512  1
  O  O182  1  0.24538065  0.13065805  0.49114817  1
  O  O183  1  0.27868310  0.15147025  0.97961546  1
  O  O184  1  0.22136511  0.59538207  0.53925840  1
  O  O185  1  0.31825633  0.61832338  1.06655527  1
  O  O186  1  0.75270334  0.09659375  0.48709884  1
  O  O187  1  0.74033394  0.14241458  0.99648935  1
  O  O188  1  0.76544006  0.62646872  0.49837970  1
  O  O189  1  0.72759977  0.63699246  0.99254066  1
  O  O190  1  0.28347764  0.36039525  0.00778148  1
  O  O191  1  0.24979841  0.35944388  0.48570223  1
  O  O192  1  0.27199415  0.96965671  -0.00100776  1
  O  O193  1  0.24772794  0.86837728  0.51941950  1
  O  O194  1  0.74178930  0.34978088  -0.03175141  1
  O  O195  1  0.78977495  0.42016171  0.49326509  1
  O  O196  1  0.73510928  0.87818896  0.02845318  1
  O  O197  1  0.74995843  0.84959916  0.50533171  1
  O  O198  1  0.03949494  0.50102276  0.17527568  1
  O  O199  1  0.13622369  0.46394449  0.78177911  1
  O  O200  1  0.14845751  1.00218317  0.25909173  1
  O  O201  1  0.12393525  1.00351830  0.72795712  1
  O  O202  1  0.66458714  0.49274714  0.26063333  1
  O  O203  1  0.64639087  0.48376754  0.77652605  1
  O  O204  1  0.61767225  1.00251529  0.25704807  1
  O  O205  1  0.60484616  0.95603443  0.71683512  1
  O  O206  1  0.35926247  0.01042991  0.23352466  1
  O  O207  1  0.38410791  -0.00003451  0.70640336  1
  O  O208  1  0.36890377  0.48797672  0.24740560  1
  O  O209  1  0.32106987  0.53870613  0.80756693  1
  O  O210  1  0.85595528  -0.00375364  0.25533275  1
  O  O211  1  0.89045345  0.03633611  0.70706450  1
  O  O212  1  0.84382623  0.51475626  0.36557937  1
  O  O213  1  0.86421842  0.53794258  0.75517427  1
  O  O214  1  0.14143171  0.28836700  0.26545751  1
  O  O215  1  0.08953491  0.37719849  0.97352064  1
  O  O216  1  0.15725916  0.87453880  0.34970330  1
  O  O217  1  0.13773157  0.90763947  0.84766936  1
  O  O218  1  0.59611075  0.40505395  0.35913058  1
  O  O219  1  0.60238452  0.38947999  0.89050862  1
  O  O220  1  0.60458905  0.85597697  0.38150366  1
  O  O221  1  0.64125990  0.86043749  0.88856194  1
  O  O222  1  0.37631231  0.12244861  0.12673460  1
  O  O223  1  0.37978535  0.13817175  0.60295200  1
  O  O224  1  0.45295531  0.72474916  0.21255100  1
  O  O225  1  0.40240956  0.59400133  0.63562220  1
  O  O226  1  0.84482512  0.13522705  0.15390797  1
  O  O227  1  0.90818305  0.16819669  0.63312971  1
  O  O228  1  0.87309110  0.66749071  0.14533213  1
  O  O229  1  0.90133815  0.62042954  0.61314757  1
  O  O230  1  0.25794032  0.23591636  0.11972540  1
  O  O231  1  0.26253072  0.24132691  0.60429820  1
  O  O232  1  0.26704800  0.66759336  0.06249651  1
  O  O233  1  0.23770671  0.74955178  0.64680285  1
  O  O234  1  0.82402414  0.23871613  0.03319207  1
  O  O235  1  0.77001355  0.26958067  0.57056632  1
  O  O236  1  0.73770875  0.76315660  0.16016067  1
  O  O237  1  0.75889899  0.74713655  0.61175544  1
  O  O238  1  0.25570269  0.23210632  0.38988372  1
  O  O239  1  0.24175734  0.23563235  0.85168493  1
  O  O240  1  0.26727106  0.72180285  0.33566770  1
  O  O241  1  0.18641709  0.80293384  0.94804584  1
  O  O242  1  0.74073040  0.21552416  0.38058552  1
  O  O243  1  0.69178140  0.22298345  0.88305120  1
  O  O244  1  0.76638594  0.74473482  0.38366185  1
  O  O245  1  0.72648852  0.73983332  0.86179324  1
  O  O246  1  -0.06154184  0.11681768  -0.02517869  1
  O  O247  1  0.01820974  0.13577924  0.48773700  1
  O  O248  1  -0.04786679  0.53521026  -0.04825421  1
  O  O249  1  0.01793504  0.61032524  0.48773135  1
  O  O250  1  0.51306887  0.12483307  -0.00662758  1
  O  O251  1  0.49129997  0.10160129  0.48755553  1
  O  O252  1  0.50585261  0.60476285  0.01093108  1
  O  O253  1  0.48186043  0.60757618  0.46307720  1
  O  O254  1  0.47781665  0.40023407  0.48736524  1
  O  O255  1  0.50893612  0.38035769  1.04191715  1
  O  O256  1  0.47211793  0.86058107  0.48490817  1
  O  O257  1  0.53806937  0.91838458  0.98531016  1
  O  O258  1  1.05179736  0.38171287  0.50835855  1
  O  O259  1  0.92647031  0.42788205  1.06651301  1
  O  O260  1  1.02145307  0.86925912  0.48747013  1
  O  O261  1  1.02266543  0.92885253  0.98622618  1
  O  O262  1  0.46982439  0.48817890  0.37300702  1
  O  O263  1  0.46973429  0.43097298  0.86467018  1
  O  O264  1  0.49845586  0.97599431  0.39335197  1
  O  O265  1  0.54612184  1.02270770  0.89745030  1
  O  O266  1  1.08142285  0.46282957  0.40293609  1
  O  O267  1  0.94736297  0.39494609  1.00719212  1
  O  O268  1  1.01033875  1.00556403  0.39792018  1
  O  O269  1  1.02030512  1.03533818  0.88143306  1
  O  O270  1  -0.05888942  0.01288025  0.06965123  1
  O  O271  1  0.02882593  -0.01600846  0.60651002  1
  O  O272  1  0.10975372  0.54790720  0.02161815  1
  O  O273  1  0.04246554  0.48998018  0.65280477  1
  O  O274  1  0.50416252  0.00214364  0.09962024  1
  O  O275  1  0.50989607  -0.01865508  0.60214450  1
  O  O276  1  0.50936752  0.50980322  0.13944100  1
  O  O277  1  0.51413864  0.51814190  0.57983061  1
  O  O278  1  0.18971854  0.34148059  0.27221587  1
  O  O279  1  0.28121096  0.40304500  0.74655447  1
  O  O280  1  0.25368898  0.89877808  0.22594827  1
  O  O281  1  0.24739558  0.89135551  0.72405337  1
  O  O282  1  0.75979237  0.37364734  0.29815023  1
  O  O283  1  0.78087052  0.40227351  0.76427132  1
  O  O284  1  0.73522722  0.88833427  0.25106404  1
  O  O285  1  0.72030110  0.85320203  0.71575062  1
  O  O286  1  0.26487299  0.10941010  0.27058410  1
  O  O287  1  0.26819571  0.10076119  0.75700641  1
  O  O288  1  0.20132963  0.61383580  0.24406675  1
  O  O289  1  0.20450754  0.59361545  0.75954766  1
  O  O290  1  0.74911683  0.09539813  0.26615908  1
  O  O291  1  0.78911024  0.14762846  0.71219691  1
  O  O292  1  0.82476602  0.49570015  0.18238287  1
  O  O293  1  0.73892533  0.62153836  0.76799124  1
  O  O294  1  0.36835129  0.12340923  0.38146748  1
  O  O295  1  0.37291702  0.13958231  0.86544448  1
  O  O296  1  0.35055432  0.60007279  0.35883048  1
  O  O297  1  0.31430457  0.73734796  0.89473653  1
  O  O298  1  0.85162446  0.11225342  0.36656208  1
  O  O299  1  0.86510057  0.11698814  0.83313908  1
  O  O300  1  0.90550295  0.54573710  0.40680621  1
  O  O301  1  0.85245601  0.65798345  0.88142536  1
  O  O302  1  0.07792253  0.38252395  0.14094096  1
  O  O303  1  0.14371107  0.33939752  0.66001758  1
  O  O304  1  0.11731610  0.91197499  0.14148669  1
  O  O305  1  0.13672844  0.87255807  0.63728031  1
  O  O306  1  0.65513249  0.36534577  0.16952591  1
  O  O307  1  0.77397981  0.31040074  0.62971248  1
  O  O308  1  0.62455486  0.85362286  0.12687402  1
  O  O309  1  0.61250961  0.84288858  0.60538722  1
  O  O310  1  0.00616879  0.36477807  0.28647268  1
  O  O311  1  0.12430752  0.18801369  0.77082529  1
  O  O312  1  0.12480853  0.78594838  0.22668552  1
  O  O313  1  0.12865132  0.77028435  0.78012285  1
  O  O314  1  0.63129482  0.28013863  0.29652658  1
  O  O315  1  0.61448349  0.24897405  0.69771478  1
  O  O316  1  0.63422864  0.71185360  0.29445016  1
  O  O317  1  0.60906876  0.75115015  0.74499548  1
  O  O318  1  0.36536062  0.22731181  0.24630314  1
  O  O319  1  0.40196008  0.24955083  0.71307777  1
  O  O320  1  0.38699623  0.69313576  0.19950513  1
  O  O321  1  0.38617257  0.73713006  0.74552158  1
  O  O322  1  0.89178856  0.22301830  0.26093858  1
  O  O323  1  0.90370052  0.23925060  0.75981120  1
  O  O324  1  0.88749077  0.78823910  0.24133292  1
  O  O325  1  0.85618702  0.72601511  0.72606895  1
  O  O326  1  0.34317172  0.48407021  0.50068916  1
  O  O327  1  0.40386488  0.47461274  1.01815901  1
  O  O328  1  0.38449967  0.98403194  0.50961506  1
  O  O329  1  0.41993209  1.01767468  0.98938260  1
  O  O330  1  0.85754702  0.42724352  0.51580661  1
  O  O331  1  0.92909794  0.55453100  1.01580692  1
  O  O332  1  0.91357253  0.99216020  0.51343530  1
  O  O333  1  0.89244713  0.97981962  0.93596305  1
  O  O334  1  0.07659353  0.06108926  0.01362105  1
  O  O335  1  0.12390793  0.01205405  0.50461538  1
  O  O336  1  0.18272205  0.51657615  0.03552278  1
  O  O337  1  0.16740030  0.53321516  0.52739118  1
  O  O338  1  0.62188190  0.03958159  0.02996796  1
  O  O339  1  0.60931079  -0.01389801  0.50404360  1
  O  O340  1  0.61182532  0.51041810  0.00824193  1
  O  O341  1  0.62211341  0.52437812  0.46819280  1
  O  O342  1  0.37573461  0.36335071  0.13787038  1
  O  O343  1  0.36685925  0.36678748  0.60121206  1
  O  O344  1  0.38347048  0.86614318  0.12174561  1
  O  O345  1  0.35703744  0.85581072  0.60917844  1
  O  O346  1  0.84054008  0.32017477  0.15453195  1
  O  O347  1  0.93035313  0.40057887  0.65425132  1
  O  O348  1  0.84878640  0.87321550  0.13358220  1
  O  O349  1  0.85763770  0.87567852  0.63443534  1
  O  O350  1  0.13761098  0.12224556  0.38416781  1
  O  O351  1  0.18152012  0.07666627  0.88315188  1
  O  O352  1  0.16172060  0.61871294  0.39741953  1
  O  O353  1  0.12642143  0.65682050  0.89735406  1
  O  O354  1  0.62395335  0.12762461  0.38215275  1
  O  O355  1  0.66573540  0.10379478  0.80449620  1
  O  O356  1  0.60785892  0.65771674  0.33569012  1
  O  O357  1  0.62583213  0.61495031  0.89180160  1
