# generated using pymatgen
data_V51Zn51O256
_symmetry_space_group_name_H-M   'P 1'
_cell_length_a   17.43630815
_cell_length_b   17.90481798
_cell_length_c   18.02240408
_cell_angle_alpha   91.38389372
_cell_angle_beta   89.20182109
_cell_angle_gamma   91.23247582
_symmetry_Int_Tables_number   1
_chemical_formula_structural   V51Zn51O256
_chemical_formula_sum   'V51 Zn51 O256'
_cell_volume   5623.03634870
_cell_formula_units_Z   1
loop_
 _symmetry_equiv_pos_site_id
 _symmetry_equiv_pos_as_xyz
  1  'x, y, z'
loop_
 _atom_site_type_symbol
 _atom_site_label
 _atom_site_symmetry_multiplicity
 _atom_site_fract_x
 _atom_site_fract_y
 _atom_site_fract_z
 _atom_site_occupancy
  V  V0  1  0.86135018  0.71240653  0.62157654  1
  V  V1  1  0.72339425  0.48057834  0.30188418  1
  V  V2  1  0.90560610  0.63373529  0.28286735  1
  V  V3  1  0.34115986  0.23161150  0.65734424  1
  V  V4  1  0.36151488  0.08740030  0.18455033  1
  V  V5  1  0.53259150  0.87019925  0.85970140  1
  V  V6  1  0.24704349  0.13389903  0.33228536  1
  V  V7  1  0.78454755  0.44151474  0.14258381  1
  V  V8  1  0.03143123  0.64658473  0.12815810  1
  V  V9  1  0.65979011  0.64550873  0.34429498  1
  V  V10  1  0.10228041  0.84057312  0.76492198  1
  V  V11  1  0.12287249  0.18597983  -0.01114457  1
  V  V12  1  0.46031749  0.47954162  0.00263860  1
  V  V13  1  0.35162122  0.52307257  0.34940163  1
  V  V14  1  0.29007067  0.26814403  -0.04730093  1
  V  V15  1  0.88730262  0.13190578  0.29698562  1
  V  V16  1  0.02414803  -0.05859959  0.47789078  1
  V  V17  1  0.27480334  0.92751485  0.59773776  1
  V  V18  1  0.47562420  0.76044562  0.25498576  1
  V  V19  1  0.86014071  0.34993817  0.49544474  1
  V  V20  1  0.73594546  0.30769610  0.61205617  1
  V  V21  1  0.36967327  0.91220389  -0.06350811  1
  V  V22  1  -0.08041268  0.25970604  0.77247740  1
  V  V23  1  0.10217372  -0.02956649  0.62236963  1
  V  V24  1  0.75442636  0.49205701  0.80821166  1
  V  V25  1  0.65918631  0.21714092  0.92237703  1
  V  V26  1  0.37372621  0.30879588  0.53154310  1
  V  V27  1  0.04443580  0.39079542  0.40057604  1
  V  V28  1  0.72748441  0.83009604  0.60128514  1
  V  V29  1  0.13375304  0.50384688  0.16012215  1
  V  V30  1  0.21672958  0.11589593  0.85408075  1
  V  V31  1  -0.02431482  0.11934169  0.66551397  1
  V  V32  1  0.24968613  0.79019738  -0.00992957  1
  V  V33  1  0.14315593  0.62222205  0.49953679  1
  V  V34  1  0.46830769  0.24673434  0.21616295  1
  V  V35  1  0.13061974  0.26955867  0.83936149  1
  V  V36  1  0.14797072  0.57979768  -0.04690747  1
  V  V37  1  0.51901284  0.94758762  0.41696761  1
  V  V38  1  0.37498702  0.74446361  0.60457371  1
  V  V39  1  0.89810511  0.74137189  0.11918749  1
  V  V40  1  -0.04473350  0.86370720  0.85287855  1
  V  V41  1  0.11005194  0.19823987  0.54886086  1
  V  V42  1  0.79926407  0.07897024  0.95497556  1
  V  V43  1  0.82830167  0.88051799  0.43305507  1
  V  V44  1  0.30784655  0.62161483  0.88576462  1
  V  V45  1  0.37731642  0.08750228  0.76883469  1
  V  V46  1  0.43856130  0.64365857  0.10466176  1
  V  V47  1  0.58031180  0.12874140  0.44332673  1
  V  V48  1  0.61260483  0.24708370  0.35080522  1
  V  V49  1  0.75780917  -0.01687867  0.70246866  1
  V  V50  1  0.66464553  0.81705632  0.11632793  1
  Zn  Zn51  1  0.05568655  0.54805554  0.32634491  1
  Zn  Zn52  1  0.85804263  0.73201569  0.93186767  1
  Zn  Zn53  1  0.65064875  0.33918555  0.21906522  1
  Zn  Zn54  1  0.18625674  0.92076325  0.88179718  1
  Zn  Zn55  1  0.21637979  1.03978492  0.49083334  1
  Zn  Zn56  1  0.83310180  0.70367663  0.44077902  1
  Zn  Zn57  1  0.80749311  0.87439094  0.23248571  1
  Zn  Zn58  1  0.45997982  0.82814602  0.09129770  1
  Zn  Zn59  1  0.48388045  0.27895862  1.01589440  1
  Zn  Zn60  1  0.39735706  0.90730782  0.74627232  1
  Zn  Zn61  1  0.89047229  0.43002731  0.68008156  1
  Zn  Zn62  1  0.19793468  0.76379536  0.64360349  1
  Zn  Zn63  1  0.29029977  0.78050148  0.79579272  1
  Zn  Zn64  1  -0.01111387  0.58539443  0.63458273  1
  Zn  Zn65  1  0.79308099  0.33250610  0.87395885  1
  Zn  Zn66  1  0.23127286  0.43668793  0.88514798  1
  Zn  Zn67  1  0.73509750  0.70043078  0.19230648  1
  Zn  Zn68  1  0.70035426  0.90915935  0.95550448  1
  Zn  Zn69  1  0.66390990  0.82461940  0.33219653  1
  Zn  Zn70  1  0.74615458  0.17669161  0.75892110  1
  Zn  Zn71  1  0.96616598  0.23861218  0.44683556  1
  Zn  Zn72  1  0.69030989  0.97966407  0.43913822  1
  Zn  Zn73  1  0.79115329  0.79109976  0.76705854  1
  Zn  Zn74  1  0.06780956  0.10665515  0.37922720  1
  Zn  Zn75  1  0.22779062  0.11058338  0.65485559  1
  Zn  Zn76  1  0.79943775  0.30677613  0.32350853  1
  Zn  Zn77  1  0.31615487  0.30889453  0.79912239  1
  Zn  Zn78  1  0.84684032  0.54285485  0.53545636  1
  Zn  Zn79  1  0.23283316  0.42533034  0.47533507  1
  Zn  Zn80  1  0.93043105  0.88512571  0.66708900  1
  Zn  Zn81  1  0.86102584  0.03711939  0.13258864  1
  Zn  Zn82  1  0.90711924  0.44392868  0.27857817  1
  Zn  Zn83  1  0.85274723  0.01185210  0.53673018  1
  Zn  Zn84  1  0.56705986  0.29952213  0.52215021  1
  Zn  Zn85  1  0.33067543  0.57215608  0.53427391  1
  Zn  Zn86  1  0.43176546  0.72863037  0.93922550  1
  Zn  Zn87  1  0.85593250  0.57844797  0.03103312  1
  Zn  Zn88  1  0.15970037  0.31857007  0.09126869  1
  Zn  Zn89  1  0.05824209  0.73433970  -0.00135441  1
  Zn  Zn90  1  0.56738869  0.55948720  0.85869942  1
  Zn  Zn91  1  -0.11895486  0.03318968  0.80020457  1
  Zn  Zn92  1  0.41329072  0.91968954  0.26581228  1
  Zn  Zn93  1  0.35254381  0.11349127  -0.01897123  1
  Zn  Zn94  1  0.23173391  0.66806901  0.11192334  1
  Zn  Zn95  1  0.97048693  0.16282105  0.91118569  1
  Zn  Zn96  1  0.41508085  0.79927616  0.42827751  1
  Zn  Zn97  1  0.28135351  0.53223332  0.03889605  1
  Zn  Zn98  1  0.53003226  0.83298046  0.56881220  1
  Zn  Zn99  1  0.03422923  0.36029737  0.56934690  1
  Zn  Zn100  1  0.55810061  0.00678835  0.75462617  1
  Zn  Zn101  1  0.33498746  0.31176647  0.35485050  1
  O  O102  1  0.13266138  0.21560840  0.08142992  1
  O  O103  1  0.05282804  0.18404376  0.62650948  1
  O  O104  1  0.12531699  0.68106618  0.14017064  1
  O  O105  1  0.16449436  0.67252214  0.58386292  1
  O  O106  1  0.55933691  -0.01249468  0.14364802  1
  O  O107  1  0.81722969  0.14000813  0.53557456  1
  O  O108  1  0.65064924  0.56476642  -0.00446826  1
  O  O109  1  0.56733910  0.67022807  0.52976137  1
  O  O110  1  0.35595381  0.42024790  0.35011826  1
  O  O111  1  0.39711435  0.43064965  0.74663533  1
  O  O112  1  0.44273835  0.90209394  0.36563833  1
  O  O113  1  0.35902117  0.86569251  0.84459499  1
  O  O114  1  0.87194622  0.31956982  0.40428960  1
  O  O115  1  0.89299813  0.33265338  0.93555410  1
  O  O116  1  0.78117375  0.87462029  0.34396104  1
  O  O117  1  0.86097218  0.80612756  0.85109226  1
  O  O118  1  0.25088277  0.06110698  0.39242059  1
  O  O119  1  0.19806802  0.02784277  0.88781731  1
  O  O120  1  0.25989692  0.49614610  0.39576658  1
  O  O121  1  0.28966022  0.52986648  0.86033921  1
  O  O122  1  0.79620276  -0.01143397  0.44607392  1
  O  O123  1  0.76607276  -0.00825645  0.92859939  1
  O  O124  1  0.71142961  0.55628320  0.36620688  1
  O  O125  1  0.79925718  0.44299647  0.88583495  1
  O  O126  1  0.21253142  0.55239528  0.12011979  1
  O  O127  1  0.29094019  0.47594252  0.55260663  1
  O  O128  1  0.20973617  0.93156140  0.13328943  1
  O  O129  1  0.21476783  0.99935279  0.63975195  1
  O  O130  1  0.73787511  0.50654536  0.20690250  1
  O  O131  1  0.72613369  0.51977380  0.72184195  1
  O  O132  1  0.80822696  0.97116928  0.19024432  1
  O  O133  1  0.76545707  0.98846509  0.60844779  1
  O  O134  1  0.00852137  0.31076618  0.20157540  1
  O  O135  1  -0.07589505  0.35146207  0.75169236  1
  O  O136  1  0.10740144  1.06391060  0.17511382  1
  O  O137  1  -0.01549814  0.84191821  0.75537528  1
  O  O138  1  0.56254948  0.27170078  0.25077631  1
  O  O139  1  0.53412609  0.36303576  0.79283668  1
  O  O140  1  0.65349881  0.99320029  0.24140984  1
  O  O141  1  0.50867914  0.90583480  0.76873787  1
  O  O142  1  0.43536271  0.14928037  0.21802560  1
  O  O143  1  0.47614873  0.07594321  0.76603793  1
  O  O144  1  0.46936300  0.67551494  0.19464624  1
  O  O145  1  0.51746313  0.55667798  0.74990243  1
  O  O146  1  0.99243909  0.14332842  0.30793776  1
  O  O147  1  0.96860114  0.08313885  0.75143036  1
  O  O148  1  0.99010108  0.66345828  0.21498808  1
  O  O149  1  1.04600335  0.50065884  0.67850734  1
  O  O150  1  0.38004903  0.23124284  -0.02524579  1
  O  O151  1  0.37359063  0.21323103  0.55799119  1
  O  O152  1  0.31549899  0.74306284  -0.06628773  1
  O  O153  1  0.35573928  0.78155028  0.51725024  1
  O  O154  1  0.88532165  0.29092230  -0.00256487  1
  O  O155  1  0.93545029  0.30002133  0.54058736  1
  O  O156  1  0.84564317  0.75398980  0.04200339  1
  O  O157  1  0.88231051  0.80201856  0.43091647  1
  O  O158  1  0.11966549  0.29476819  0.54976551  1
  O  O159  1  0.09960387  0.27097630  0.95259840  1
  O  O160  1  0.11743577  0.70453214  0.45645023  1
  O  O161  1  0.15831130  0.76645225  0.96625820  1
  O  O162  1  0.66411238  0.18037906  0.40507490  1
  O  O163  1  0.63420621  0.09961774  1.09785318  1
  O  O164  1  0.52127606  0.77295090  0.46995829  1
  O  O165  1  0.69597052  0.61851289  0.99252017  1
  O  O166  1  0.46651063  0.26981931  0.12563694  1
  O  O167  1  0.54776166  0.37842711  0.72772885  1
  O  O168  1  0.45597128  0.71930470  0.04655223  1
  O  O169  1  0.46325576  0.77786222  0.63341183  1
  O  O170  1  0.98280108  0.28228443  0.14388707  1
  O  O171  1  0.92107703  0.20511207  0.68842029  1
  O  O172  1  1.00380297  0.75034622  0.09555148  1
  O  O173  1  0.95445323  0.68481850  0.63522721  1
  O  O174  1  0.03068884  0.29835163  0.38108400  1
  O  O175  1  -0.00822039  0.23946005  0.83692508  1
  O  O176  1  -0.02395737  0.61677245  0.34681823  1
  O  O177  1  -0.02452918  0.76241793  0.93183780  1
  O  O178  1  0.74485631  0.19794708  0.13982210  1
  O  O179  1  0.57010797  0.23129008  0.96516674  1
  O  O180  1  0.41507226  0.75385604  0.32963286  1
  O  O181  1  0.50170230  0.78017294  0.87432678  1
  O  O182  1  0.19001295  0.13645765  0.55113779  1
  O  O183  1  0.23353878  0.16641546  0.96661042  1
  O  O184  1  0.24592207  0.63439239  0.48892322  1
  O  O185  1  0.24395994  0.62158226  0.97574747  1
  O  O186  1  0.74763795  0.14862813  0.53465000  1
  O  O187  1  0.83726444  0.07637931  1.04160936  1
  O  O188  1  0.65192660  0.53279138  0.54731243  1
  O  O189  1  0.84405603  0.62809344  0.94048766  1
  O  O190  1  0.31480403  0.35059218  -0.09791842  1
  O  O191  1  0.30473110  0.33570898  0.46437980  1
  O  O192  1  0.25780662  0.88699644  -0.03990765  1
  O  O193  1  0.29826744  0.96749080  0.51477729  1
  O  O194  1  0.80733032  0.48968098  0.06255862  1
  O  O195  1  0.77707453  0.29427368  0.51917992  1
  O  O196  1  0.71268225  0.87132367  0.05041281  1
  O  O197  1  0.76127687  0.85664376  0.50308710  1
  O  O198  1  0.13232092  0.52686699  0.25253646  1
  O  O199  1  0.20256282  0.55894325  0.72368584  1
  O  O200  1  0.10578701  1.01617056  0.22283560  1
  O  O201  1  0.06970790  1.05319463  0.65350869  1
  O  O202  1  0.64323477  0.42703850  0.29691107  1
  O  O203  1  0.65642949  0.49963313  0.83537671  1
  O  O204  1  0.62994497  1.05439829  0.26194355  1
  O  O205  1  0.65956683  0.98741469  0.72801483  1
  O  O206  1  0.38579490  -0.00287528  0.20476177  1
  O  O207  1  0.34034520  0.00107914  0.76742413  1
  O  O208  1  0.30158312  0.53373170  0.27097589  1
  O  O209  1  0.33039376  0.44602120  0.72581365  1
  O  O210  1  0.88871464  0.03495351  0.30427155  1
  O  O211  1  0.85440655  -0.05221069  0.72727537  1
  O  O212  1  0.87270215  0.54588847  0.26482935  1
  O  O213  1  0.84597795  0.49914054  0.76485554  1
  O  O214  1  0.13988377  0.40434392  0.42443044  1
  O  O215  1  0.15284844  0.36376851  0.85122628  1
  O  O216  1  0.16933600  0.91987850  0.33789590  1
  O  O217  1  0.06900101  0.86800029  0.85980635  1
  O  O218  1  0.59603312  0.31477105  0.41455266  1
  O  O219  1  0.71356661  0.29542576  0.93956663  1
  O  O220  1  0.61329625  0.91835173  0.38657356  1
  O  O221  1  0.62819533  0.88459763  0.88134259  1
  O  O222  1  0.34678969  0.09890638  0.09286395  1
  O  O223  1  0.34868580  0.12471592  0.67952231  1
  O  O224  1  0.34202870  0.62724346  0.10739898  1
  O  O225  1  0.38253557  0.64827003  0.58739378  1
  O  O226  1  0.90197893  0.12132305  0.19995273  1
  O  O227  1  0.92274950  0.07123151  0.60092679  1
  O  O228  1  0.93596338  0.63230213  0.08054838  1
  O  O229  1  0.83962391  0.65018288  0.53233275  1
  O  O230  1  0.25249015  0.31109135  0.02912114  1
  O  O231  1  0.24608094  0.23015102  0.66883846  1
  O  O232  1  0.26212363  0.76914897  0.08139665  1
  O  O233  1  0.20640672  0.85546666  0.58920443  1
  O  O234  1  0.86647971  0.40818149  0.18122227  1
  O  O235  1  0.73712239  0.23059147  0.66610704  1
  O  O236  1  0.67860114  0.72475233  0.09760063  1
  O  O237  1  0.73005280  0.73789827  0.59740467  1
  O  O238  1  0.21260319  0.31624082  0.30040845  1
  O  O239  1  0.23718687  0.24238211  0.85173847  1
  O  O240  1  0.22865948  0.76613417  0.33548684  1
  O  O241  1  0.28674448  0.67375923  0.80985727  1
  O  O242  1  0.69980838  0.27486338  0.29611381  1
  O  O243  1  0.72121687  0.14186105  0.95831422  1
  O  O244  1  0.69184096  0.73232263  0.38255251  1
  O  O245  1  0.70799147  0.73975784  0.84303986  1
  O  O246  1  0.04184350  0.12829596  -0.01435517  1
  O  O247  1  0.05256787  0.16953528  0.47346776  1
  O  O248  1  0.07659586  0.62468613  0.00713360  1
  O  O249  1  0.05157895  0.60341565  0.53726263  1
  O  O250  1  0.47917765  0.09368460  0.01157407  1
  O  O251  1  0.55186681  0.18547206  0.51458125  1
  O  O252  1  0.48159021  0.56084806  0.07052787  1
  O  O253  1  0.52226743  0.69004800  0.48092420  1
  O  O254  1  0.46484141  0.33991294  0.51261112  1
  O  O255  1  0.48856304  0.39177256  1.02276473  1
  O  O256  1  0.50414787  0.91877642  0.50528960  1
  O  O257  1  0.48015461  0.92680078  0.91902747  1
  O  O258  1  0.99658700  0.41644560  0.48203703  1
  O  O259  1  0.93159473  0.23502608  1.00293235  1
  O  O260  1  1.05092972  0.86426256  0.43812691  1
  O  O261  1  0.96394932  0.83992174  0.95366075  1
  O  O262  1  0.43978854  0.50913373  0.30916284  1
  O  O263  1  0.50366606  0.50375781  0.92063673  1
  O  O264  1  0.51152371  1.04333666  0.41091808  1
  O  O265  1  0.54525486  1.08802092  0.90423582  1
  O  O266  1  1.00539015  0.44687714  0.32695335  1
  O  O267  1  1.01465021  0.46252861  0.84683065  1
  O  O268  1  1.04048628  1.00852889  0.40998096  1
  O  O269  1  0.93079786  0.95240139  0.86237261  1
  O  O270  1  -0.00008278  -0.05689868  0.16035757  1
  O  O271  1  0.01446441  -0.07833896  0.59442979  1
  O  O272  1  0.04879027  0.54383524  0.12920367  1
  O  O273  1  -0.10375912  0.52647667  0.62847489  1
  O  O274  1  0.53996749  0.05060412  0.16274211  1
  O  O275  1  0.49667785  0.06611534  0.60555899  1
  O  O276  1  0.56460827  0.51827684  0.19120508  1
  O  O277  1  0.54021950  0.59950842  0.69955736  1
  O  O278  1  0.32164788  0.39292053  0.15551997  1
  O  O279  1  0.27050137  0.40296384  0.75500372  1
  O  O280  1  0.21848127  0.92003235  0.28886360  1
  O  O281  1  0.20103100  0.84576222  0.80199609  1
  O  O282  1  0.79793394  0.41812493  0.32082594  1
  O  O283  1  0.73513853  0.39092603  0.79384676  1
  O  O284  1  0.70595615  0.82245848  0.21073212  1
  O  O285  1  0.74377079  0.85959471  0.69808322  1
  O  O286  1  0.27650207  0.10644337  0.23557863  1
  O  O287  1  0.20999474  0.10747526  0.76114342  1
  O  O288  1  0.19786267  0.72395445  0.28841020  1
  O  O289  1  0.26242095  0.57491435  0.68974564  1
  O  O290  1  0.79048593  0.11825697  0.31321638  1
  O  O291  1  0.78488448  0.07394955  0.74451005  1
  O  O292  1  0.66158680  0.64757583  0.24862229  1
  O  O293  1  0.76542603  0.57171266  0.86168234  1
  O  O294  1  0.30217431  0.20850273  0.36143928  1
  O  O295  1  0.33349492  0.12635089  0.85291844  1
  O  O296  1  0.35593356  0.61940406  0.36011818  1
  O  O297  1  0.40478101  0.62639639  0.90362669  1
  O  O298  1  0.90652035  0.15491006  0.39574181  1
  O  O299  1  0.87492739  0.10349940  0.89100733  1
  O  O300  1  0.83739461  0.67699997  0.33882122  1
  O  O301  1  0.98983174  0.51274896  0.88776701  1
  O  O302  1  0.13794821  0.40840705  0.14043272  1
  O  O303  1  0.01237873  0.43534120  0.65760798  1
  O  O304  1  0.09789726  0.84082038  0.21394193  1
  O  O305  1  0.10999461  0.91718919  0.70796054  1
  O  O306  1  0.71356397  0.37114216  0.13685079  1
  O  O307  1  0.64294429  0.33327901  0.59434600  1
  O  O308  1  0.56874635  0.83555355  0.10821651  1
  O  O309  1  0.63386682  0.85386543  0.59232834  1
  O  O310  1  0.16995261  0.36761858  0.28444500  1
  O  O311  1  0.11563447  0.25841061  0.75050335  1
  O  O312  1  0.05791881  0.83735981  0.27032792  1
  O  O313  1  0.11347542  0.75818015  0.71516027  1
  O  O314  1  0.79602882  0.22843730  0.10305232  1
  O  O315  1  0.65978935  0.20120118  0.82785789  1
  O  O316  1  0.56220487  0.79046979  0.28373607  1
  O  O317  1  0.65413746  0.69303086  0.81772498  1
  O  O318  1  0.40293162  0.29585850  0.26609983  1
  O  O319  1  0.38873400  0.25698115  0.73944646  1
  O  O320  1  0.43411970  0.83266188  0.20060222  1
  O  O321  1  0.30363655  0.75576790  0.67740860  1
  O  O322  1  0.86396219  0.22618412  0.27776308  1
  O  O323  1  0.82718282  0.24540492  0.81242994  1
  O  O324  1  0.84280940  0.68056294  0.18512087  1
  O  O325  1  0.82040833  0.69998964  0.70763591  1
  O  O326  1  0.38674550  0.53525027  0.44729822  1
  O  O327  1  0.36163247  0.47692372  0.99874314  1
  O  O328  1  0.43925789  1.04948453  0.57027058  1
  O  O329  1  0.35680227  1.00466143  0.94811842  1
  O  O330  1  0.83687790  0.44360839  0.49726864  1
  O  O331  1  0.96591128  0.42498296  1.04224125  1
  O  O332  1  0.91698476  0.93418149  0.48038083  1
  O  O333  1  0.97905930  0.99344883  1.11897376  1
  O  O334  1  0.15166241  -0.07264340  0.09538536  1
  O  O335  1  0.12221696  -0.01991086  0.52347715  1
  O  O336  1  0.16998185  0.48576878  -0.03140361  1
  O  O337  1  0.15913504  0.52752047  0.52964883  1
  O  O338  1  0.53097644  0.06117563  -0.03126008  1
  O  O339  1  0.63615051  0.06047027  0.48252023  1
  O  O340  1  0.54518531  0.45378477  0.17425178  1
  O  O341  1  0.60178048  0.50564166  0.58759390  1
  O  O342  1  0.39032133  0.41228039  0.15186437  1
  O  O343  1  0.34638598  0.33563076  0.61991514  1
  O  O344  1  0.39263476  0.86365893  0.01604259  1
  O  O345  1  0.35633349  0.90621903  0.64688784  1
  O  O346  1  1.02107789  0.39348991  0.01414507  1
  O  O347  1  0.80049292  0.37555165  0.64295283  1
  O  O348  1  0.88720946  0.82133178  0.17458442  1
  O  O349  1  0.86740977  0.81011890  0.61121699  1
  O  O350  1  0.15183212  0.15567976  0.32905064  1
  O  O351  1  0.12459291  0.15860943  0.87132205  1
  O  O352  1  0.12989712  0.58555908  0.40813473  1
  O  O353  1  0.13389914  0.59296151  0.86488606  1
  O  O354  1  0.53557129  0.17824891  0.35971088  1
  O  O355  1  0.65578677  0.03653924  1.08161151  1
  O  O356  1  0.56927411  0.63231446  0.36746286  1
  O  O357  1  0.60676532  0.66361549  0.87085828  1
