# generated using pymatgen
data_V51Zn51O256
_symmetry_space_group_name_H-M   'P 1'
_cell_length_a   17.66786280
_cell_length_b   17.45536537
_cell_length_c   17.47724181
_cell_angle_alpha   91.33774496
_cell_angle_beta   90.74995150
_cell_angle_gamma   88.83620264
_symmetry_Int_Tables_number   1
_chemical_formula_structural   V51Zn51O256
_chemical_formula_sum   'V51 Zn51 O256'
_cell_volume   5386.95422394
_cell_formula_units_Z   1
loop_
 _symmetry_equiv_pos_site_id
 _symmetry_equiv_pos_as_xyz
  1  'x, y, z'
loop_
 _atom_site_type_symbol
 _atom_site_label
 _atom_site_symmetry_multiplicity
 _atom_site_fract_x
 _atom_site_fract_y
 _atom_site_fract_z
 _atom_site_occupancy
  V  V0  1  0.60073704  0.38520211  0.30829685  1
  V  V1  1  0.08831736  0.54395532  0.08316763  1
  V  V2  1  0.10630310  0.00740871  0.63565625  1
  V  V3  1  0.50269865  0.11424639  0.13796265  1
  V  V4  1  0.15985997  0.87371187  0.77784449  1
  V  V5  1  0.38823238  0.68987421  0.57548195  1
  V  V6  1  0.76163537  0.22043226  0.52576001  1
  V  V7  1  0.00069092  0.76904775  0.77275815  1
  V  V8  1  0.36996622  0.52397985  0.82281694  1
  V  V9  1  0.41715495  0.08311945  0.75292975  1
  V  V10  1  0.25317611  0.74442529  -0.02004301  1
  V  V11  1  0.07785198  0.19897582  0.05057795  1
  V  V12  1  0.84363837  0.66133202  0.71203903  1
  V  V13  1  0.38668605  0.77654502  0.13044253  1
  V  V14  1  0.05470256  0.67706400  0.60815538  1
  V  V15  1  0.61851129  0.69714264  0.45377024  1
  V  V16  1  0.38320716  0.25411580  0.64615790  1
  V  V17  1  0.63997100  0.21361144  0.39261750  1
  V  V18  1  0.38833650  0.90486085  0.02134552  1
  V  V19  1  0.32175044  0.65617663  0.22626555  1
  V  V20  1  0.15526783  0.91902443  0.26243645  1
  V  V21  1  0.14804037  0.02555645  0.11849957  1
  V  V22  1  0.70356026  0.37299386  0.15168598  1
  V  V23  1  0.09962665  0.46713713  0.60715738  1
  V  V24  1  0.25923542  0.91767417  0.60306714  1
  V  V25  1  0.43697367  0.50877670  0.00022580  1
  V  V26  1  0.10886021  0.29051519  0.88049913  1
  V  V27  1  0.46948341  0.75497156  0.70884331  1
  V  V28  1  0.59506512  0.47478183  0.58564155  1
  V  V29  1  0.52607389  0.00329200  0.49814253  1
  V  V30  1  0.46642766  0.24855491  0.27272662  1
  V  V31  1  0.10324288  0.27946222  0.29293996  1
  V  V32  1  0.78213130  0.44191460  0.33587114  1
  V  V33  1  0.22732378  0.71512324  0.46785543  1
  V  V34  1  0.51377301  0.12663702  0.61635398  1
  V  V35  1  0.92256568  0.01852696  0.90403631  1
  V  V36  1  0.87471845  0.24737034  0.66359556  1
  V  V37  1  0.22519869  0.47781031  0.74081135  1
  V  V38  1  0.30568660  0.34740399  0.50473873  1
  V  V39  1  0.62345316  0.08410559  0.02488748  1
  V  V40  1  0.25426055  0.08993145  0.42888227  1
  V  V41  1  0.43919094  0.46771624  0.49824224  1
  V  V42  1  0.38735046  -0.02401142  0.37331829  1
  V  V43  1  0.93739781  0.14073543  0.79691612  1
  V  V44  1  -0.01016875  0.12150259  0.62389903  1
  V  V45  1  0.28714866  0.12359691  0.85910278  1
  V  V46  1  0.83294138  0.85256826  0.10355030  1
  V  V47  1  0.38947539  0.25844833  0.10834911  1
  V  V48  1  0.83259860  0.22588914  0.18161174  1
  V  V49  1  0.73278483  0.11535803  0.89968927  1
  V  V50  1  0.78380599  0.61652862  0.36442054  1
  Zn  Zn51  1  0.34652088  0.83157766  0.83096728  1
  Zn  Zn52  1  0.16101138  0.95495271  0.45050575  1
  Zn  Zn53  1  0.47143699  0.82112248  0.46069645  1
  Zn  Zn54  1  0.27938546  0.10863910  0.63725857  1
  Zn  Zn55  1  0.28950182  0.59107000  0.08208879  1
  Zn  Zn56  1  0.35351098  0.45878091  0.15639102  1
  Zn  Zn57  1  0.39143239  0.44585336  0.66766486  1
  Zn  Zn58  1  0.49472073  0.57125920  0.68781358  1
  Zn  Zn59  1  0.05613071  0.29140058  0.69862242  1
  Zn  Zn60  1  0.82332477  0.06393224  0.06266901  1
  Zn  Zn61  1  0.25906333  0.54057317  0.54126245  1
  Zn  Zn62  1  0.39167153  0.68262739  0.94631527  1
  Zn  Zn63  1  0.51641285  0.09954573  0.34465986  1
  Zn  Zn64  1  0.09033438  0.10717827  0.87762221  1
  Zn  Zn65  1  -0.01466512  0.35168940  0.13926499  1
  Zn  Zn66  1  0.46171144  0.93027682  0.63970300  1
  Zn  Zn67  1  0.23847195  0.74186357  0.64840053  1
  Zn  Zn68  1  0.45948680  0.25470079  0.47186207  1
  Zn  Zn69  1  0.60732030  0.53193243  0.40231374  1
  Zn  Zn70  1  0.70883466  0.13078384  0.67490878  1
  Zn  Zn71  1  0.06887972  0.79708711  -0.04153837  1
  Zn  Zn72  1  0.04977835  0.57092146  0.74863814  1
  Zn  Zn73  1  0.86070474  0.50492004  0.12120410  1
  Zn  Zn74  1  0.64275651  0.20890011  0.19835011  1
  Zn  Zn75  1  0.23355797  0.26907878  0.74434259  1
  Zn  Zn76  1  0.27872663  0.29223131  0.31858517  1
  Zn  Zn77  1  0.99973587  0.97144625  0.76926417  1
  Zn  Zn78  1  0.76656015  0.41260646  0.99510864  1
  Zn  Zn79  1  1.02830205  0.89015549  0.10094713  1
  Zn  Zn80  1  0.10817794  0.83426377  0.56181575  1
  Zn  Zn81  1  0.96318224  0.58395397  0.44539329  1
  Zn  Zn82  1  0.82325957  0.69301975  0.18451528  1
  Zn  Zn83  1  0.17050944  0.47623859  0.89671114  1
  Zn  Zn84  1  0.15605864  0.74070345  0.14107812  1
  Zn  Zn85  1  0.31656696  0.81793390  0.32401098  1
  Zn  Zn86  1  0.51084826  0.37325461  0.12699263  1
  Zn  Zn87  1  0.22673082  0.17965998  0.17718659  1
  Zn  Zn88  1  0.59020793  0.27585222  0.58666885  1
  Zn  Zn89  1  0.31333835  0.08522267  0.06376370  1
  Zn  Zn90  1  0.77374688  0.23634171  0.79915798  1
  Zn  Zn91  1  0.59501514  0.09042822  0.80806654  1
  Zn  Zn92  1  0.65263099  0.65290664  0.65429579  1
  Zn  Zn93  1  0.09247607  0.08515754  0.32985986  1
  Zn  Zn94  1  0.04848538  0.41787083  0.41465428  1
  Zn  Zn95  1  -0.06514470  0.48434027  0.28341095  1
  Zn  Zn96  1  0.43824335  0.63735836  0.39935202  1
  Zn  Zn97  1  0.43134408  0.14182896  0.96188165  1
  Zn  Zn98  1  0.30520442  0.96325045  0.18958741  1
  Zn  Zn99  1  0.70309875  0.38267253  0.48757256  1
  Zn  Zn100  1  0.19515510  0.97383978  0.92986072  1
  Zn  Zn101  1  0.92631817  0.29877839  0.31221253  1
  O  O102  1  0.13340069  0.14317671  0.12116823  1
  O  O103  1  0.10352248  0.10583205  0.62368820  1
  O  O104  1  0.10836233  0.64566213  0.09156797  1
  O  O105  1  0.15186834  0.67395938  0.61586808  1
  O  O106  1  0.61423101  0.13030869  0.12789084  1
  O  O107  1  0.60337601  0.16808610  0.63608392  1
  O  O108  1  0.68324010  0.64518431  0.08366684  1
  O  O109  1  0.63405206  0.67689510  0.54844372  1
  O  O110  1  0.29331538  0.35419060  0.40514431  1
  O  O111  1  0.36139804  0.32902917  0.88445226  1
  O  O112  1  0.39697318  0.87453045  0.38535550  1
  O  O113  1  0.34514501  0.91363062  0.91641682  1
  O  O114  1  0.84852583  0.45329019  0.59155484  1
  O  O115  1  0.86914542  0.42569963  0.84044390  1
  O  O116  1  0.87441885  0.89204960  0.49017766  1
  O  O117  1  0.90376172  0.92709735  0.88803758  1
  O  O118  1  0.28533058  -0.00625058  0.39427443  1
  O  O119  1  0.20224322  0.07004262  0.86700322  1
  O  O120  1  0.19329980  0.47522002  0.28733628  1
  O  O121  1  0.26981568  0.49532879  0.84630467  1
  O  O122  1  0.76557280  -0.04811513  0.42622293  1
  O  O123  1  0.80314524  0.05002517  0.89028532  1
  O  O124  1  0.78867986  0.40785169  0.42691205  1
  O  O125  1  0.76192486  0.48244141  0.72541012  1
  O  O126  1  0.19276970  0.53499054  0.09290829  1
  O  O127  1  0.19617143  0.49743284  0.63407669  1
  O  O128  1  0.26067523  1.06960433  0.15725106  1
  O  O129  1  0.22008244  1.00865362  0.63675279  1
  O  O130  1  0.76775983  0.44372352  0.15811167  1
  O  O131  1  0.68663382  0.47094220  0.55555546  1
  O  O132  1  0.81529211  0.95354750  0.10596283  1
  O  O133  1  0.69618337  1.01286809  0.65351797  1
  O  O134  1  0.02024429  0.31360874  0.24525753  1
  O  O135  1  -0.06597650  0.42584710  0.81753822  1
  O  O136  1  0.06472822  0.87091195  0.21278704  1
  O  O137  1  -0.02009335  0.86237912  0.75567941  1
  O  O138  1  0.50492569  0.33952343  0.29328673  1
  O  O139  1  0.67717902  0.31097531  0.80746455  1
  O  O140  1  0.61943937  0.91091405  0.28348407  1
  O  O141  1  0.50571429  0.82856873  0.66074006  1
  O  O142  1  0.50829370  0.14763142  0.24354340  1
  O  O143  1  0.51322630  0.11914492  0.74162169  1
  O  O144  1  0.55263323  0.69607489  0.24759932  1
  O  O145  1  0.51925718  0.66458812  0.76758133  1
  O  O146  1  0.98173003  0.05321028  0.35119497  1
  O  O147  1  1.03434310  0.14405261  0.78062850  1
  O  O148  1  0.94137748  0.45265470  0.17736289  1
  O  O149  1  1.02400066  0.67439503  0.71336994  1
  O  O150  1  0.41518408  0.25195840  0.01540078  1
  O  O151  1  0.35434116  0.25532920  0.51298017  1
  O  O152  1  0.37145313  0.77713674  0.02402510  1
  O  O153  1  0.42577046  0.71869489  0.48404411  1
  O  O154  1  0.91871110  0.33006470  -0.01445914  1
  O  O155  1  0.85460507  0.24061084  0.55563190  1
  O  O156  1  0.86366997  0.62462093  -0.04682085  1
  O  O157  1  0.93634923  0.79502695  0.39357184  1
  O  O158  1  0.05603537  0.27654729  0.49616687  1
  O  O159  1  0.06558965  0.29049980  1.08708056  1
  O  O160  1  0.14441753  0.76890383  0.47785803  1
  O  O161  1  0.16407243  0.74849171  0.93837067  1
  O  O162  1  0.58212133  0.24444775  0.46741106  1
  O  O163  1  0.52825442  0.28801459  0.86085757  1
  O  O164  1  0.57645422  0.78540938  0.44094947  1
  O  O165  1  0.61881580  0.80361225  0.88931043  1
  O  O166  1  0.49256961  0.25788240  0.16041787  1
  O  O167  1  0.47858271  0.23442211  0.59419665  1
  O  O168  1  0.47838341  0.77319130  0.13687613  1
  O  O169  1  0.47565035  0.66698473  0.62685939  1
  O  O170  1  0.89217500  0.28334040  0.13591372  1
  O  O171  1  0.98821956  0.23002009  0.64249435  1
  O  O172  1  1.06763832  0.78680194  0.07517149  1
  O  O173  1  1.03013448  0.77313186  0.60275762  1
  O  O174  1  -0.00490607  0.26374483  0.46229215  1
  O  O175  1  0.02207805  0.32273351  0.87969283  1
  O  O176  1  0.07962226  0.68734338  0.32651304  1
  O  O177  1  0.00925322  0.75626198  0.86715584  1
  O  O178  1  0.46922568  0.20835662  0.36665170  1
  O  O179  1  0.51687546  0.35686403  0.85476944  1
  O  O180  1  0.57404667  0.75990735  0.26612941  1
  O  O181  1  0.44216181  0.79598709  0.79438701  1
  O  O182  1  0.26333863  0.10650272  0.52431208  1
  O  O183  1  0.31599925  0.12459226  0.95995036  1
  O  O184  1  0.21812834  0.61550409  0.47096652  1
  O  O185  1  0.27563633  0.64575814  0.98871356  1
  O  O186  1  0.73740250  0.13603292  0.55950730  1
  O  O187  1  0.72688031  0.10140027  1.01288105  1
  O  O188  1  0.70543543  0.68251094  0.40544046  1
  O  O189  1  0.72797399  0.65325455  1.02768780  1
  O  O190  1  0.31684614  0.34522415  -0.06478481  1
  O  O191  1  0.22149689  0.34133826  0.54168931  1
  O  O192  1  0.28081171  0.89829018  -0.03602631  1
  O  O193  1  0.24753755  0.91018124  0.50699750  1
  O  O194  1  0.68847793  0.36564694  0.05490339  1
  O  O195  1  0.70180667  0.29572971  0.55879842  1
  O  O196  1  0.84728424  0.83923404  0.00815398  1
  O  O197  1  0.76953829  0.91816208  0.60547060  1
  O  O198  1  0.06018166  0.55872664  0.17687112  1
  O  O199  1  0.13577870  0.51145437  0.78854762  1
  O  O200  1  0.13503086  1.01998903  0.24881725  1
  O  O201  1  0.11567745  0.95835467  0.72924149  1
  O  O202  1  0.56856235  0.47652064  0.30913803  1
  O  O203  1  0.60103931  0.55070271  0.65865397  1
  O  O204  1  0.74262453  1.00539704  0.27533664  1
  O  O205  1  0.60398635  0.96956676  0.79483751  1
  O  O206  1  0.38155800  -0.00832190  0.27882275  1
  O  O207  1  0.43036388  -0.01176844  0.74147693  1
  O  O208  1  0.31280207  0.55085250  0.19392851  1
  O  O209  1  0.31288697  0.52091319  0.71817849  1
  O  O210  1  0.95922053  -0.01371054  0.31917565  1
  O  O211  1  0.90875665  0.04068851  0.78963971  1
  O  O212  1  0.86409964  0.39166572  0.29998888  1
  O  O213  1  0.87744711  0.60097616  0.62762422  1
  O  O214  1  0.11896064  0.34680906  0.36392629  1
  O  O215  1  0.16264764  0.36719577  0.91126734  1
  O  O216  1  0.12476041  0.91334445  0.35507786  1
  O  O217  1  0.13901200  0.89825318  0.87087561  1
  O  O218  1  0.62519098  0.37237646  0.40245562  1
  O  O219  1  0.73469073  0.39785761  0.88362024  1
  O  O220  1  0.66440552  0.87725161  0.32534255  1
  O  O221  1  0.55309489  0.93370212  0.83716321  1
  O  O222  1  0.40474118  0.14723278  0.12276700  1
  O  O223  1  0.40569144  0.12488501  0.65076763  1
  O  O224  1  0.36079363  0.66940662  0.12960468  1
  O  O225  1  0.34718746  0.60423483  0.57558926  1
  O  O226  1  0.82744765  0.13354938  0.14656404  1
  O  O227  1  0.90269006  0.12673353  0.67446733  1
  O  O228  1  0.88360703  0.60808729  0.15336851  1
  O  O229  1  0.86231604  0.67665948  0.60811867  1
  O  O230  1  0.29423395  0.24423091  0.11388072  1
  O  O231  1  0.28434614  0.22001546  0.65968045  1
  O  O232  1  0.23377611  0.77606742  0.07479961  1
  O  O233  1  0.28864743  0.74198039  0.54706151  1
  O  O234  1  0.73432315  0.27207937  0.17445426  1
  O  O235  1  0.77481489  0.22554495  0.68660110  1
  O  O236  1  0.87775310  0.75299218  0.10121463  1
  O  O237  1  0.67846142  0.80070667  0.64636889  1
  O  O238  1  0.26600631  0.18732675  0.38194503  1
  O  O239  1  0.26102605  0.21527349  0.84298295  1
  O  O240  1  0.27144450  0.74322402  0.38718197  1
  O  O241  1  0.31561911  0.75095546  0.89571645  1
  O  O242  1  0.73816454  0.21935623  0.42361875  1
  O  O243  1  0.76640006  0.20659916  0.90472407  1
  O  O244  1  0.80121709  0.67622520  0.28962497  1
  O  O245  1  0.65257400  0.74576185  0.91081679  1
  O  O246  1  -0.00459002  0.16060553  0.04908166  1
  O  O247  1  -0.03135690  0.11096261  0.53403034  1
  O  O248  1  -0.07348167  0.64823115  -0.06173338  1
  O  O249  1  0.01717816  0.63728222  0.52391998  1
  O  O250  1  0.51846158  0.11777492  0.02567927  1
  O  O251  1  0.51289992  0.11329929  0.51461962  1
  O  O252  1  0.45648548  0.60451595  -0.00722560  1
  O  O253  1  0.55360125  0.63223551  0.40836209  1
  O  O254  1  0.45237007  0.37421115  0.47008980  1
  O  O255  1  0.50380665  0.45465379  1.04912768  1
  O  O256  1  0.48472546  0.91394887  0.52261824  1
  O  O257  1  0.47634678  0.88302426  1.00199494  1
  O  O258  1  0.96392311  0.33096011  0.41874486  1
  O  O259  1  0.94107449  0.39226932  1.02398780  1
  O  O260  1  0.99216288  0.83115305  0.37600969  1
  O  O261  1  1.01260185  0.88387799  0.99295673  1
  O  O262  1  0.42186422  0.53190237  0.42812304  1
  O  O263  1  0.44604238  0.49762557  0.75699915  1
  O  O264  1  0.49344602  1.00296934  0.38946219  1
  O  O265  1  0.51144156  0.97516973  0.88110000  1
  O  O266  1  0.99255068  0.50448429  0.37365316  1
  O  O267  1  0.94508751  0.56339176  0.80502873  1
  O  O268  1  0.89400915  0.96293266  0.33869546  1
  O  O269  1  1.02600227  1.01761338  0.88200132  1
  O  O270  1  0.05526796  -0.00198237  0.11514495  1
  O  O271  1  0.00612982  0.01516933  0.65693734  1
  O  O272  1  0.00252218  0.55511807  0.03709320  1
  O  O273  1  0.04204189  0.54365977  0.63841115  1
  O  O274  1  0.49859833  0.02370614  0.15254704  1
  O  O275  1  0.52444470  0.02235210  0.61447258  1
  O  O276  1  0.35106928  0.49977732  0.04756450  1
  O  O277  1  0.46313622  0.49374285  0.59851842  1
  O  O278  1  0.19489231  0.26514791  0.24786851  1
  O  O279  1  0.23906343  0.38278217  0.74055161  1
  O  O280  1  0.25265228  0.89586939  0.27174663  1
  O  O281  1  0.25649211  0.86238332  0.77548522  1
  O  O282  1  0.70643261  0.39509389  0.28348848  1
  O  O283  1  0.72926229  0.42150862  0.71944349  1
  O  O284  1  0.81026674  0.81473324  0.20148308  1
  O  O285  1  0.72181780  0.84326607  0.75884221  1
  O  O286  1  0.26518681  0.13027126  0.32373107  1
  O  O287  1  0.30913153  0.09239666  0.75658901  1
  O  O288  1  0.22627618  0.68120509  0.21991074  1
  O  O289  1  0.25764400  0.68513098  0.75385485  1
  O  O290  1  0.78398233  0.06075799  0.28467350  1
  O  O291  1  0.69985627  0.12433467  0.79236303  1
  O  O292  1  0.82996261  0.53089033  0.30726486  1
  O  O293  1  0.74694762  0.66276579  0.71657925  1
  O  O294  1  0.37766868  0.08577075  0.43264022  1
  O  O295  1  0.40648076  0.11494352  0.85281356  1
  O  O296  1  0.37421737  0.64345059  0.30966771  1
  O  O297  1  0.38094599  0.61602487  0.84262679  1
  O  O298  1  0.78159825  0.01757890  0.44420750  1
  O  O299  1  0.92793175  0.14387250  0.89258657  1
  O  O300  1  0.85835046  0.62147740  0.42847328  1
  O  O301  1  0.87590631  0.57839575  0.77926898  1
  O  O302  1  0.08403971  0.44677433  0.10401287  1
  O  O303  1  0.07541180  0.38864363  0.65665834  1
  O  O304  1  0.19169988  0.93731653  0.14649220  1
  O  O305  1  0.19543150  0.84654898  0.63971258  1
  O  O306  1  0.60578047  0.38081135  0.18472534  1
  O  O307  1  0.57809485  0.38425836  0.61786567  1
  O  O308  1  0.73460452  0.84322468  0.09518579  1
  O  O309  1  0.66927432  0.84262447  0.70767214  1
  O  O310  1  0.07912682  0.19448053  0.33162707  1
  O  O311  1  0.12786758  0.27139730  0.77869509  1
  O  O312  1  0.11998695  0.81405492  0.22859418  1
  O  O313  1  0.11080301  0.78975661  0.75960667  1
  O  O314  1  0.62703254  0.25399097  0.29923733  1
  O  O315  1  0.67111013  0.35857868  0.86695180  1
  O  O316  1  0.70797711  0.66401057  0.15377478  1
  O  O317  1  0.57328092  0.71146563  0.73484121  1
  O  O318  1  0.37094433  0.26108670  0.25913459  1
  O  O319  1  0.41491986  0.26591375  0.73405493  1
  O  O320  1  0.35120846  0.76609825  0.22991643  1
  O  O321  1  0.36898260  0.74646572  0.66563496  1
  O  O322  1  0.86239405  0.21864280  0.27542412  1
  O  O323  1  0.88847860  0.23202224  0.77671435  1
  O  O324  1  1.01649337  0.67560009  0.29868386  1
  O  O325  1  0.89437317  0.73394600  0.75623319  1
  O  O326  1  0.33286193  0.45457483  0.52365906  1
  O  O327  1  0.41563773  0.47554622  0.90372098  1
  O  O328  1  0.39298170  1.02831622  0.48358730  1
  O  O329  1  0.38501004  1.00252584  1.03596260  1
  O  O330  1  0.90221709  0.44850706  0.54818707  1
  O  O331  1  0.82395298  0.49817962  1.02016899  1
  O  O332  1  0.91296502  0.94883160  0.50051357  1
  O  O333  1  0.90755407  1.03670459  1.00192194  1
  O  O334  1  0.17415747  0.02711179  0.02300798  1
  O  O335  1  0.09897598  -0.05056890  0.55034837  1
  O  O336  1  0.12142309  0.52833384  -0.01796536  1
  O  O337  1  0.08899766  0.45725711  0.51123089  1
  O  O338  1  0.62206843  -0.00693604  0.03839863  1
  O  O339  1  0.61605175  -0.00931002  0.48509733  1
  O  O340  1  0.74237799  0.57316048  -0.12800921  1
  O  O341  1  0.55305700  0.49182174  0.49221915  1
  O  O342  1  0.39704093  0.36392844  0.13667650  1
  O  O343  1  0.36155021  0.35090830  0.62462585  1
  O  O344  1  0.36328693  0.88376280  0.12592633  1
  O  O345  1  0.35161568  0.91192902  0.62566571  1
  O  O346  1  0.84649784  0.32180464  -0.02759904  1
  O  O347  1  0.88199655  0.33993956  0.67724207  1
  O  O348  1  0.92102104  0.89005934  0.14266761  1
  O  O349  1  0.76645356  0.97997787  0.64420729  1
  O  O350  1  0.15611035  0.06568417  0.42203470  1
  O  O351  1  0.10912885  0.20287844  0.94408942  1
  O  O352  1  0.19136058  0.54066939  0.31477782  1
  O  O353  1  0.20493036  0.66155592  0.79261322  1
  O  O354  1  0.62412919  0.11996598  0.37446378  1
  O  O355  1  0.62524707  0.09862725  0.91756976  1
  O  O356  1  0.71433387  0.53421897  0.37378609  1
  O  O357  1  0.67381536  0.56598409  0.87690556  1
