# generated using pymatgen
data_V51Zn51O256
_symmetry_space_group_name_H-M   'P 1'
_cell_length_a   17.54958290
_cell_length_b   17.59896734
_cell_length_c   17.05733783
_cell_angle_alpha   89.61837758
_cell_angle_beta   88.46559341
_cell_angle_gamma   89.59528247
_symmetry_Int_Tables_number   1
_chemical_formula_structural   V51Zn51O256
_chemical_formula_sum   'V51 Zn51 O256'
_cell_volume   5266.10537129
_cell_formula_units_Z   1
loop_
 _symmetry_equiv_pos_site_id
 _symmetry_equiv_pos_as_xyz
  1  'x, y, z'
loop_
 _atom_site_type_symbol
 _atom_site_label
 _atom_site_symmetry_multiplicity
 _atom_site_fract_x
 _atom_site_fract_y
 _atom_site_fract_z
 _atom_site_occupancy
  V  V0  1  0.82512246  0.09976955  0.75194606  1
  V  V1  1  0.63192689  0.73378573  0.89348621  1
  V  V2  1  0.49926094  0.20478134  0.23464217  1
  V  V3  1  0.87181058  0.75094327  0.62420572  1
  V  V4  1  0.24432741  0.90045885  0.12818560  1
  V  V5  1  0.34683436  0.65575004  0.24200707  1
  V  V6  1  -0.00992913  -0.00582451  0.52140651  1
  V  V7  1  0.89739020  0.10566129  0.26633753  1
  V  V8  1  0.50114941  0.65682220  0.62361144  1
  V  V9  1  0.58589271  0.43204479  0.27227412  1
  V  V10  1  0.01196524  0.36931205  0.86989354  1
  V  V11  1  0.12333442  0.36235456  0.72009504  1
  V  V12  1  -0.02894051  0.11682126  0.65120906  1
  V  V13  1  0.13592844  0.54847278  0.11323376  1
  V  V14  1  0.74176691  0.12306320  0.38505344  1
  V  V15  1  0.73689617  0.75821571  0.50273236  1
  V  V16  1  0.86704078  0.88182230  0.48559649  1
  V  V17  1  0.21090129  0.27611913  0.11452797  1
  V  V18  1  0.54667634  0.23063689  -0.06421892  1
  V  V19  1  0.83601871  0.74086315  0.20619832  1
  V  V20  1  0.87682513  0.88385506  -0.02551713  1
  V  V21  1  -0.00724592  0.51532659  -0.00047701  1
  V  V22  1  0.77815305  0.33586729  0.12800343  1
  V  V23  1  0.49591732  0.28784226  0.74490454  1
  V  V24  1  0.63875190  -0.02570620  0.13837557  1
  V  V25  1  0.88884068  0.61303838  0.72118917  1
  V  V26  1  0.86257296  0.28047872  0.62355612  1
  V  V27  1  0.12804869  0.84268344  0.72845609  1
  V  V28  1  0.72854507  0.17642550  0.87912570  1
  V  V29  1  0.30952197  0.72121084  -0.00951874  1
  V  V30  1  0.63009892  0.60714858  0.01365974  1
  V  V31  1  0.36953625  0.48792088  0.34237175  1
  V  V32  1  0.10460394  0.75976302  0.34931707  1
  V  V33  1  0.77803257  0.62059725  0.89452928  1
  V  V34  1  0.47561614  0.40911230  0.47649456  1
  V  V35  1  0.70037260  0.61123490  0.38984920  1
  V  V36  1  0.86781775  0.35318154  -0.01609703  1
  V  V37  1  0.64883748  0.17258383  0.52485835  1
  V  V38  1  0.87649126  0.49684286  0.87168958  1
  V  V39  1  0.11492886  0.22513223  0.37869169  1
  V  V40  1  0.74821615  0.50558586  0.71906097  1
  V  V41  1  0.47472799  0.14877315  0.59663328  1
  V  V42  1  0.33645860  0.85068299  0.49847932  1
  V  V43  1  0.24568209  0.57727168  0.90786333  1
  V  V44  1  0.26055315  0.50416120  0.74025850  1
  V  V45  1  0.62716012  0.39545224  0.72026253  1
  V  V46  1  0.84706134  0.37954490  0.48038538  1
  V  V47  1  0.49071884  0.65836258  0.12608884  1
  V  V48  1  -0.02929023  0.13426395  0.07567663  1
  V  V49  1  0.38575204  0.87877318  -0.02013075  1
  V  V50  1  0.69227361  0.49031928  0.11874789  1
  Zn  Zn51  1  0.16335568  0.42650703  0.96875787  1
  Zn  Zn52  1  0.22121420  0.68542242  0.55189363  1
  Zn  Zn53  1  0.94734772  0.78637266  0.80248315  1
  Zn  Zn54  1  0.15278174  0.18867177  0.67469795  1
  Zn  Zn55  1  0.24225705  0.08058016  0.19504778  1
  Zn  Zn56  1  0.20998301  0.30780129  0.54677999  1
  Zn  Zn57  1  0.94252061  0.91442055  0.20696708  1
  Zn  Zn58  1  0.52789855  0.55967829  0.42577893  1
  Zn  Zn59  1  0.66251596  0.65973620  0.20991858  1
  Zn  Zn60  1  0.40165944  0.27662946  0.41588839  1
  Zn  Zn61  1  0.89148222  0.94087220  0.69455771  1
  Zn  Zn62  1  0.69657955  0.68694154  0.68902847  1
  Zn  Zn63  1  0.31370081  0.87793102  0.80131749  1
  Zn  Zn64  1  0.57929532  0.32056938  0.11751802  1
  Zn  Zn65  1  0.58526292  0.26720999  0.38902467  1
  Zn  Zn66  1  0.41258092  0.34828567  0.24397022  1
  Zn  Zn67  1  0.08085093  0.57253209  0.30270697  1
  Zn  Zn68  1  0.92731226  0.18603915  0.89492020  1
  Zn  Zn69  1  0.85986587  0.58374953  0.08658080  1
  Zn  Zn70  1  0.91940600  0.18446257  0.45557072  1
  Zn  Zn71  1  0.08914035  0.00879038  0.16825175  1
  Zn  Zn72  1  0.90384842  0.72181461  0.39888508  1
  Zn  Zn73  1  0.54070259  -0.07236082  0.32976627  1
  Zn  Zn74  1  0.54436014  0.82653689  0.50522251  1
  Zn  Zn75  1  0.33960047  0.24701277  0.64120512  1
  Zn  Zn76  1  0.68054749  0.20965444  0.69927270  1
  Zn  Zn77  1  0.44445369  0.45375353  0.66780795  1
  Zn  Zn78  1  0.66539823  0.42166713  0.44333165  1
  Zn  Zn79  1  0.27199316  0.69912706  0.75067703  1
  Zn  Zn80  1  0.67694905  0.35245282  0.95143636  1
  Zn  Zn81  1  0.79960532  0.32790754  0.80071329  1
  Zn  Zn82  1  0.37629305  0.85193346  0.27784376  1
  Zn  Zn83  1  0.68927463  0.93079665  0.42652486  1
  Zn  Zn84  1  0.75679215  0.72590646  0.05694190  1
  Zn  Zn85  1  0.84482933  0.29098992  0.30228879  1
  Zn  Zn86  1  0.33176977  0.55587265  0.07970499  1
  Zn  Zn87  1  0.25856288  0.34923056  0.36837229  1
  Zn  Zn88  1  0.05297014  0.85167991  0.06676937  1
  Zn  Zn89  1  0.43797144  1.01661705  0.19835186  1
  Zn  Zn90  1  0.18593381  0.72490629  0.15052799  1
  Zn  Zn91  1  0.00528496  0.33408673  0.08856712  1
  Zn  Zn92  1  0.92606068  0.41302734  0.69743144  1
  Zn  Zn93  1  0.04874442  0.79595871  0.55062923  1
  Zn  Zn94  1  0.59960659  0.59508217  0.79789786  1
  Zn  Zn95  1  0.85385378  0.58255023  0.51064114  1
  Zn  Zn96  1  0.68426563  0.17253939  0.16961984  1
  Zn  Zn97  1  0.16172581  0.83346654  0.92891433  1
  Zn  Zn98  1  0.69836763  0.90361760  0.95194988  1
  Zn  Zn99  1  0.38619202  0.96429408  0.62872281  1
  Zn  Zn100  1  0.82731182  0.07706000  0.54725827  1
  Zn  Zn101  1  0.06941797  0.03036137  0.33844018  1
  O  O102  1  0.05516951  0.08853079  0.09854578  1
  O  O103  1  0.06772814  0.12703032  0.65658894  1
  O  O104  1  0.12662632  0.64405106  0.10352799  1
  O  O105  1  0.11807677  0.70055236  0.55502941  1
  O  O106  1  0.64568582  0.07721054  0.12988804  1
  O  O107  1  0.66151452  0.13652198  0.61793995  1
  O  O108  1  0.67684009  0.60165856  0.10856940  1
  O  O109  1  0.60558071  0.65130778  0.62179745  1
  O  O110  1  0.41741691  0.39443221  0.38505005  1
  O  O111  1  0.48171019  0.41965190  0.89934478  1
  O  O112  1  0.34318625  0.85475127  0.39412865  1
  O  O113  1  0.37715534  0.91490462  0.88584086  1
  O  O114  1  0.87886220  0.35056110  0.38606693  1
  O  O115  1  0.86608553  0.38938825  0.87460296  1
  O  O116  1  0.88181570  0.88675217  0.39103081  1
  O  O117  1  0.87207507  0.81688657  0.89239642  1
  O  O118  1  0.15712519  -0.01714159  0.37408455  1
  O  O119  1  0.23440364  -0.09984534  0.87934148  1
  O  O120  1  0.27835495  0.45706523  0.36172094  1
  O  O121  1  0.24583340  0.48010351  0.91956014  1
  O  O122  1  0.71401553  0.03046642  0.38290213  1
  O  O123  1  0.65304512  -0.00082149  0.87319406  1
  O  O124  1  0.70956878  0.51772612  0.41046433  1
  O  O125  1  0.77200846  0.51342557  0.87305405  1
  O  O126  1  0.23024497  0.52351508  0.10266863  1
  O  O127  1  0.22998662  0.53269852  0.65608609  1
  O  O128  1  0.19800889  0.98952805  0.13360482  1
  O  O129  1  0.26288790  1.05206845  0.62536818  1
  O  O130  1  0.78770705  0.50004373  0.11886194  1
  O  O131  1  0.75368243  0.50315541  0.62428834  1
  O  O132  1  0.73284906  0.98425947  0.16691693  1
  O  O133  1  0.67492455  0.86261536  0.71346815  1
  O  O134  1  -0.01986648  0.38708983  0.25588712  1
  O  O135  1  0.02564023  0.38916877  0.75193929  1
  O  O136  1  0.00439310  0.82063694  0.16568646  1
  O  O137  1  0.04345849  0.78431617  0.72695566  1
  O  O138  1  0.52964756  0.38078701  0.20771053  1
  O  O139  1  0.51431874  0.39128495  0.73131278  1
  O  O140  1  0.44832276  0.93340017  0.27514210  1
  O  O141  1  0.50463811  0.91620698  0.65392288  1
  O  O142  1  0.47605433  0.07518242  0.39117714  1
  O  O143  1  0.49962107  0.17408554  0.70484621  1
  O  O144  1  0.55273087  0.64616084  0.20137996  1
  O  O145  1  0.51442480  0.65605543  0.72735515  1
  O  O146  1  0.98944504  0.09571972  0.28864431  1
  O  O147  1  0.93424126  0.11229999  0.74953579  1
  O  O148  1  0.96396309  0.54057665  0.32446272  1
  O  O149  1  0.97974406  0.59672119  0.72098736  1
  O  O150  1  0.30322470  0.27897281  0.07633501  1
  O  O151  1  0.31341634  0.09243439  0.42508251  1
  O  O152  1  0.39154831  0.77565304  -0.03176664  1
  O  O153  1  0.29313767  0.76305805  0.51070495  1
  O  O154  1  0.86870529  0.26146575  -0.03213200  1
  O  O155  1  0.86805454  0.26617552  0.51303490  1
  O  O156  1  0.93744195  0.81914076  0.02076199  1
  O  O157  1  0.85862312  0.77086546  0.49955645  1
  O  O158  1  0.13375200  0.25810709  0.47735873  1
  O  O159  1  0.11023580  0.30996036  1.13074012  1
  O  O160  1  0.09305266  0.80313859  0.44427377  1
  O  O161  1  0.23857900  0.75153611  0.93101327  1
  O  O162  1  0.64138540  0.26491472  0.53278017  1
  O  O163  1  0.58918230  0.29750932  1.00365012  1
  O  O164  1  0.64078698  0.76944012  0.50296802  1
  O  O165  1  0.65687350  0.70976271  1.00583667  1
  O  O166  1  0.58930072  0.22811012  0.18572444  1
  O  O167  1  0.53179332  0.23368311  0.65142924  1
  O  O168  1  0.48201433  0.74826119  0.10990758  1
  O  O169  1  0.51823805  0.75447611  0.59982356  1
  O  O170  1  0.98604946  0.22867322  0.08671141  1
  O  O171  1  0.94324585  0.21449819  0.63162409  1
  O  O172  1  1.09067997  0.77657601  -0.00759526  1
  O  O173  1  0.96479222  0.74176136  0.59502209  1
  O  O174  1  0.01554689  0.23413949  0.41235502  1
  O  O175  1  -0.01287253  0.27651247  0.86287758  1
  O  O176  1  0.00177418  0.77156312  0.35341077  1
  O  O177  1  0.00804971  0.73875621  0.87493607  1
  O  O178  1  0.50224561  0.31235163  0.46534431  1
  O  O179  1  0.49559036  0.26643381  0.84576651  1
  O  O180  1  0.53385413  0.80089257  0.31883643  1
  O  O181  1  0.54018659  0.72118602  0.90564523  1
  O  O182  1  0.31393538  0.06141950  0.35998948  1
  O  O183  1  0.22993730  0.19713319  1.18078209  1
  O  O184  1  0.24254988  0.61352913  0.47979105  1
  O  O185  1  0.31865321  0.61649263  0.97631254  1
  O  O186  1  0.75189906  0.13725693  0.49135240  1
  O  O187  1  0.74520774  0.13303174  0.96145211  1
  O  O188  1  0.75973937  0.65293921  0.47170329  1
  O  O189  1  0.79909878  0.63459063  0.99446000  1
  O  O190  1  0.20160366  0.34349523  0.03436471  1
  O  O191  1  0.29178596  0.30925938  0.46820086  1
  O  O192  1  0.30077379  0.90180060  0.03901755  1
  O  O193  1  0.25085163  0.89922906  0.49490517  1
  O  O194  1  0.76953443  0.37406101  0.00711258  1
  O  O195  1  0.75055430  0.36858432  0.48304675  1
  O  O196  1  0.78680924  0.82945199  0.01012986  1
  O  O197  1  0.75355153  0.86367480  0.49051740  1
  O  O198  1  0.10818104  0.52706635  0.20980856  1
  O  O199  1  0.16481851  0.45281621  0.77658291  1
  O  O200  1  0.03508956  0.95599507  0.25614065  1
  O  O201  1  0.09488583  0.93349713  0.70970214  1
  O  O202  1  0.65053536  0.49329750  0.21696366  1
  O  O203  1  0.63758977  0.50700741  0.74176400  1
  O  O204  1  0.61024886  0.96575405  0.23943683  1
  O  O205  1  0.63942671  0.98721887  0.80336228  1
  O  O206  1  0.34257260  0.05685692  0.17205575  1
  O  O207  1  0.34897175  -0.04689069  0.72960200  1
  O  O208  1  0.38724943  0.45550646  0.24815778  1
  O  O209  1  0.35421600  0.47751581  0.72640809  1
  O  O210  1  0.88190484  0.00451259  0.24713815  1
  O  O211  1  0.82211502  0.00370278  0.76184347  1
  O  O212  1  0.91421237  0.55384099  0.27532756  1
  O  O213  1  0.86266067  0.49838793  0.74212255  1
  O  O214  1  0.14682630  0.32483056  0.36149670  1
  O  O215  1  0.10471348  0.36911090  0.89407369  1
  O  O216  1  0.13173288  0.84339460  0.30493630  1
  O  O217  1  0.10596080  0.86287625  0.82816961  1
  O  O218  1  0.53113940  0.49661339  0.31774713  1
  O  O219  1  0.61046220  0.40749737  0.87529904  1
  O  O220  1  0.72223587  0.86509586  0.32820814  1
  O  O221  1  0.64814208  0.83059239  0.89706495  1
  O  O222  1  0.48442654  0.10986889  0.23153582  1
  O  O223  1  0.40351013  0.20343053  0.55693486  1
  O  O224  1  0.39520551  0.61555780  0.15098158  1
  O  O225  1  0.40776956  0.68331401  0.64306023  1
  O  O226  1  0.90248416  0.10681439  0.14901485  1
  O  O227  1  0.82187352  0.11675641  0.65304113  1
  O  O228  1  0.87568930  0.68471956  0.13166691  1
  O  O229  1  0.86572279  0.62603034  0.61996439  1
  O  O230  1  0.22815382  0.33589972  0.19299227  1
  O  O231  1  0.23803372  0.22915887  0.61955143  1
  O  O232  1  0.28419556  0.73555498  0.08428367  1
  O  O233  1  0.26970812  0.67430430  0.64508949  1
  O  O234  1  0.75431516  0.24316469  0.12005096  1
  O  O235  1  0.76893594  0.26253789  0.64457526  1
  O  O236  1  0.73824336  0.73917938  0.17290659  1
  O  O237  1  0.75506168  0.73883648  0.60678426  1
  O  O238  1  0.20607796  0.19378372  0.35170087  1
  O  O239  1  0.17184909  0.19798458  1.06406212  1
  O  O240  1  0.19626287  0.73181103  0.37570117  1
  O  O241  1  0.43011536  0.57429617  0.83882091  1
  O  O242  1  0.74654219  0.21799393  0.31594173  1
  O  O243  1  0.73178272  0.27901780  0.87814714  1
  O  O244  1  0.73124059  0.74688783  0.38064747  1
  O  O245  1  0.75142958  0.70846835  0.86549803  1
  O  O246  1  -0.04879732  0.11765181  -0.02157704  1
  O  O247  1  -0.05498480  0.10316768  0.53278449  1
  O  O248  1  0.00658361  0.59822559  -0.03919287  1
  O  O249  1  -0.06556977  0.63296897  0.45084534  1
  O  O250  1  0.48833577  0.17750959  -0.01435349  1
  O  O251  1  0.54638107  0.13572660  0.52465640  1
  O  O252  1  0.53221914  0.61320806  0.03531814  1
  O  O253  1  0.49015275  0.63107037  0.52467729  1
  O  O254  1  0.43124219  0.40865907  0.56703001  1
  O  O255  1  0.44865811  0.35849915  1.05142365  1
  O  O256  1  0.43567975  0.81226989  0.47883208  1
  O  O257  1  0.46492926  0.91362517  1.01015273  1
  O  O258  1  1.02908668  0.51215307  0.56612431  1
  O  O259  1  0.97870805  0.38285888  0.98350423  1
  O  O260  1  0.97220054  0.88617994  0.52461802  1
  O  O261  1  0.94512597  0.93696649  0.92928263  1
  O  O262  1  0.42857695  0.51192389  0.43538568  1
  O  O263  1  0.54665003  0.44208200  0.91702194  1
  O  O264  1  0.58104032  0.90129710  0.42864777  1
  O  O265  1  0.48564937  1.01232868  0.78874149  1
  O  O266  1  1.09098010  0.49745077  0.40017537  1
  O  O267  1  0.98090087  0.47761965  0.86731180  1
  O  O268  1  0.99363990  1.00851688  0.42063832  1
  O  O269  1  1.12512920  1.06690654  0.86002618  1
  O  O270  1  0.01568994  -0.05184862  0.11103465  1
  O  O271  1  -0.04261576  0.01057490  0.63780264  1
  O  O272  1  -0.04055313  0.53367413  0.09364472  1
  O  O273  1  0.09000475  0.53467998  0.58974094  1
  O  O274  1  0.53634754  -0.01277838  0.13197070  1
  O  O275  1  0.43519491  0.06227463  0.61855269  1
  O  O276  1  0.42222474  0.42201839  0.07773188  1
  O  O277  1  0.48685675  0.55631314  0.63644346  1
  O  O278  1  0.33989391  0.29286199  0.31819137  1
  O  O279  1  0.22496159  0.39667424  0.75345297  1
  O  O280  1  0.29586698  0.88463495  0.21001877  1
  O  O281  1  0.22647660  0.87091143  0.72405168  1
  O  O282  1  0.79453041  0.35288262  0.22343308  1
  O  O283  1  0.73081289  0.40181412  0.74981920  1
  O  O284  1  0.69148782  0.79728552  0.33353636  1
  O  O285  1  0.94651469  0.89097781  0.77635355  1
  O  O286  1  0.14607162  0.06838067  0.24771899  1
  O  O287  1  0.23526578  0.07634770  0.68871529  1
  O  O288  1  0.25349200  0.66087652  0.22190707  1
  O  O289  1  0.26400808  0.59655554  0.80088028  1
  O  O290  1  0.74245492  0.15041607  0.26938059  1
  O  O291  1  0.72001953  0.13106896  0.77831396  1
  O  O292  1  0.72433959  0.62024031  0.29143249  1
  O  O293  1  0.75849649  0.60606804  0.74107221  1
  O  O294  1  0.53893721  0.04458094  0.37996511  1
  O  O295  1  0.47066679  0.04911893  0.84764021  1
  O  O296  1  0.35947864  0.59196940  0.32127404  1
  O  O297  1  0.49674140  0.57513032  0.86269423  1
  O  O298  1  0.85059809  0.12180897  0.37286922  1
  O  O299  1  0.83460452  0.16498370  0.84025645  1
  O  O300  1  0.86061108  0.71018278  0.29755534  1
  O  O301  1  0.87470740  0.60652082  0.84613043  1
  O  O302  1  -0.00452333  0.41048198  0.18780130  1
  O  O303  1  0.13591217  0.36342336  0.62083970  1
  O  O304  1  0.16963266  0.83394763  0.12583497  1
  O  O305  1  0.12755157  0.83082785  0.62124930  1
  O  O306  1  0.67932192  0.38330944  0.12282481  1
  O  O307  1  0.63223407  0.39729827  0.62606454  1
  O  O308  1  0.64436245  0.87583551  0.13078929  1
  O  O309  1  0.55134421  0.91056584  0.59556027  1
  O  O310  1  0.07745173  0.22752936  0.28716029  1
  O  O311  1  0.13116825  0.27045291  0.74937361  1
  O  O312  1  0.10405757  0.72533558  0.25056012  1
  O  O313  1  0.17614716  0.75256022  0.75427119  1
  O  O314  1  0.62563021  0.36851494  0.34369877  1
  O  O315  1  0.61797325  0.29350756  0.74548486  1
  O  O316  1  0.54808451  0.77873516  0.25083422  1
  O  O317  1  0.63569963  0.70150735  0.78543815  1
  O  O318  1  0.49300630  0.23303926  0.33395271  1
  O  O319  1  0.40189398  0.29145828  0.71843405  1
  O  O320  1  0.38172013  0.74291172  0.26409057  1
  O  O321  1  0.33949379  0.77292179  0.78237432  1
  O  O322  1  0.89339326  0.20686441  0.25126913  1
  O  O323  1  0.88146337  0.31314608  0.72646189  1
  O  O324  1  0.86363121  0.83591579  0.20321019  1
  O  O325  1  0.88395397  0.72145119  0.73174553  1
  O  O326  1  0.30318203  0.48229179  0.51588063  1
  O  O327  1  0.37670891  0.46230320  1.02842329  1
  O  O328  1  0.38023571  0.94555749  0.51314775  1
  O  O329  1  0.33615413  1.10945134  0.92891115  1
  O  O330  1  0.86243342  0.47664177  0.48026093  1
  O  O331  1  0.88155415  0.50150916  0.97438752  1
  O  O332  1  0.84976051  0.97409044  0.52226238  1
  O  O333  1  0.80102058  0.94383296  0.92904629  1
  O  O334  1  0.10492462  -0.08757445  -0.01590615  1
  O  O335  1  0.08144666  0.00081446  0.53846922  1
  O  O336  1  0.09195426  0.48536899  0.03634178  1
  O  O337  1  0.14797293  0.48577614  0.44119617  1
  O  O338  1  0.65396778  -0.03183033  0.03297466  1
  O  O339  1  0.69666464  -0.09259631  0.66222272  1
  O  O340  1  0.64698503  0.49927201  0.02524373  1
  O  O341  1  0.56355866  0.45760322  0.48049686  1
  O  O342  1  0.43009513  0.25455321  0.18636996  1
  O  O343  1  0.25337988  0.44619533  0.55007436  1
  O  O344  1  0.31058772  1.07240706  -0.01499826  1
  O  O345  1  0.35048213  0.84954724  0.60385710  1
  O  O346  1  0.87923845  0.35171691  0.09246409  1
  O  O347  1  0.88631020  0.37855982  0.59212903  1
  O  O348  1  0.87011583  0.93740196  0.06019320  1
  O  O349  1  0.85977726  0.84649153  0.64475068  1
  O  O350  1  0.10740401  0.12843354  0.40698700  1
  O  O351  1  0.19518839  0.06157384  0.85935391  1
  O  O352  1  0.08311101  0.65738002  0.37403733  1
  O  O353  1  0.16158066  0.60874530  0.93078348  1
  O  O354  1  0.64567637  0.17127832  0.40728285  1
  O  O355  1  0.61836453  0.17295564  0.89520090  1
  O  O356  1  0.60372553  0.63146538  0.40071982  1
  O  O357  1  0.65553036  0.60315120  0.90896653  1
