# generated using pymatgen
data_V51Zn51O256
_symmetry_space_group_name_H-M   'P 1'
_cell_length_a   17.56671405
_cell_length_b   17.72790829
_cell_length_c   17.75433903
_cell_angle_alpha   90.46865699
_cell_angle_beta   89.22287780
_cell_angle_gamma   89.85680317
_symmetry_Int_Tables_number   1
_chemical_formula_structural   V51Zn51O256
_chemical_formula_sum   'V51 Zn51 O256'
_cell_volume   5528.36336015
_cell_formula_units_Z   1
loop_
 _symmetry_equiv_pos_site_id
 _symmetry_equiv_pos_as_xyz
  1  'x, y, z'
loop_
 _atom_site_type_symbol
 _atom_site_label
 _atom_site_symmetry_multiplicity
 _atom_site_fract_x
 _atom_site_fract_y
 _atom_site_fract_z
 _atom_site_occupancy
  V  V0  1  0.79666943  0.77325490  -0.02926888  1
  V  V1  1  0.24807069  0.38777146  0.09829115  1
  V  V2  1  0.19299438  0.14323446  0.49931914  1
  V  V3  1  0.29415807  0.89850943  0.15855707  1
  V  V4  1  0.38599913  0.64821771  0.69138268  1
  V  V5  1  0.49722643  0.70757284  0.23438992  1
  V  V6  1  0.02495206  0.81650564  0.72574441  1
  V  V7  1  0.35965098  0.22420221  0.75915702  1
  V  V8  1  0.07405022  0.00805697  0.51744417  1
  V  V9  1  0.14325400  0.26285374  0.37330814  1
  V  V10  1  0.64144322  0.01395540  0.09294302  1
  V  V11  1  0.81676197  0.63958280  0.68569429  1
  V  V12  1  0.71176794  0.85791910  0.16809301  1
  V  V13  1  0.24789499  0.53118562  0.72949014  1
  V  V14  1  0.12159392  0.50478867  0.09017413  1
  V  V15  1  0.62407398  0.89033560  0.75473275  1
  V  V16  1  0.87666998  0.54917089  0.88935259  1
  V  V17  1  0.86003870  0.56980007  0.24174182  1
  V  V18  1  0.14044639  0.36561391  0.70360496  1
  V  V19  1  0.81794562  0.85885674  0.53135281  1
  V  V20  1  0.03534239  0.69624579  0.40167000  1
  V  V21  1  0.09825658  0.37839163  0.23440759  1
  V  V22  1  0.49077790  0.36283249  0.38274959  1
  V  V23  1  0.49909144  0.01607481  0.50345867  1
  V  V24  1  0.35847460  0.60609338  0.23130756  1
  V  V25  1  0.11578769  0.10681854  0.00404760  1
  V  V26  1  0.48941918  0.86232661  0.35563182  1
  V  V27  1  0.71702001  0.56936913  0.35238177  1
  V  V28  1  -0.02891077  0.29326730  0.75975416  1
  V  V29  1  0.65524586  0.32935485  0.91821314  1
  V  V30  1  0.37489937  0.89110061  0.48586867  1
  V  V31  1  0.37695878  0.55420024  0.87854100  1
  V  V32  1  0.85155451  0.75711967  0.19444733  1
  V  V33  1  0.88750336  0.13102721  0.77463755  1
  V  V34  1  0.24259675  0.16611678  0.88512726  1
  V  V35  1  0.36859610  0.14023321  0.25265922  1
  V  V36  1  0.13759066  0.58381069  0.49927362  1
  V  V37  1  0.85088426  0.24597945  0.13164091  1
  V  V38  1  0.43069336  0.15482585  0.08321110  1
  V  V39  1  -0.02204803  0.57440743  0.60039986  1
  V  V40  1  0.44145934  -0.02286879  0.01169403  1
  V  V41  1  0.60857251  0.39666444  0.75398880  1
  V  V42  1  0.25379880  0.48702873  0.28425528  1
  V  V43  1  0.01281321  0.14801361  0.62901186  1
  V  V44  1  0.61316071  0.71856325  0.37456189  1
  V  V45  1  -0.04516920  0.12255695  0.18639090  1
  V  V46  1  0.49097732  0.26346400  0.21247797  1
  V  V47  1  0.72802831  0.50527883  0.72085990  1
  V  V48  1  0.93614457  0.30717014  0.00272574  1
  V  V49  1  0.03607362  -0.01805034  0.20441245  1
  V  V50  1  0.65019526  0.68011590  -0.00215580  1
  Zn  Zn51  1  0.82557383  0.37876382  0.85402521  1
  Zn  Zn52  1  0.52751130  0.79842089  0.06687986  1
  Zn  Zn53  1  0.87470855  0.93948587  0.24295828  1
  Zn  Zn54  1  0.63970826  0.67998483  0.74791122  1
  Zn  Zn55  1  0.67354419  0.87080620  1.00165435  1
  Zn  Zn56  1  0.92055943  0.12169476  0.96471280  1
  Zn  Zn57  1  0.47576281  0.18515286  0.39645871  1
  Zn  Zn58  1  0.24369400  0.97376724  0.44297975  1
  Zn  Zn59  1  0.31913653  0.53217693  0.06631077  1
  Zn  Zn60  1  0.58110349  -0.00921721  0.90143397  1
  Zn  Zn61  1  1.07604472  1.00455659  0.71404210  1
  Zn  Zn62  1  0.40242567  0.70831508  0.38495463  1
  Zn  Zn63  1  0.39078144  0.42174771  0.19404111  1
  Zn  Zn64  1  0.37858228  1.01216864  0.34955696  1
  Zn  Zn65  1  0.22341221  0.23540450  0.21056396  1
  Zn  Zn66  1  0.68351248  0.51324446  0.89112505  1
  Zn  Zn67  1  0.15859114  0.92093473  1.05680066  1
  Zn  Zn68  1  0.91670713  0.73263107  0.87570311  1
  Zn  Zn69  1  0.12828117  0.27980089  0.57789563  1
  Zn  Zn70  1  0.86972360  0.59529079  0.43611747  1
  Zn  Zn71  1  0.52550403  0.55110666  0.79542308  1
  Zn  Zn72  1  0.00661000  0.82214517  0.53159183  1
  Zn  Zn73  1  0.51571393  0.30790907  0.03270849  1
  Zn  Zn74  1  0.27958033  0.04720284  0.06567697  1
  Zn  Zn75  1  0.36002927  0.10567271  0.60361045  1
  Zn  Zn76  1  -0.07164329  0.47239366  0.74033237  1
  Zn  Zn77  1  0.71988601  0.68322314  0.51570146  1
  Zn  Zn78  1  0.21554463  0.03758342  0.26000016  1
  Zn  Zn79  1  0.46973734  0.97635993  0.19804661  1
  Zn  Zn80  1  0.41941720  0.11429723  0.90452734  1
  Zn  Zn81  1  0.49843253  0.56850166  0.35082358  1
  Zn  Zn82  1  0.07065572  0.26041098  0.10954261  1
  Zn  Zn83  1  0.68841251  0.66291850  0.18903418  1
  Zn  Zn84  1  0.43801582  0.94128199  0.65614884  1
  Zn  Zn85  1  0.05064621  0.14669701  0.83480820  1
  Zn  Zn86  1  0.32500355  0.32042817  0.31650743  1
  Zn  Zn87  1  0.94589245  0.43882888  0.12938013  1
  Zn  Zn88  1  0.83097891  0.82233486  0.76957874  1
  Zn  Zn89  1  0.49879609  0.70722528  0.88908872  1
  Zn  Zn90  1  0.39971564  0.82164409  0.78655850  1
  Zn  Zn91  1  0.34173430  0.59121732  0.50321632  1
  Zn  Zn92  1  0.88666410  0.38329682  0.26140029  1
  Zn  Zn93  1  0.11308363  0.65080955  0.68640378  1
  Zn  Zn94  1  1.04604083  0.09174278  0.34390267  1
  Zn  Zn95  1  0.65300685  0.22070925  0.09305140  1
  Zn  Zn96  1  0.40412462  0.42149393  0.75538840  1
  Zn  Zn97  1  -0.00949146  0.79941469  0.25387221  1
  Zn  Zn98  1  0.54145842  0.39035645  0.57164368  1
  Zn  Zn99  1  0.86470173  0.64406215  0.04999166  1
  Zn  Zn100  1  0.82252060  0.03495514  0.11450209  1
  Zn  Zn101  1  0.18211229  0.16033937  0.69845532  1
  O  O102  1  0.04307456  0.07921207  0.16001857  1
  O  O103  1  0.12101492  0.16715207  0.59216976  1
  O  O104  1  0.12140070  0.61575761  0.11326619  1
  O  O105  1  0.07611211  0.61565545  0.58634175  1
  O  O106  1  0.64918804  0.10927185  0.08568522  1
  O  O107  1  0.65472047  0.19728628  0.64348591  1
  O  O108  1  0.64436667  0.65037152  0.08952898  1
  O  O109  1  0.52302511  0.56417842  0.57307704  1
  O  O110  1  0.39361526  0.35758239  0.39044609  1
  O  O111  1  0.11619744  0.36388227  0.89492827  1
  O  O112  1  0.40697738  0.81741910  0.41117043  1
  O  O113  1  0.40089416  0.92334847  0.75332519  1
  O  O114  1  0.86441724  0.37275842  0.36874934  1
  O  O115  1  0.90923443  0.35928011  0.92874192  1
  O  O116  1  0.76684110  0.91239271  0.44909966  1
  O  O117  1  0.85526899  0.93802575  0.79367529  1
  O  O118  1  0.26820755  -0.00980667  0.34035356  1
  O  O119  1  0.22519514  0.00304287  0.77117685  1
  O  O120  1  0.25797444  0.48054429  0.37522716  1
  O  O121  1  0.07245839  0.41646096  0.90055796  1
  O  O122  1  0.73868367  -0.00347005  0.32049223  1
  O  O123  1  0.83914809  -0.02116498  0.95412997  1
  O  O124  1  0.70722006  0.47844046  0.35990400  1
  O  O125  1  0.79290973  0.48986223  0.87202186  1
  O  O126  1  0.22427407  0.49839019  0.12219405  1
  O  O127  1  0.26603803  0.51549633  0.64056640  1
  O  O128  1  0.25078888  0.99079269  0.16204919  1
  O  O129  1  0.25857664  1.06939208  0.66510042  1
  O  O130  1  0.73202274  0.50114452  0.06493483  1
  O  O131  1  0.69179627  0.50603520  0.63701151  1
  O  O132  1  0.72931374  0.97470526  0.13051901  1
  O  O133  1  0.81088070  0.93546567  0.61044295  1
  O  O134  1  0.00019296  0.39057209  0.22752536  1
  O  O135  1  -0.09882836  0.36872013  0.76845121  1
  O  O136  1  -0.01800167  0.91282204  0.26058309  1
  O  O137  1  0.06616532  0.90515942  0.74271469  1
  O  O138  1  0.47786427  0.35997620  0.21519902  1
  O  O139  1  0.51480113  0.43122480  0.76765410  1
  O  O140  1  0.47169505  0.80795955  0.27584105  1
  O  O141  1  0.53375233  0.90564759  0.71112163  1
  O  O142  1  0.46031879  0.15381784  0.19060256  1
  O  O143  1  0.54611828  0.09603248  0.71470878  1
  O  O144  1  0.47329476  0.60565295  0.23775911  1
  O  O145  1  0.45509106  0.58226013  0.71486784  1
  O  O146  1  0.95610833  0.12232360  0.28219263  1
  O  O147  1  1.09107521  0.10800257  0.73941403  1
  O  O148  1  0.94717550  0.59925065  0.25118010  1
  O  O149  1  0.92513796  0.63469521  0.65835004  1
  O  O150  1  0.37872178  0.34947397  -0.05468366  1
  O  O151  1  0.42975417  0.21289431  0.50290038  1
  O  O152  1  0.34844514  0.73713386  0.02062726  1
  O  O153  1  0.53313724  0.75314982  0.57728822  1
  O  O154  1  0.89197953  0.21772852  0.01085001  1
  O  O155  1  0.90020489  0.30511866  0.39068405  1
  O  O156  1  0.89490511  0.73604628  -0.01441292  1
  O  O157  1  0.90280021  0.82976373  0.49686121  1
  O  O158  1  0.15861751  0.24886298  0.47548405  1
  O  O159  1  0.13385907  0.17809358  1.06438017  1
  O  O160  1  0.06473286  0.74892165  0.47774940  1
  O  O161  1  0.18778323  0.72309271  1.09775557  1
  O  O162  1  0.75047355  0.21892056  0.50978080  1
  O  O163  1  0.61553895  0.27430083  0.99661972  1
  O  O164  1  0.62315322  0.70626255  0.46926963  1
  O  O165  1  0.68378783  0.77311104  0.95095737  1
  O  O166  1  0.45205147  0.25952400  0.10651384  1
  O  O167  1  0.61881019  0.17231294  0.59007431  1
  O  O168  1  0.47939532  0.73766672  0.14490393  1
  O  O169  1  0.55040997  0.70564438  0.62651986  1
  O  O170  1  0.97106445  0.21477699  0.14957518  1
  O  O171  1  1.00413722  0.24229295  0.67541246  1
  O  O172  1  0.94077363  0.78024107  0.15817461  1
  O  O173  1  0.98585479  0.81744974  0.63921244  1
  O  O174  1  0.08644462  0.19292387  0.34215101  1
  O  O175  1  0.01367877  0.25386097  0.83572446  1
  O  O176  1  -0.05779272  0.67486199  0.41382322  1
  O  O177  1  -0.04911005  0.79696999  0.79321457  1
  O  O178  1  0.51255391  0.26788556  0.32971657  1
  O  O179  1  0.64625587  0.14593218  0.84065279  1
  O  O180  1  0.51000677  0.69204115  0.35156012  1
  O  O181  1  0.45917784  0.80587336  0.87269849  1
  O  O182  1  0.27860659  0.15006209  0.54036636  1
  O  O183  1  0.30678655  0.10037390  0.91526227  1
  O  O184  1  0.23132968  0.60856492  0.50365056  1
  O  O185  1  0.18984100  0.65245036  1.09041746  1
  O  O186  1  0.71276122  0.05937880  0.47801559  1
  O  O187  1  0.84021946  0.05290933  1.00345203  1
  O  O188  1  0.75866087  0.61015567  0.43925665  1
  O  O189  1  0.76369183  0.68228675  1.00880993  1
  O  O190  1  0.22948282  0.38279567  0.00921133  1
  O  O191  1  0.36910693  0.26242275  0.50167680  1
  O  O192  1  0.25025395  0.86383818  0.07888261  1
  O  O193  1  0.27765236  0.87467558  0.48062658  1
  O  O194  1  0.75630149  0.43647232  0.06888638  1
  O  O195  1  0.76174502  0.38157022  0.50851895  1
  O  O196  1  0.78619631  0.85306692  0.02560643  1
  O  O197  1  0.75542461  0.78730756  0.53489739  1
  O  O198  1  0.15053165  0.45860165  0.26532277  1
  O  O199  1  0.15856286  0.57382211  0.74040324  1
  O  O200  1  0.10065840  1.01552486  0.27556927  1
  O  O201  1  0.27998994  1.02408525  0.72961173  1
  O  O202  1  0.61475812  0.40179918  0.12408039  1
  O  O203  1  0.63392122  0.50323955  0.78699178  1
  O  O204  1  0.57218692  0.98813535  0.15487472  1
  O  O205  1  0.64037697  0.98245787  0.80122702  1
  O  O206  1  0.38492326  0.04418609  0.23128276  1
  O  O207  1  0.50605548  0.07423961  0.76818124  1
  O  O208  1  0.36996233  0.50820047  0.26226585  1
  O  O209  1  0.33235123  0.49837917  0.79666408  1
  O  O210  1  0.81227755  0.01610333  0.29771366  1
  O  O211  1  0.89626452  -0.02402554  0.75054031  1
  O  O212  1  0.86538496  0.47491782  0.20080739  1
  O  O213  1  0.83031335  0.52664028  0.70808592  1
  O  O214  1  0.10098871  0.34523471  0.34270601  1
  O  O215  1  0.04834004  0.36739074  0.74706510  1
  O  O216  1  0.20484918  0.79173242  0.37588819  1
  O  O217  1  0.10993603  0.86784625  0.91446610  1
  O  O218  1  0.68569293  0.29420557  0.39202395  1
  O  O219  1  0.64523260  0.42147802  0.94139541  1
  O  O220  1  0.57780703  0.82529296  0.37489329  1
  O  O221  1  0.57474735  0.88694301  0.84936193  1
  O  O222  1  0.33484391  0.14195831  0.08429327  1
  O  O223  1  0.38243810  0.18869921  0.67252103  1
  O  O224  1  0.35271023  0.61139242  0.13569190  1
  O  O225  1  0.37366362  0.64095189  0.59557535  1
  O  O226  1  0.85254739  0.14030002  0.14902077  1
  O  O227  1  0.93709618  0.10592454  0.68768414  1
  O  O228  1  0.84737879  0.65279168  0.15994479  1
  O  O229  1  0.77827331  0.64048257  0.59988550  1
  O  O230  1  0.25663824  0.29515884  0.12801383  1
  O  O231  1  0.36437118  0.30944853  0.55499272  1
  O  O232  1  0.28187294  0.80880577  0.22154159  1
  O  O233  1  0.23283366  0.82777294  0.76793975  1
  O  O234  1  0.75968856  0.25117139  0.10150729  1
  O  O235  1  0.78809137  0.18625314  0.55692945  1
  O  O236  1  0.74287341  0.75818556  0.16983698  1
  O  O237  1  0.62668877  0.68438856  0.63355900  1
  O  O238  1  0.23108729  0.26229078  0.32588012  1
  O  O239  1  0.25938322  0.24382274  0.92980956  1
  O  O240  1  0.23526310  0.73313736  0.39513754  1
  O  O241  1  0.30880613  0.75259472  0.96712460  1
  O  O242  1  0.82016595  0.14910620  0.39104325  1
  O  O243  1  0.74855586  0.31275200  0.90176639  1
  O  O244  1  0.69990820  0.73109887  0.33922174  1
  O  O245  1  0.81533699  0.79679044  0.87600703  1
  O  O246  1  0.02212218  0.08665482  -0.00092314  1
  O  O247  1  -0.02889778  0.16441873  0.55014720  1
  O  O248  1  0.10750548  0.69518348  -0.04943136  1
  O  O249  1  -0.06967385  0.55557267  0.51971555  1
  O  O250  1  0.46138107  0.17050568  -0.00787550  1
  O  O251  1  0.50900041  0.09315518  0.44482588  1
  O  O252  1  0.55247873  0.71909555  -0.01164170  1
  O  O253  1  0.59642527  0.47876670  0.51357430  1
  O  O254  1  0.52296023  0.34674550  0.47349474  1
  O  O255  1  0.44540457  0.33011527  0.93119237  1
  O  O256  1  0.48715773  0.92289114  0.45745530  1
  O  O257  1  0.48577986  0.89202002  1.02451413  1
  O  O258  1  0.88294533  0.28366893  0.45617622  1
  O  O259  1  1.03265297  0.30402345  1.01608843  1
  O  O260  1  1.06504504  0.91431857  0.51082624  1
  O  O261  1  1.08925970  0.86000646  0.98835095  1
  O  O262  1  0.51288270  0.45280476  0.35706883  1
  O  O263  1  0.46305914  0.51101726  0.88582030  1
  O  O264  1  0.47278587  0.95228703  0.31245735  1
  O  O265  1  0.47537122  1.01778479  0.92309464  1
  O  O266  1  0.99552052  0.40017406  0.48156944  1
  O  O267  1  0.95081214  0.50343865  0.84464990  1
  O  O268  1  1.03197868  1.05403243  0.44482247  1
  O  O269  1  1.17040179  0.90570104  0.90195487  1
  O  O270  1  -0.07687157  0.01419332  0.17000260  1
  O  O271  1  0.04207074  0.03801777  0.60900421  1
  O  O272  1  0.02328853  0.50659620  0.10914375  1
  O  O273  1  -0.01235884  0.49375697  0.65073106  1
  O  O274  1  0.46014263  0.05040944  0.07971361  1
  O  O275  1  0.44046937  0.03245423  0.59271984  1
  O  O276  1  0.56724795  0.44902273  0.09909417  1
  O  O277  1  0.38515156  0.45340307  0.58974378  1
  O  O278  1  0.28694189  0.39495987  0.24388871  1
  O  O279  1  0.20146325  0.42937810  0.74599450  1
  O  O280  1  0.24581210  0.86820158  0.25331984  1
  O  O281  1  0.28268180  0.81024431  0.82096711  1
  O  O282  1  0.72752412  0.26173641  0.34651018  1
  O  O283  1  0.72032267  0.40563321  0.74655860  1
  O  O284  1  0.66966721  0.87641943  0.24721725  1
  O  O285  1  0.71870155  0.86423910  0.77734463  1
  O  O286  1  0.26682192  0.13800410  0.23473255  1
  O  O287  1  0.26289304  0.18398109  0.78458081  1
  O  O288  1  0.25807837  0.58730315  0.26127844  1
  O  O289  1  0.29792649  0.62654355  0.73728015  1
  O  O290  1  0.68840372  0.04577683  0.30920959  1
  O  O291  1  0.80170382  0.09696103  0.78126941  1
  O  O292  1  0.74427412  0.59395396  0.25209548  1
  O  O293  1  0.72809651  0.61516699  0.74461743  1
  O  O294  1  0.38831594  0.13138870  0.34845573  1
  O  O295  1  0.42054039  0.18692190  0.82398710  1
  O  O296  1  0.40632553  0.60500790  0.41690206  1
  O  O297  1  0.40084799  0.64785975  0.87125795  1
  O  O298  1  0.86301295  0.11526347  0.43248471  1
  O  O299  1  0.94454640  0.10867406  0.85673491  1
  O  O300  1  0.84243607  0.54679215  0.33817717  1
  O  O301  1  0.87223507  0.63631907  0.84639227  1
  O  O302  1  0.12983634  0.39865915  0.13227497  1
  O  O303  1  0.12392633  0.38246694  0.60948951  1
  O  O304  1  0.08458864  0.92822180  0.14258254  1
  O  O305  1  0.25900327  0.84510489  0.70310099  1
  O  O306  1  0.51215962  0.42230544  0.05270695  1
  O  O307  1  0.59687269  0.36418602  0.66239112  1
  O  O308  1  0.63362641  0.84325855  0.10261292  1
  O  O309  1  0.65764904  0.92392717  0.67009200  1
  O  O310  1  0.11802451  0.28066520  0.20906471  1
  O  O311  1  0.17529795  0.27334469  0.69760715  1
  O  O312  1  0.05164695  0.74652044  0.31921589  1
  O  O313  1  0.09407628  0.74621323  0.72725207  1
  O  O314  1  0.58280356  0.24729672  0.17981845  1
  O  O315  1  0.61054101  0.32349432  0.82525030  1
  O  O316  1  0.59440757  0.70683935  0.23622273  1
  O  O317  1  0.61358815  0.79251292  0.74333751  1
  O  O318  1  0.38060368  0.24602165  0.25040004  1
  O  O319  1  0.36655800  0.32010066  0.75935363  1
  O  O320  1  0.36968176  0.69567332  0.27502702  1
  O  O321  1  0.41170107  0.73919487  0.71617004  1
  O  O322  1  0.84854090  0.28661374  0.21885950  1
  O  O323  1  0.88279932  0.22938051  0.76693385  1
  O  O324  1  0.86826374  0.75352859  0.28589640  1
  O  O325  1  0.81834644  0.73146649  0.71317385  1
  O  O326  1  0.40534037  0.47825477  0.52447999  1
  O  O327  1  0.32497846  0.54565019  0.96091879  1
  O  O328  1  0.36369120  0.99144157  0.46339665  1
  O  O329  1  0.34494938  0.97504384  1.00723049  1
  O  O330  1  0.94341664  0.38774206  0.52590829  1
  O  O331  1  0.89182549  0.55897226  0.98555077  1
  O  O332  1  0.82293913  0.95938875  0.46209980  1
  O  O333  1  0.90262063  0.95083416  0.94043350  1
  O  O334  1  0.17412504  0.02818696  0.02644684  1
  O  O335  1  0.17434970  0.03242539  0.51306827  1
  O  O336  1  0.13277462  0.50443416  -0.00049260  1
  O  O337  1  0.12929740  0.49308616  0.49877553  1
  O  O338  1  0.63473821  -0.02597936  -0.00314007  1
  O  O339  1  0.58361893  0.00628404  0.53978270  1
  O  O340  1  0.65011816  0.60395035  -0.06192464  1
  O  O341  1  0.57225204  0.54975624  0.52161206  1
  O  O342  1  0.34784727  0.42562941  0.09490344  1
  O  O343  1  0.44257628  0.42142817  0.63185573  1
  O  O344  1  0.39075279  0.90711914  0.15316777  1
  O  O345  1  0.39799063  0.87571707  0.57712731  1
  O  O346  1  0.89591120  0.34524129  0.08955710  1
  O  O347  1  0.78248555  0.36746505  0.57219355  1
  O  O348  1  0.81877067  0.86592166  0.18883472  1
  O  O349  1  0.83422579  0.86915980  0.64037910  1
  O  O350  1  0.20757071  0.12761101  0.40875594  1
  O  O351  1  0.13988052  0.13767590  0.90659573  1
  O  O352  1  0.09552063  0.61357499  0.41108343  1
  O  O353  1  0.16828349  0.71335188  0.92170343  1
  O  O354  1  0.67788971  0.10598629  0.44174287  1
  O  O355  1  0.63774976  0.10780232  0.89845885  1
  O  O356  1  0.62038218  0.60245798  0.35800465  1
  O  O357  1  0.56221861  0.65411444  0.81613695  1
