# generated using pymatgen
data_V51Zn51O256
_symmetry_space_group_name_H-M   'P 1'
_cell_length_a   17.44176474
_cell_length_b   17.56852933
_cell_length_c   17.69715111
_cell_angle_alpha   89.06109560
_cell_angle_beta   87.51687323
_cell_angle_gamma   88.42147282
_symmetry_Int_Tables_number   1
_chemical_formula_structural   V51Zn51O256
_chemical_formula_sum   'V51 Zn51 O256'
_cell_volume   5415.09531892
_cell_formula_units_Z   1
loop_
 _symmetry_equiv_pos_site_id
 _symmetry_equiv_pos_as_xyz
  1  'x, y, z'
loop_
 _atom_site_type_symbol
 _atom_site_label
 _atom_site_symmetry_multiplicity
 _atom_site_fract_x
 _atom_site_fract_y
 _atom_site_fract_z
 _atom_site_occupancy
  V  V0  1  0.70360105  0.13208361  0.86521162  1
  V  V1  1  0.13111816  0.39307475  0.25738151  1
  V  V2  1  0.52395108  0.11524448  0.16705603  1
  V  V3  1  0.69901572  0.29006929  0.44615202  1
  V  V4  1  0.27813028  0.77030748  0.48359511  1
  V  V5  1  0.88846108  0.62122335  0.23507210  1
  V  V6  1  0.90220028  -0.00481597  0.89698355  1
  V  V7  1  -0.00836668  0.36569993  0.35217880  1
  V  V8  1  0.71944407  0.01173396  0.74419235  1
  V  V9  1  0.50728645  0.91230900  0.40710580  1
  V  V10  1  0.61884246  0.75577187  0.37085197  1
  V  V11  1  0.87755534  0.21324154  0.59413247  1
  V  V12  1  0.50882894  0.51402989  -0.01628980  1
  V  V13  1  0.40052478  0.27885338  0.14154438  1
  V  V14  1  0.38747539  0.72692307  0.14973966  1
  V  V15  1  0.32277016  0.05264099  0.29476323  1
  V  V16  1  0.51853432  0.74552271  0.24338454  1
  V  V17  1  0.23672704  0.41401884  0.12509565  1
  V  V18  1  -0.00535905  0.76460777  0.73932872  1
  V  V19  1  0.17654472  0.76773283  0.32963096  1
  V  V20  1  0.38224944  0.86068677  0.01041460  1
  V  V21  1  0.62200661  0.64606115  0.50016379  1
  V  V22  1  0.75500975  0.84728205  0.09235705  1
  V  V23  1  0.11059713  0.57820503  0.51691364  1
  V  V24  1  0.15943340  0.66780239  -0.00308543  1
  V  V25  1  0.88855862  0.35852154  0.49449459  1
  V  V26  1  0.74150793  0.34202708  0.63606313  1
  V  V27  1  0.26701372  0.10180142  0.92259276  1
  V  V28  1  0.85370866  -0.05345860  0.36327765  1
  V  V29  1  0.11489796  -0.04088552  0.52218074  1
  V  V30  1  0.46577598  -0.00648995  0.55232641  1
  V  V31  1  0.74790330  -0.00586493  0.22871760  1
  V  V32  1  0.63189551  0.76128797  0.85809625  1
  V  V33  1  0.77047272  0.80057042  0.45857567  1
  V  V34  1  -0.01767776  0.66551156  0.60872278  1
  V  V35  1  0.92777608  0.13357316  0.76726086  1
  V  V36  1  0.03434245  0.10897523  0.60259671  1
  V  V37  1  0.62616037  0.86973059  0.20638423  1
  V  V38  1  0.60916636  0.16718563  0.00462575  1
  V  V39  1  0.89306296  0.84080969  -0.01489065  1
  V  V40  1  0.22386038  0.31901903  0.70466355  1
  V  V41  1  0.11429742  -0.02330194  0.14066990  1
  V  V42  1  0.62626192  0.12198420  0.49803706  1
  V  V43  1  0.06039984  0.47179784  0.64215869  1
  V  V44  1  0.38034245  0.57053261  0.24872395  1
  V  V45  1  0.75307428  0.50317725  0.27317436  1
  V  V46  1  0.17453703  0.27115396  0.04125747  1
  V  V47  1  0.86236188  0.81923881  0.62208439  1
  V  V48  1  0.53882374  0.61874459  0.12070260  1
  V  V49  1  0.87587430  0.50572594  0.39198514  1
  V  V50  1  0.65575874  0.50556283  0.07876142  1
  Zn  Zn51  1  0.03490438  0.38928494  0.07679474  1
  Zn  Zn52  1  0.31338376  0.54179694  0.00418926  1
  Zn  Zn53  1  0.85689769  0.49324243  0.11415790  1
  Zn  Zn54  1  0.99998839  0.49540582  0.21088195  1
  Zn  Zn55  1  0.17584602  0.45677535  0.94660982  1
  Zn  Zn56  1  0.09094811  0.77308002  0.48415315  1
  Zn  Zn57  1  0.56939243  0.79125169  0.05278762  1
  Zn  Zn58  1  0.18703674  0.12628836  0.73360364  1
  Zn  Zn59  1  0.70807817  0.15130800  0.65175248  1
  Zn  Zn60  1  0.80946244  0.26386852  0.79406599  1
  Zn  Zn61  1  0.08562718  0.59288547  0.31223233  1
  Zn  Zn62  1  0.69545748  0.93724612  0.91843661  1
  Zn  Zn63  1  0.91198003  0.91568744  0.16932909  1
  Zn  Zn64  1  0.05974315  -0.06521126  0.33739799  1
  Zn  Zn65  1  0.98006864  0.19825533  0.44164895  1
  Zn  Zn66  1  0.68804249  0.71890990  0.66191689  1
  Zn  Zn67  1  0.16092610  0.80804559  0.63357898  1
  Zn  Zn68  1  0.76804046  0.04362250  0.04072528  1
  Zn  Zn69  1  0.07197523  0.83205408  0.06213658  1
  Zn  Zn70  1  0.82180511  0.84261418  0.80515547  1
  Zn  Zn71  1  1.00895990  0.23525376  0.92322838  1
  Zn  Zn72  1  0.08565467  0.25706843  0.60005166  1
  Zn  Zn73  1  0.59274730  0.31662512  0.13077534  1
  Zn  Zn74  1  0.10350006  0.38076961  0.47346716  1
  Zn  Zn75  1  0.21332275  0.64876352  0.19261247  1
  Zn  Zn76  1  0.23615311  0.22176112  0.23015226  1
  Zn  Zn77  1  0.44142259  0.93436875  0.18543641  1
  Zn  Zn78  1  0.66338951  0.16824316  0.21843641  1
  Zn  Zn79  1  0.23795223  0.47707609  0.57015635  1
  Zn  Zn80  1  0.75757807  0.64218344  0.12700271  1
  Zn  Zn81  1  0.29627193  0.98073879  0.47631553  1
  Zn  Zn82  1  0.81619388  0.01539864  0.55912944  1
  Zn  Zn83  1  0.32111606  0.89386485  0.33270191  1
  Zn  Zn84  1  0.61103228  0.58817147  0.30027033  1
  Zn  Zn85  1  0.58375760  0.57713080  0.82306225  1
  Zn  Zn86  1  0.44652679  0.66356285  0.41572787  1
  Zn  Zn87  1  0.50205831  0.10791628  0.35624273  1
  Zn  Zn88  1  0.74206122  0.47335465  0.52182938  1
  Zn  Zn89  1  0.54888893  0.79862513  0.56210532  1
  Zn  Zn90  1  0.62689985  0.36643319  0.97696479  1
  Zn  Zn91  1  0.37531036  1.06622503  0.70473122  1
  Zn  Zn92  1  0.83895441  0.66359413  0.49911944  1
  Zn  Zn93  1  0.58055252  0.27371292  0.57382361  1
  Zn  Zn94  1  0.42468267  0.19431883  0.97872596  1
  Zn  Zn95  1  0.33204933  0.38453776  0.26703485  1
  Zn  Zn96  1  0.86656261  0.43102892  0.67023401  1
  Zn  Zn97  1  0.43947741  0.44777300  0.12477873  1
  Zn  Zn98  1  0.07704832  0.07357778  0.89291356  1
  Zn  Zn99  1  0.79409780  0.79546042  0.28099310  1
  Zn  Zn100  1  0.72454627  0.34052834  0.24914999  1
  Zn  Zn101  1  0.67133025  0.95062114  0.41735359  1
  O  O102  1  0.09761122  0.07078252  0.11840537  1
  O  O103  1  0.11775424  0.14686110  0.63301303  1
  O  O104  1  0.16581566  0.64897696  0.09812683  1
  O  O105  1  0.03170545  0.56241594  0.59519928  1
  O  O106  1  0.61118927  0.13621629  0.11387132  1
  O  O107  1  0.61856405  0.16837674  0.59012184  1
  O  O108  1  0.64142159  0.61595653  0.11442936  1
  O  O109  1  0.61309374  0.69825981  0.59066611  1
  O  O110  1  0.34228547  0.38204404  0.38170198  1
  O  O111  1  0.20305064  0.37324093  0.86020947  1
  O  O112  1  0.42922857  0.88647139  0.36193406  1
  O  O113  1  0.38778560  0.85617934  0.91399579  1
  O  O114  1  0.88773975  0.36447515  0.38776204  1
  O  O115  1  0.89231366  0.34167564  0.81050510  1
  O  O116  1  0.83648662  0.84600810  0.37646071  1
  O  O117  1  0.87477389  0.89442350  0.89182454  1
  O  O118  1  0.27602487  0.00016986  0.36875274  1
  O  O119  1  0.30034012  0.01190265  0.89877379  1
  O  O120  1  0.28576239  0.41435173  0.42580513  1
  O  O121  1  0.26751959  0.50193103  0.91980914  1
  O  O122  1  0.74484544  -0.03236963  0.33438020  1
  O  O123  1  0.72106212  0.02789279  0.86117642  1
  O  O124  1  0.76963715  0.48680721  0.37136645  1
  O  O125  1  0.81170586  0.59569756  0.86044512  1
  O  O126  1  0.24550994  0.50332537  0.09480333  1
  O  O127  1  0.25385602  0.40246440  0.65413846  1
  O  O128  1  0.21119939  0.99026112  0.13553306  1
  O  O129  1  0.20419115  0.99055273  0.53711642  1
  O  O130  1  0.75624072  0.52620150  0.08301996  1
  O  O131  1  0.76311398  0.44469477  0.62992282  1
  O  O132  1  0.75460431  0.97826776  0.12704696  1
  O  O133  1  0.75102577  1.04607830  0.64821823  1
  O  O134  1  0.00660111  0.37851720  0.25514728  1
  O  O135  1  -0.15532388  0.46123271  0.78283743  1
  O  O136  1  -0.03069700  0.80907765  0.19936053  1
  O  O137  1  0.11183704  0.87679960  0.85488612  1
  O  O138  1  0.47086491  0.46649679  0.42270066  1
  O  O139  1  0.62496808  0.44264242  0.80293182  1
  O  O140  1  0.52159464  0.85898499  0.21284976  1
  O  O141  1  0.50319996  0.86881169  0.70617703  1
  O  O142  1  0.56124710  0.12454292  0.25731604  1
  O  O143  1  0.42795259  0.15541063  0.63551001  1
  O  O144  1  0.54181054  0.64319500  0.23475948  1
  O  O145  1  0.48437984  0.61339074  0.75107952  1
  O  O146  1  0.99145934  0.11825995  0.28029132  1
  O  O147  1  0.98103716  0.08831190  0.69601788  1
  O  O148  1  0.98764064  0.61132253  0.24692984  1
  O  O149  1  0.99099101  0.66315236  0.70800035  1
  O  O150  1  0.37197857  0.25521042  0.05419060  1
  O  O151  1  0.44558197  0.40701124  0.56477302  1
  O  O152  1  0.38213629  0.75856582  0.02774386  1
  O  O153  1  0.35698011  0.71311588  0.46397822  1
  O  O154  1  0.91258663  0.28065918  -0.01908021  1
  O  O155  1  0.88656325  0.24698522  0.49260861  1
  O  O156  1  0.87222435  0.75307715  -0.02877741  1
  O  O157  1  0.85279804  0.79004724  0.51531625  1
  O  O158  1  0.14101013  0.28803404  0.51262997  1
  O  O159  1  0.07771677  0.28543695  1.04080832  1
  O  O160  1  0.19212203  0.74231530  0.42942050  1
  O  O161  1  0.15486577  0.76708499  1.02582373  1
  O  O162  1  0.60486329  0.31179956  0.47108141  1
  O  O163  1  0.61467591  0.26475972  1.02576723  1
  O  O164  1  0.59320733  0.76087451  0.46677108  1
  O  O165  1  0.62426481  0.76190963  0.95955331  1
  O  O166  1  0.48236461  0.34019417  0.14014885  1
  O  O167  1  0.47788469  0.27203844  0.62637965  1
  O  O168  1  0.51480129  0.73046455  0.12938654  1
  O  O169  1  0.44649868  0.74602244  0.60921483  1
  O  O170  1  0.91665820  0.32359508  0.03723685  1
  O  O171  1  0.97984203  0.21879143  0.61469007  1
  O  O172  1  1.00609097  0.77097293  0.14683728  1
  O  O173  1  0.96205178  0.76622978  0.60596433  1
  O  O174  1  0.00583729  0.26886316  0.36404405  1
  O  O175  1  0.03902810  0.33259695  0.87246445  1
  O  O176  1  -0.03620013  0.72064165  0.40699176  1
  O  O177  1  -0.00645112  0.76003186  0.83078454  1
  O  O178  1  0.45245694  0.25726016  0.34960493  1
  O  O179  1  0.45459390  0.28007681  0.89259870  1
  O  O180  1  0.51092812  0.74014634  0.34623040  1
  O  O181  1  0.53317405  0.76855661  0.84822859  1
  O  O182  1  0.16029790  0.20842463  0.41001052  1
  O  O183  1  0.29144161  0.10039833  1.02010482  1
  O  O184  1  0.20337719  0.58396287  0.54050072  1
  O  O185  1  0.26490364  0.64459501  1.00420061  1
  O  O186  1  0.70647196  0.19031362  0.46584492  1
  O  O187  1  0.69611146  0.10704998  0.98777695  1
  O  O188  1  0.73703803  0.70769397  0.48890433  1
  O  O189  1  0.79829936  0.57174407  0.92543783  1
  O  O190  1  0.21636117  0.36196676  0.03079100  1
  O  O191  1  0.25535217  0.26354195  0.63043291  1
  O  O192  1  0.28432993  0.86784291  0.00942893  1
  O  O193  1  0.29543010  0.86323518  0.45842682  1
  O  O194  1  0.73889958  0.37290623  -0.07142419  1
  O  O195  1  0.75252255  0.35315270  0.50297107  1
  O  O196  1  0.74718839  0.88467752  -0.00109639  1
  O  O197  1  0.71157361  0.86951354  0.49396794  1
  O  O198  1  0.10041469  0.49994321  0.25529519  1
  O  O199  1  0.11038062  0.49778721  0.71220457  1
  O  O200  1  0.10643147  0.97851500  0.24108389  1
  O  O201  1  0.20967326  0.95045548  0.70411798  1
  O  O202  1  0.65291409  0.49245081  0.27268153  1
  O  O203  1  0.65571966  0.57203992  0.73110874  1
  O  O204  1  0.63983785  0.96216777  0.23257194  1
  O  O205  1  0.63133557  0.98624857  0.73656668  1
  O  O206  1  0.39997234  0.09888768  0.32481029  1
  O  O207  1  0.42028743  0.05439576  0.79534666  1
  O  O208  1  0.40249734  0.47228408  0.23444324  1
  O  O209  1  0.41038603  0.43501351  0.81816536  1
  O  O210  1  0.85011105  -0.03250773  0.24535837  1
  O  O211  1  0.87817100  0.05972164  0.82070418  1
  O  O212  1  0.87286812  0.52471191  0.27903998  1
  O  O213  1  0.97298723  0.55186829  0.85765854  1
  O  O214  1  0.09509409  0.39378193  0.36516919  1
  O  O215  1  0.07124395  0.42627023  0.96629594  1
  O  O216  1  0.10039561  0.83025749  0.33764290  1
  O  O217  1  0.18146894  0.86671037  0.84240931  1
  O  O218  1  0.48491829  0.31265733  0.37389151  1
  O  O219  1  0.61072594  0.38155420  0.83793623  1
  O  O220  1  0.59566428  0.87098531  0.37087824  1
  O  O221  1  0.63370674  0.86473092  0.86185292  1
  O  O222  1  0.45216633  0.18875629  0.15982463  1
  O  O223  1  0.27711541  0.09713267  0.68035228  1
  O  O224  1  0.41614774  0.62355903  0.16030265  1
  O  O225  1  0.33023412  0.55262917  0.63844696  1
  O  O226  1  0.83621063  0.16498340  0.08062789  1
  O  O227  1  0.87118875  0.11970574  0.57399875  1
  O  O228  1  0.87254595  0.61232115  0.13839951  1
  O  O229  1  0.89587142  0.63279728  0.58410008  1
  O  O230  1  0.20175571  0.23256620  0.12292740  1
  O  O231  1  0.18070644  0.24174805  0.75364945  1
  O  O232  1  0.29323600  0.72322985  0.16307547  1
  O  O233  1  0.24675025  0.76292104  0.57698622  1
  O  O234  1  0.79577411  0.22370053  0.08902151  1
  O  O235  1  0.77136851  0.23605617  0.61470214  1
  O  O236  1  0.75186357  0.75043093  0.09088222  1
  O  O237  1  0.77727953  0.77795717  0.64895757  1
  O  O238  1  0.31846209  0.23959252  0.47262916  1
  O  O239  1  0.21135176  0.19160232  0.95136079  1
  O  O240  1  0.25648356  0.81339795  0.29837439  1
  O  O241  1  0.32448612  0.70814897  0.80806400  1
  O  O242  1  0.71956224  0.30832483  0.35286198  1
  O  O243  1  0.77633770  0.19518693  0.87451598  1
  O  O244  1  0.71768544  0.77940678  0.36417434  1
  O  O245  1  0.73716668  0.77409346  0.85035340  1
  O  O246  1  0.04388232  0.14461773  -0.03513632  1
  O  O247  1  0.02919485  0.12878304  0.50599764  1
  O  O248  1  0.06071374  0.66670006  -0.00277641  1
  O  O249  1  0.06849906  0.67905480  0.53927605  1
  O  O250  1  0.51444651  0.14080936  0.00668863  1
  O  O251  1  0.53876784  0.05518653  0.54822297  1
  O  O252  1  0.51564372  0.62153573  0.02785148  1
  O  O253  1  0.52738696  0.62580884  0.48643017  1
  O  O254  1  0.45724278  0.44471901  0.62075595  1
  O  O255  1  0.52812465  0.41694466  0.97894072  1
  O  O256  1  0.50207415  0.89641805  0.51203387  1
  O  O257  1  0.48685554  0.84836680  1.00786810  1
  O  O258  1  0.98510777  0.36906761  0.49549957  1
  O  O259  1  1.02952885  0.40213383  0.89732762  1
  O  O260  1  0.98783255  0.78294644  0.42989174  1
  O  O261  1  0.99026584  0.84257405  0.99530836  1
  O  O262  1  0.53253770  0.46439563  0.38644131  1
  O  O263  1  0.50505681  0.54421427  0.89193974  1
  O  O264  1  0.53034874  1.00348508  0.39053762  1
  O  O265  1  0.54846420  1.00151204  0.91096581  1
  O  O266  1  0.97140117  0.47937239  0.37784687  1
  O  O267  1  0.87000464  0.41186772  0.83484784  1
  O  O268  1  0.95069361  0.94341288  0.34311485  1
  O  O269  1  0.99807636  0.99737756  0.90162023  1
  O  O270  1  0.00825451  -0.03400099  0.15411928  1
  O  O271  1  0.05250897  0.00733791  0.58989450  1
  O  O272  1  -0.03972741  0.46220883  0.11747748  1
  O  O273  1  -0.02488974  0.43622041  0.67438554  1
  O  O274  1  0.49240489  0.02677840  0.15441576  1
  O  O275  1  0.42364597  -0.01276038  0.64066868  1
  O  O276  1  0.54402064  0.51227816  0.12287720  1
  O  O277  1  0.48835562  0.59855638  0.68176504  1
  O  O278  1  0.23166629  0.42245085  0.23414121  1
  O  O279  1  0.19147614  0.38505049  0.78875110  1
  O  O280  1  0.35105878  0.97030349  0.23961504  1
  O  O281  1  0.24176918  0.88869975  0.68576169  1
  O  O282  1  0.78307496  0.42605377  0.21350744  1
  O  O283  1  0.75128262  0.33144534  0.73173870  1
  O  O284  1  0.73998619  0.85278420  0.20383723  1
  O  O285  1  0.77240482  0.92867760  0.75804746  1
  O  O286  1  0.25910165  0.11854964  0.25695232  1
  O  O287  1  0.25569018  0.13465136  0.82866114  1
  O  O288  1  0.28459554  0.58294022  0.24667830  1
  O  O289  1  0.31571868  0.59735490  0.69075437  1
  O  O290  1  0.74056454  0.09083304  0.23247017  1
  O  O291  1  0.69598741  0.12999356  0.76497055  1
  O  O292  1  0.75534834  0.59868348  0.23741485  1
  O  O293  1  0.71438387  0.61495438  0.71711832  1
  O  O294  1  0.36833002  0.27006265  0.50689335  1
  O  O295  1  0.36013132  0.14455734  0.91237381  1
  O  O296  1  0.41258792  0.60037888  0.33275552  1
  O  O297  1  0.37146929  0.47332878  0.77430665  1
  O  O298  1  0.96453859  0.10745288  0.34591934  1
  O  O299  1  0.97870041  0.18710343  0.82571593  1
  O  O300  1  0.87271590  0.59890861  0.41603771  1
  O  O301  1  0.95869915  0.54221709  0.92570234  1
  O  O302  1  0.12705302  0.39609537  0.14857469  1
  O  O303  1  0.12836749  0.33933563  0.66813879  1
  O  O304  1  0.13068992  0.87055493  0.15052744  1
  O  O305  1  0.11183710  0.85921579  0.54416278  1
  O  O306  1  0.65398971  0.40578497  0.08660509  1
  O  O307  1  0.64488551  0.34149196  0.62739324  1
  O  O308  1  0.63606243  0.85973791  0.10606676  1
  O  O309  1  0.55863996  0.86329575  0.65887206  1
  O  O310  1  0.15920676  0.29817694  0.26636882  1
  O  O311  1  0.11684408  0.07270340  0.79329308  1
  O  O312  1  0.14930354  0.68602386  0.27844352  1
  O  O313  1  0.08434883  0.79793893  0.70948102  1
  O  O314  1  0.65980766  0.27373051  0.20229632  1
  O  O315  1  0.46531983  0.20765209  0.66838720  1
  O  O316  1  0.62271310  0.77116314  0.25625379  1
  O  O317  1  0.63942381  0.75451252  0.75818302  1
  O  O318  1  0.33725076  0.27786625  0.22585155  1
  O  O319  1  0.47275834  0.25691547  0.82730066  1
  O  O320  1  0.41346955  0.76057030  0.23979575  1
  O  O321  1  0.28758707  0.75269633  0.76796991  1
  O  O322  1  0.86405063  0.23637744  0.24092746  1
  O  O323  1  0.86558046  0.19568948  0.71893499  1
  O  O324  1  0.85971645  0.70905451  0.26720031  1
  O  O325  1  0.90013723  0.81654115  0.72445252  1
  O  O326  1  0.31366630  0.45327883  0.48435031  1
  O  O327  1  0.41464305  0.51029945  1.02917458  1
  O  O328  1  0.39481830  1.02136620  0.49208336  1
  O  O329  1  0.39616130  0.95701665  1.01817056  1
  O  O330  1  0.85613248  0.46354805  0.49173926  1
  O  O331  1  0.79169304  0.39720992  0.96752093  1
  O  O332  1  0.83977765  0.98906723  0.44976406  1
  O  O333  1  0.86356729  1.02448658  0.98243306  1
  O  O334  1  0.10049926  -0.05397442  0.04428410  1
  O  O335  1  0.09282730  -0.02561544  0.43081017  1
  O  O336  1  0.14695066  0.57051576  -0.02973324  1
  O  O337  1  0.12245594  0.46259900  0.54598428  1
  O  O338  1  0.58955462  -0.01748556  -0.03502278  1
  O  O339  1  0.67678837  0.03787022  0.48296314  1
  O  O340  1  0.63053616  0.52166018  -0.01207247  1
  O  O341  1  0.67263844  0.56201009  0.51518488  1
  O  O342  1  0.33594688  0.38261295  0.12457609  1
  O  O343  1  0.31100448  0.30616166  0.74633207  1
  O  O344  1  0.38430863  0.85832226  0.11495238  1
  O  O345  1  0.39838558  0.78454120  0.64829072  1
  O  O346  1  0.91810798  0.24198904  0.19385489  1
  O  O347  1  0.86527887  0.33825542  0.59817251  1
  O  O348  1  0.86156619  0.86367551  0.08777461  1
  O  O349  1  0.85207173  0.91272507  0.60323038  1
  O  O350  1  0.18882117  0.14545635  0.42381096  1
  O  O351  1  0.17785029  0.05570130  0.93784048  1
  O  O352  1  0.09973896  0.57988804  0.42219420  1
  O  O353  1  0.18167363  0.70324590  0.90802661  1
  O  O354  1  0.56355031  0.15131667  0.43156376  1
  O  O355  1  0.61642518  0.17805324  0.89792525  1
  O  O356  1  0.63710282  0.65316181  0.38165334  1
  O  O357  1  0.64075619  0.66140773  0.86792005  1
