# generated using pymatgen
data_V51Zn51O256
_symmetry_space_group_name_H-M   'P 1'
_cell_length_a   17.59004340
_cell_length_b   17.47660594
_cell_length_c   17.91669088
_cell_angle_alpha   89.02533036
_cell_angle_beta   89.43193345
_cell_angle_gamma   91.14936739
_symmetry_Int_Tables_number   1
_chemical_formula_structural   V51Zn51O256
_chemical_formula_sum   'V51 Zn51 O256'
_cell_volume   5505.65152310
_cell_formula_units_Z   1
loop_
 _symmetry_equiv_pos_site_id
 _symmetry_equiv_pos_as_xyz
  1  'x, y, z'
loop_
 _atom_site_type_symbol
 _atom_site_label
 _atom_site_symmetry_multiplicity
 _atom_site_fract_x
 _atom_site_fract_y
 _atom_site_fract_z
 _atom_site_occupancy
  V  V0  1  0.35057952  0.35694238  -0.00066786  1
  V  V1  1  0.43378257  0.15491541  0.64579840  1
  V  V2  1  0.77668193  0.71678221  0.46842257  1
  V  V3  1  0.71369176  0.26876784  0.47572954  1
  V  V4  1  0.52746213  0.17710534  0.14868930  1
  V  V5  1  0.47284419  0.48371679  -0.00041652  1
  V  V6  1  0.73587142  0.69741743  0.00049050  1
  V  V7  1  0.33751483  0.03153016  0.36767026  1
  V  V8  1  -0.00976878  0.62659058  0.62637064  1
  V  V9  1  0.47640741  0.80464859  0.25918008  1
  V  V10  1  0.28932633  0.82052835  0.51372983  1
  V  V11  1  0.75567573  -0.00021571  0.79396038  1
  V  V12  1  0.09970928  0.00984727  0.13504675  1
  V  V13  1  0.59710785  0.59829360  -0.03582696  1
  V  V14  1  0.46961048  0.02867207  0.05970465  1
  V  V15  1  0.38981097  0.45774693  0.36740469  1
  V  V16  1  0.22152697  0.24246783  0.00394177  1
  V  V17  1  0.56029130  0.90360627  0.38883948  1
  V  V18  1  0.25204725  0.07084694  0.88738402  1
  V  V19  1  0.87692436  0.23925757  0.14522495  1
  V  V20  1  0.20916997  0.15670988  0.40922401  1
  V  V21  1  -0.03806299  0.36999554  0.36258200  1
  V  V22  1  0.53524677  0.63211370  0.48017493  1
  V  V23  1  -0.00470265  0.65744477  0.14885837  1
  V  V24  1  0.59310176  0.76862921  0.89707965  1
  V  V25  1  0.08766164  0.26036779  0.31959634  1
  V  V26  1  0.34730491  0.24847974  0.15331879  1
  V  V27  1  0.21902856  0.38471560  0.12392030  1
  V  V28  1  0.49271841  0.62990195  0.11232709  1
  V  V29  1  0.36685179  0.52599253  0.86986069  1
  V  V30  1  0.77467683  0.88029412  0.15262083  1
  V  V31  1  0.11626455  0.62916512  0.45711019  1
  V  V32  1  0.16230191  0.21969343  0.82493952  1
  V  V33  1  0.12685946  -0.04257819  0.62840827  1
  V  V34  1  -0.01581237  0.87536080  0.93359054  1
  V  V35  1  0.36997545  0.60358687  0.23268670  1
  V  V36  1  0.24539056  0.48456823  0.25118474  1
  V  V37  1  0.77604940  0.50624079  0.76367038  1
  V  V38  1  0.35353609  0.75236059  0.11721005  1
  V  V39  1  0.73510087  0.81829772  0.60648565  1
  V  V40  1  0.28604195  0.66936637  0.39767298  1
  V  V41  1  0.73659400  0.39816000  0.61110054  1
  V  V42  1  0.61033000  0.36957698  0.73958453  1
  V  V43  1  0.11701881  0.48306254  0.55776757  1
  V  V44  1  -0.01026314  -0.00219036  0.51663742  1
  V  V45  1  0.88796444  0.00088324  0.38589647  1
  V  V46  1  0.48036324  0.47802534  0.52336468  1
  V  V47  1  0.73728118  0.52397383  0.30031075  1
  V  V48  1  0.78644490  0.44610819  0.08493439  1
  V  V49  1  0.23582323  0.71692311  -0.00806284  1
  V  V50  1  0.04918803  0.35513152  0.82724685  1
  Zn  Zn51  1  0.03995807  0.04012222  0.31902458  1
  Zn  Zn52  1  0.67244590  0.68203845  0.73786881  1
  Zn  Zn53  1  0.90289482  0.38401680  0.70909119  1
  Zn  Zn54  1  0.51454735  0.56535691  0.79293879  1
  Zn  Zn55  1  1.02134658  0.28753645  1.01406063  1
  Zn  Zn56  1  0.30615359  0.55231905  0.05880881  1
  Zn  Zn57  1  0.78496071  0.61478007  0.61907232  1
  Zn  Zn58  1  0.89633835  0.04120305  0.19213564  1
  Zn  Zn59  1  0.90989571  0.48003719  0.22522786  1
  Zn  Zn60  1  0.51438843  0.27994969  0.49545285  1
  Zn  Zn61  1  0.79673542  0.05026959  0.51521203  1
  Zn  Zn62  1  0.45046664  0.12643872  0.88520992  1
  Zn  Zn63  1  0.42476520  0.43147801  0.16439338  1
  Zn  Zn64  1  0.39120181  0.86531963  0.41160759  1
  Zn  Zn65  1  0.87206740  0.95725105  0.64759542  1
  Zn  Zn66  1  0.68924327  0.53416213  0.49533290  1
  Zn  Zn67  1  0.24477040  0.08492549  0.70739644  1
  Zn  Zn68  1  0.08091052  0.81814889  0.06856042  1
  Zn  Zn69  1  0.00333567  0.82708254  0.58746438  1
  Zn  Zn70  1  0.70102379  0.26297837  0.07267968  1
  Zn  Zn71  1  0.42476333  0.69058059  0.94598990  1
  Zn  Zn72  1  0.41969613  0.43655454  0.71134909  1
  Zn  Zn73  1  0.42936431  0.29675638  0.79243880  1
  Zn  Zn74  1  0.25509619  1.01350965  0.52187678  1
  Zn  Zn75  1  0.49279072  0.00019723  0.23921598  1
  Zn  Zn76  1  0.69254125  0.61172607  0.16139973  1
  Zn  Zn77  1  0.20549985  0.89295190  0.92275900  1
  Zn  Zn78  1  0.95740029  0.72718370  0.40923186  1
  Zn  Zn79  1  0.78362671  0.33267948  0.30041628  1
  Zn  Zn80  1  0.61816527  0.93222473  0.99397694  1
  Zn  Zn81  1  0.48417463  0.84851263  0.10050134  1
  Zn  Zn82  1  0.19793033  0.73681731  0.80690132  1
  Zn  Zn83  1  0.09099048  0.31095174  0.47008344  1
  Zn  Zn84  1  0.54884114  0.57738260  0.30015403  1
  Zn  Zn85  1  0.56210924  1.03636279  0.73835402  1
  Zn  Zn86  1  0.26223637  0.37803956  0.81871128  1
  Zn  Zn87  1  -0.03060895  0.53621602  0.80281696  1
  Zn  Zn88  1  0.18183084  0.19302680  0.18329758  1
  Zn  Zn89  1  0.73825520  0.90394978  0.42935972  1
  Zn  Zn90  1  0.62171038  0.96176839  0.56125591  1
  Zn  Zn91  1  0.28696737  0.07829968  0.08706372  1
  Zn  Zn92  1  0.07074606  0.07129389  0.93571436  1
  Zn  Zn93  1  0.82647222  0.55293480  -0.06863511  1
  Zn  Zn94  1  0.10718066  0.46711968  0.36666455  1
  Zn  Zn95  1  0.15310173  0.74487539  0.62254326  1
  Zn  Zn96  1  0.80590669  0.72439123  0.28032124  1
  Zn  Zn97  1  0.38477368  0.24959754  0.35386387  1
  Zn  Zn98  1  0.93801154  0.66836259  0.95525776  1
  Zn  Zn99  1  0.78143350  0.85046274  0.87974032  1
  Zn  Zn100  1  0.03291794  0.34415154  0.17659146  1
  Zn  Zn101  1  0.20178207  0.64574460  0.15003142  1
  O  O102  1  0.10851638  0.11220729  0.14354942  1
  O  O103  1  0.06325119  0.02066034  0.68844620  1
  O  O104  1  0.09407287  0.62978814  0.14753156  1
  O  O105  1  0.04766309  0.57101721  0.56098851  1
  O  O106  1  0.60859567  0.20815028  0.10145539  1
  O  O107  1  0.69866360  0.10551770  0.33934396  1
  O  O108  1  0.58660233  0.62091248  0.11769670  1
  O  O109  1  0.59278005  0.70203044  0.54347855  1
  O  O110  1  0.39743152  0.36413319  0.35199253  1
  O  O111  1  0.35006218  0.36054274  0.90582003  1
  O  O112  1  0.34737696  0.93546162  0.34430339  1
  O  O113  1  0.20861401  0.84857081  0.82340691  1
  O  O114  1  0.86675102  0.37362388  0.36319802  1
  O  O115  1  1.02277619  0.33518959  0.91870407  1
  O  O116  1  0.96207161  0.87565556  0.25985693  1
  O  O117  1  0.88731543  0.87639008  0.91902297  1
  O  O118  1  0.24397491  0.06474483  0.35854316  1
  O  O119  1  0.23572889  -0.00698914  0.94677565  1
  O  O120  1  0.28727988  0.47894952  0.34271307  1
  O  O121  1  0.28067522  0.48572613  0.84758985  1
  O  O122  1  0.82563576  -0.07274585  0.36461844  1
  O  O123  1  0.75582702  -0.04042624  0.89464949  1
  O  O124  1  0.72182364  0.52773059  0.39390515  1
  O  O125  1  0.75821490  0.51455674  0.85483345  1
  O  O126  1  0.25135457  0.48453092  0.13284915  1
  O  O127  1  0.19173484  0.50335212  0.60598665  1
  O  O128  1  0.20071598  1.01180621  0.12679839  1
  O  O129  1  0.21779629  1.00772984  0.63127670  1
  O  O130  1  0.73919537  0.52343997  0.11681603  1
  O  O131  1  0.74024488  0.49635907  0.58711504  1
  O  O132  1  0.82190040  0.96735951  0.16701262  1
  O  O133  1  0.74025799  1.03948790  0.70460199  1
  O  O134  1  -0.01755905  0.40343323  0.25080575  1
  O  O135  1  -0.02495254  0.33001017  0.76667289  1
  O  O136  1  0.01891626  0.87133444  0.29939142  1
  O  O137  1  0.01285920  0.87371300  0.84141201  1
  O  O138  1  0.52322481  0.38002568  0.18974441  1
  O  O139  1  0.50882391  0.35967919  0.73337101  1
  O  O140  1  0.48758463  0.89156858  0.20475031  1
  O  O141  1  0.40325350  0.90244863  0.78036997  1
  O  O142  1  0.53498437  0.19723349  0.23629027  1
  O  O143  1  0.50380626  0.05481001  0.82520431  1
  O  O144  1  0.47573113  0.61359518  0.21846985  1
  O  O145  1  0.56424751  0.63912053  0.71522658  1
  O  O146  1  1.08214714  0.14539564  0.30777599  1
  O  O147  1  1.01649527  0.07955537  0.82767072  1
  O  O148  1  0.98277140  0.66029371  0.24597945  1
  O  O149  1  1.00737325  0.59321616  0.71416722  1
  O  O150  1  0.33737388  0.25922627  0.01595246  1
  O  O151  1  0.45721544  0.07374420  0.59705063  1
  O  O152  1  0.34250282  0.72192301  0.01398914  1
  O  O153  1  0.38474283  0.84447083  0.51675719  1
  O  O154  1  0.83114355  0.19163800  -0.14301103  1
  O  O155  1  0.74585758  0.16540702  0.50941131  1
  O  O156  1  0.82789794  0.66225214  -0.02372536  1
  O  O157  1  0.87252148  0.71945498  0.47888748  1
  O  O158  1  0.28291264  0.33436160  0.52867672  1
  O  O159  1  0.12569204  0.25262884  1.01985254  1
  O  O160  1  0.14090083  0.69350457  0.52239816  1
  O  O161  1  0.14047597  0.74247872  1.02886952  1
  O  O162  1  0.61951327  0.25315639  0.48810417  1
  O  O163  1  0.66962686  0.21096796  0.90652934  1
  O  O164  1  0.52764683  0.73532347  0.51904470  1
  O  O165  1  0.61661794  0.70896227  0.97771554  1
  O  O166  1  0.43798482  0.21497716  0.11857631  1
  O  O167  1  0.49473330  0.22306178  0.59728844  1
  O  O168  1  0.47632468  0.73192163  0.09689397  1
  O  O169  1  0.47461818  0.89464351  0.78422996  1
  O  O170  1  0.96584129  0.28797946  0.10620076  1
  O  O171  1  0.97751394  0.19211379  0.65843643  1
  O  O172  1  1.04337755  0.75272139  0.15201250  1
  O  O173  1  1.01870861  0.72427590  0.61855640  1
  O  O174  1  -0.00927292  0.26914327  0.32217340  1
  O  O175  1  0.06773026  0.22312730  0.82036843  1
  O  O176  1  0.11794021  0.80425305  0.39806229  1
  O  O177  1  -0.02260849  0.77100331  0.93367196  1
  O  O178  1  0.45380420  0.22670937  0.43022385  1
  O  O179  1  0.46664556  0.23200079  0.86398066  1
  O  O180  1  0.48354769  0.83043637  0.36059910  1
  O  O181  1  0.49780440  0.74774445  0.88479382  1
  O  O182  1  0.21403448  0.11411557  0.49528672  1
  O  O183  1  0.23420521  0.14577554  1.01689544  1
  O  O184  1  0.30197885  0.62218662  0.47318840  1
  O  O185  1  0.22645879  0.62549299  1.04413753  1
  O  O186  1  0.65134194  0.14888334  0.31402303  1
  O  O187  1  0.82460685  0.15997193  0.91733062  1
  O  O188  1  0.73863565  0.63665627  0.52010073  1
  O  O189  1  0.69659958  0.59769662  0.97538765  1
  O  O190  1  0.24908642  0.37704823  0.02039174  1
  O  O191  1  0.30349019  0.37372226  0.58131326  1
  O  O192  1  0.24002694  0.82121306  -0.00562484  1
  O  O193  1  0.24024062  0.90398124  0.50591841  1
  O  O194  1  0.82913955  0.46978712  0.00010952  1
  O  O195  1  0.73329078  0.36135466  0.51716130  1
  O  O196  1  0.68785793  0.92394277  0.08208226  1
  O  O197  1  0.74043086  0.80755703  0.50408820  1
  O  O198  1  0.15362823  0.50134512  0.27292591  1
  O  O199  1  0.04726847  0.44535111  0.64661803  1
  O  O200  1  0.09823479  1.00096853  0.23320558  1
  O  O201  1  0.10295642  0.97417623  0.73412534  1
  O  O202  1  0.64670623  0.55666061  0.25769799  1
  O  O203  1  0.59481402  0.48627468  0.76758888  1
  O  O204  1  0.67635053  1.04827824  0.17725339  1
  O  O205  1  0.65606172  1.01688322  0.79960073  1
  O  O206  1  0.39803634  0.06255625  0.27246100  1
  O  O207  1  0.25703048  -0.11464087  0.75824073  1
  O  O208  1  0.37162477  0.50226715  0.23511373  1
  O  O209  1  0.41283493  0.52870154  0.77420694  1
  O  O210  1  0.93059112  0.03054724  0.29491092  1
  O  O211  1  0.84972038  -0.02528796  0.75848659  1
  O  O212  1  0.84347407  0.53507629  0.28699527  1
  O  O213  1  0.87463536  0.48457200  0.75239522  1
  O  O214  1  0.11407589  0.35146217  0.35571345  1
  O  O215  1  0.15720406  0.33446516  0.80892946  1
  O  O216  1  0.08391844  0.84404075  0.44446772  1
  O  O217  1  0.08884048  0.87441006  0.95273583  1
  O  O218  1  0.59597036  0.34101334  0.28510494  1
  O  O219  1  0.60773997  0.43643349  0.82530730  1
  O  O220  1  0.64870930  0.87143992  0.37272944  1
  O  O221  1  0.60190717  0.86542417  0.91561741  1
  O  O222  1  0.29294805  0.15720162  0.16406451  1
  O  O223  1  0.51667926  0.13942844  0.70729161  1
  O  O224  1  0.36952587  0.63196677  0.13177665  1
  O  O225  1  0.50800939  0.70113699  0.69682484  1
  O  O226  1  0.90312064  0.14797673  0.16937746  1
  O  O227  1  0.84146334  0.05431645  0.61109869  1
  O  O228  1  0.90756902  0.70037193  0.13548173  1
  O  O229  1  0.89549433  0.61410392  0.60975188  1
  O  O230  1  0.23490645  0.27432192  0.12062866  1
  O  O231  1  0.35943574  0.09081512  0.68515975  1
  O  O232  1  0.25950278  0.74421523  0.14307243  1
  O  O233  1  0.26227253  0.76748447  0.58978732  1
  O  O234  1  0.80697413  0.22686458  0.07978251  1
  O  O235  1  0.78013228  0.22223981  0.54901720  1
  O  O236  1  0.72546363  0.70064141  0.09381819  1
  O  O237  1  0.72735320  0.72944718  0.65240339  1
  O  O238  1  0.28377168  0.21690116  0.39571002  1
  O  O239  1  0.22747581  0.25120932  0.90431378  1
  O  O240  1  0.29306295  0.76997760  0.42001225  1
  O  O241  1  0.21944869  0.69578206  0.90108007  1
  O  O242  1  0.73431952  0.27402672  0.38307172  1
  O  O243  1  0.70701437  0.25814685  0.95129501  1
  O  O244  1  0.75257774  0.71592633  0.37869879  1
  O  O245  1  0.74080675  0.78817187  0.95545305  1
  O  O246  1  -0.00220587  0.15215517  -0.02428184  1
  O  O247  1  -0.02109272  0.08540401  0.54247621  1
  O  O248  1  -0.00746063  0.65241604  0.04721062  1
  O  O249  1  0.03310959  0.64959660  0.41589010  1
  O  O250  1  0.48728164  0.08966250  -0.01157058  1
  O  O251  1  0.59479262  0.09537542  0.46971090  1
  O  O252  1  0.49165796  0.61655501  0.00232411  1
  O  O253  1  0.44916681  0.59504912  0.50393000  1
  O  O254  1  0.51459775  0.38959314  0.50698091  1
  O  O255  1  0.45690731  0.38611517  1.01537202  1
  O  O256  1  0.55143358  0.92925092  0.47977192  1
  O  O257  1  0.51571342  0.93862027  1.04219546  1
  O  O258  1  0.98572001  0.33918252  0.45167834  1
  O  O259  1  1.08033007  0.49980765  0.98754219  1
  O  O260  1  1.00727424  0.81699579  0.46801442  1
  O  O261  1  0.98014590  0.85979093  1.03687376  1
  O  O262  1  0.47533179  0.49969248  0.34150555  1
  O  O263  1  0.46496466  0.49276502  0.89829262  1
  O  O264  1  0.54385207  0.98300803  0.33139108  1
  O  O265  1  0.64547550  1.05328597  0.98437192  1
  O  O266  1  0.99770284  0.46745339  0.36399282  1
  O  O267  1  1.04490443  0.45276161  0.81865587  1
  O  O268  1  1.00329967  0.99912507  0.41299036  1
  O  O269  1  0.98555788  0.97593911  0.93901431  1
  O  O270  1  -0.00100801  0.00889639  0.13879976  1
  O  O271  1  -0.02808374  -0.07020940  0.60452988  1
  O  O272  1  -0.03305021  0.56009259  0.15882221  1
  O  O273  1  -0.01668091  0.41934416  0.62181386  1
  O  O274  1  0.51293785  0.06762141  0.14674584  1
  O  O275  1  0.59764341  0.03199041  0.63850594  1
  O  O276  1  0.46205783  0.51771939  0.09837567  1
  O  O277  1  0.45175300  0.47291769  0.61339587  1
  O  O278  1  0.23874619  0.38410344  0.22654318  1
  O  O279  1  0.34979999  0.35859906  0.75248819  1
  O  O280  1  0.19733018  0.87963582  0.28521165  1
  O  O281  1  0.28494580  0.83580861  0.71799064  1
  O  O282  1  0.73433051  0.42915008  0.27645216  1
  O  O283  1  0.72337213  0.42926401  0.72972017  1
  O  O284  1  0.78290639  0.81715220  0.22733680  1
  O  O285  1  0.74519201  0.89207295  0.78468911  1
  O  O286  1  0.16228263  0.16347846  0.29939754  1
  O  O287  1  0.25534940  0.03167169  0.80065623  1
  O  O288  1  0.26209687  0.59470537  0.22605922  1
  O  O289  1  0.18877830  0.59278459  0.72398005  1
  O  O290  1  0.72383499  0.10058798  0.17588183  1
  O  O291  1  0.79103741  0.07640088  0.83758051  1
  O  O292  1  0.76649891  0.62593610  0.24596895  1
  O  O293  1  0.74702205  0.59545348  0.72207297  1
  O  O294  1  0.40942332  0.10860796  0.33569670  1
  O  O295  1  0.34103304  0.11114658  0.89870781  1
  O  O296  1  0.35621925  0.63979439  0.32617797  1
  O  O297  1  0.36111352  0.62135885  0.88395507  1
  O  O298  1  0.83738291  0.07830092  0.41136275  1
  O  O299  1  0.94915960  0.10104213  0.82713568  1
  O  O300  1  0.88368324  0.52885893  0.45573945  1
  O  O301  1  0.88208089  0.76908352  0.76903386  1
  O  O302  1  0.12339104  0.38985440  0.11896230  1
  O  O303  1  0.12343293  0.38724545  0.53550860  1
  O  O304  1  0.10545831  0.90749275  0.12388485  1
  O  O305  1  0.12008132  0.85760663  0.62833181  1
  O  O306  1  0.72395118  0.36824903  0.07921492  1
  O  O307  1  0.64614127  0.35948185  0.64055868  1
  O  O308  1  0.66487264  0.87470287  0.13992136  1
  O  O309  1  0.65810090  0.87255840  0.62151631  1
  O  O310  1  0.10589748  0.27010382  0.22265335  1
  O  O311  1  0.20427361  0.18206618  0.74599879  1
  O  O312  1  0.23912921  0.87244956  0.23060013  1
  O  O313  1  0.15571926  0.69901821  0.72159782  1
  O  O314  1  0.53203504  0.36417123  0.26554725  1
  O  O315  1  0.63765083  0.29301822  0.78325821  1
  O  O316  1  0.55101651  0.75502309  0.24247005  1
  O  O317  1  0.64888930  0.74710784  0.82038025  1
  O  O318  1  0.36426065  0.26029702  0.24406752  1
  O  O319  1  0.40235135  0.21054595  0.72494327  1
  O  O320  1  0.39512005  0.75664702  0.22241842  1
  O  O321  1  0.53628911  0.76675850  0.69153622  1
  O  O322  1  0.83653533  0.27991910  0.22173627  1
  O  O323  1  0.91939850  0.21900145  0.63285341  1
  O  O324  1  0.90784346  0.73520449  0.31690493  1
  O  O325  1  0.83273223  0.75754481  0.81980485  1
  O  O326  1  0.39347837  0.46579778  0.46618337  1
  O  O327  1  0.36120249  0.49678015  0.98555074  1
  O  O328  1  0.35091543  1.03293409  0.46187680  1
  O  O329  1  0.37486512  1.01867547  1.07519940  1
  O  O330  1  0.90778577  0.48509327  0.50309000  1
  O  O331  1  0.92896326  0.58604328  0.88913714  1
  O  O332  1  0.89298729  0.96669236  0.48917760  1
  O  O333  1  0.93823380  1.12540667  1.00808186  1
  O  O334  1  0.09046347  0.02619729  0.03495961  1
  O  O335  1  0.09550605  -0.01456210  0.54012364  1
  O  O336  1  0.11622392  0.54137637  -0.05681311  1
  O  O337  1  0.13492854  0.52351219  0.45865702  1
  O  O338  1  0.70868341  0.08033758  0.00396224  1
  O  O339  1  0.71195447  -0.01767865  0.50067916  1
  O  O340  1  0.57552224  0.50030367  -0.00559995  1
  O  O341  1  0.57684511  0.53737891  0.50900430  1
  O  O342  1  0.35640347  0.35563182  0.12250577  1
  O  O343  1  0.36995716  0.19602246  0.58240721  1
  O  O344  1  0.37067288  0.84586626  0.09848955  1
  O  O345  1  0.51809490  0.92095403  0.72642738  1
  O  O346  1  0.86266981  0.42734119  0.14471735  1
  O  O347  1  0.82129003  0.36187910  0.64204519  1
  O  O348  1  0.81635705  0.83769615  0.08196758  1
  O  O349  1  0.81841381  0.86188655  0.63199001  1
  O  O350  1  0.12548031  0.21932026  0.42107551  1
  O  O351  1  0.15671288  0.12076939  0.88358416  1
  O  O352  1  0.18692768  0.65094569  0.38160718  1
  O  O353  1  0.15845081  0.55466769  0.77391644  1
  O  O354  1  0.53770742  0.09576913  0.43125723  1
  O  O355  1  0.60346927  0.18739884  0.92511677  1
  O  O356  1  0.54776781  0.64438214  0.38687291  1
  O  O357  1  0.58161019  0.60278539  0.87211424  1
