# generated using pymatgen
data_V51Zn51O256
_symmetry_space_group_name_H-M   'P 1'
_cell_length_a   17.46689050
_cell_length_b   17.47347487
_cell_length_c   17.56976020
_cell_angle_alpha   89.01577442
_cell_angle_beta   90.20995426
_cell_angle_gamma   90.85813651
_symmetry_Int_Tables_number   1
_chemical_formula_structural   V51Zn51O256
_chemical_formula_sum   'V51 Zn51 O256'
_cell_volume   5360.99494324
_cell_formula_units_Z   1
loop_
 _symmetry_equiv_pos_site_id
 _symmetry_equiv_pos_as_xyz
  1  'x, y, z'
loop_
 _atom_site_type_symbol
 _atom_site_label
 _atom_site_symmetry_multiplicity
 _atom_site_fract_x
 _atom_site_fract_y
 _atom_site_fract_z
 _atom_site_occupancy
  V  V0  1  0.31898863  0.58668562  0.18919203  1
  V  V1  1  0.75436138  0.87680602  0.65601276  1
  V  V2  1  0.77554725  0.61042509  0.86153883  1
  V  V3  1  0.12508745  0.77557251  0.31831139  1
  V  V4  1  0.82894067  0.05158153  0.38778443  1
  V  V5  1  0.37567056  0.37260723  0.54223362  1
  V  V6  1  -0.00613514  0.14439214  0.67793715  1
  V  V7  1  0.72522946  0.49754035  0.75155283  1
  V  V8  1  0.61123681  0.35538562  0.74719274  1
  V  V9  1  0.62836256  0.39205418  0.22993678  1
  V  V10  1  0.04494481  0.37226201  0.36885589  1
  V  V11  1  0.02501735  0.02686483  0.52091697  1
  V  V12  1  0.89326223  0.61712590  0.22469276  1
  V  V13  1  0.71283921  0.86088380  0.04878371  1
  V  V14  1  0.46904317  0.28116722  0.26074093  1
  V  V15  1  0.50780594  0.12511886  0.15597543  1
  V  V16  1  0.37775641  0.75891965  0.14819643  1
  V  V17  1  -0.01920981  0.03226441  -0.00243775  1
  V  V18  1  0.37002714  0.12346296  0.25721222  1
  V  V19  1  0.38821668  0.49171315  0.91018248  1
  V  V20  1  0.51324845  0.34271406  0.89126626  1
  V  V21  1  0.33769816  0.49406281  0.41846310  1
  V  V22  1  0.22085678  0.01657898  0.78734233  1
  V  V23  1  0.85128568  0.24219201  0.67152594  1
  V  V24  1  0.22176208  -0.01039014  0.13603571  1
  V  V25  1  0.71880083  0.01588474  0.74390521  1
  V  V26  1  0.55591392  0.62994364  0.19191204  1
  V  V27  1  0.00654211  0.47474451  0.01233694  1
  V  V28  1  0.23792958  0.25431817  0.52074127  1
  V  V29  1  0.59053079  0.61270418  -0.03713378  1
  V  V30  1  0.79641053  0.72743128  -0.02581166  1
  V  V31  1  0.74237837  0.38033042  0.09854650  1
  V  V32  1  0.24571915  0.34569996  0.66680712  1
  V  V33  1  0.02063310  0.72790290  0.70064361  1
  V  V34  1  0.89990901  0.48341894  0.86715666  1
  V  V35  1  0.76062182  0.25186420  0.50261243  1
  V  V36  1  0.84529767  0.17695341  0.25864207  1
  V  V37  1  0.50164298  0.39359488  0.39925987  1
  V  V38  1  0.60610549  0.25505135  0.40714850  1
  V  V39  1  0.23088291  0.15450944  0.89667730  1
  V  V40  1  0.46540265  0.71130839  0.69351076  1
  V  V41  1  0.24684740  0.72793267  0.51760664  1
  V  V42  1  0.50972849  0.85619076  0.89990445  1
  V  V43  1  0.04189434  0.24867113  0.25633411  1
  V  V44  1  0.85416538  0.34585225  -0.01851500  1
  V  V45  1  0.25629474  0.51597033  0.75412478  1
  V  V46  1  0.01411937  0.49259523  0.51410399  1
  V  V47  1  -0.02538662  0.91265540  0.33980962  1
  V  V48  1  0.89048985  -0.03422383  0.82545418  1
  V  V49  1  0.26424478  0.10991279  0.42008106  1
  V  V50  1  0.48257333  0.11171002  0.62677777  1
  Zn  Zn51  1  0.73674369  0.37461838  0.62203679  1
  Zn  Zn52  1  0.19393951  0.53043713  0.59339758  1
  Zn  Zn53  1  0.41397506  0.95691103  0.17128972  1
  Zn  Zn54  1  0.42559941  0.64174551  0.31497568  1
  Zn  Zn55  1  0.16830023  0.14514272  0.26162271  1
  Zn  Zn56  1  0.39313675  0.62697115  0.01294141  1
  Zn  Zn57  1  0.16638206  1.03208403  0.97426698  1
  Zn  Zn58  1  0.05885548  0.07910075  0.83561442  1
  Zn  Zn59  1  0.18280555  0.45279720  0.92017286  1
  Zn  Zn60  1  1.03261992  0.47000205  0.21395037  1
  Zn  Zn61  1  -0.04605754  0.33650890  0.12610834  1
  Zn  Zn62  1  0.24896652  0.92688009  0.50381970  1
  Zn  Zn63  1  0.55014675  0.28256262  1.06738523  1
  Zn  Zn64  1  0.93570304  0.82211991  0.17495843  1
  Zn  Zn65  1  0.52084060  -0.02690266  0.77088680  1
  Zn  Zn66  1  0.08573487  0.84360546  0.56852269  1
  Zn  Zn67  1  0.66715638  1.09894262  0.44735322  1
  Zn  Zn68  1  0.06079310  0.08598297  0.37212478  1
  Zn  Zn69  1  0.94003283  0.90724366  0.64161777  1
  Zn  Zn70  1  0.55577941  0.56028674  0.80770034  1
  Zn  Zn71  1  0.22278674  0.69485070  0.72219698  1
  Zn  Zn72  1  0.32404605  0.10458837  0.07061816  1
  Zn  Zn73  1  0.53676345  0.76632149  0.06315222  1
  Zn  Zn74  1  0.59422888  0.54504915  0.34736374  1
  Zn  Zn75  1  0.78608381  0.31680728  0.82210818  1
  Zn  Zn76  1  0.52879243  0.46359892  0.04832710  1
  Zn  Zn77  1  0.68762141  0.70320305  0.11502056  1
  Zn  Zn78  1  0.88230702  0.45325135  0.66195844  1
  Zn  Zn79  1  0.47287595  0.46851797  0.20808103  1
  Zn  Zn80  1  0.91825285  1.00844854  0.18363824  1
  Zn  Zn81  1  0.66726776  0.19320637  0.67041024  1
  Zn  Zn82  1  0.67468005  0.44152498  0.93088418  1
  Zn  Zn83  1  0.30178742  0.33604488  0.86868324  1
  Zn  Zn84  1  0.42805491  0.92275535  0.60868923  1
  Zn  Zn85  1  0.94386288  0.20559742  0.43294652  1
  Zn  Zn86  1  0.07662953  0.88805937  0.07737045  1
  Zn  Zn87  1  0.35189948  0.85678429  0.77217077  1
  Zn  Zn88  1  0.80072633  0.07820470  0.57876637  1
  Zn  Zn89  1  0.70048603  0.81086465  0.84612903  1
  Zn  Zn90  1  0.41919905  0.20957606  0.43920932  1
  Zn  Zn91  1  0.19906716  0.16829324  0.69720438  1
  Zn  Zn92  1  0.18797668  0.50305483  0.30186839  1
  Zn  Zn93  1  0.66425572  0.11611138  0.28817140  1
  Zn  Zn94  1  0.96459094  0.22925391  0.97323186  1
  Zn  Zn95  1  0.82390614  0.54173859  0.03995356  1
  Zn  Zn96  1  1.04053673  0.59025203  0.35956492  1
  Zn  Zn97  1  0.28307070  0.05754783  0.59711785  1
  Zn  Zn98  1  0.66331793  0.23587472  0.18433580  1
  Zn  Zn99  1  0.40502826  0.39289435  0.74924496  1
  Zn  Zn100  1  0.29717693  0.32685746  0.34445844  1
  Zn  Zn101  1  0.57985846  0.80693979  0.58793947  1
  O  O102  1  0.15392641  0.02772681  0.21786267  1
  O  O103  1  0.08884104  0.16462137  0.67997932  1
  O  O104  1  0.14755918  0.70643676  0.07923593  1
  O  O105  1  0.18852602  0.59151996  0.68761364  1
  O  O106  1  0.60482799  0.13567531  0.19636307  1
  O  O107  1  0.57992567  0.13848482  0.61608543  1
  O  O108  1  0.65427912  0.62677825  0.18545528  1
  O  O109  1  0.70923569  0.64633493  0.59336286  1
  O  O110  1  0.37293312  0.40647832  0.38303954  1
  O  O111  1  0.41277682  0.36444245  0.87462605  1
  O  O112  1  0.39791555  0.91656236  0.37895403  1
  O  O113  1  0.41747963  0.83364497  0.86018860  1
  O  O114  1  0.80686107  0.50989832  0.46900705  1
  O  O115  1  0.86142835  0.37848628  0.88136828  1
  O  O116  1  0.91991523  0.85318664  0.38701297  1
  O  O117  1  0.87976720  0.88016394  0.86076296  1
  O  O118  1  0.27552217  0.01530095  0.43735363  1
  O  O119  1  0.23884439  0.02339383  0.89148343  1
  O  O120  1  0.24271471  0.49945590  0.39813261  1
  O  O121  1  0.29067891  0.43129894  0.92565070  1
  O  O122  1  0.73130525  0.05307382  0.35724388  1
  O  O123  1  0.79310692  0.00247686  0.81380466  1
  O  O124  1  0.69854234  0.57389954  0.40510538  1
  O  O125  1  0.74510738  0.50472513  0.86457175  1
  O  O126  1  0.17214016  0.41445702  0.16396347  1
  O  O127  1  0.25291553  0.46324888  0.66366953  1
  O  O128  1  0.32123495  0.99088601  0.11656999  1
  O  O129  1  0.22279784  1.05883148  0.68487043  1
  O  O130  1  0.74277422  0.47752866  0.09086376  1
  O  O131  1  0.76762867  0.48241726  0.66127037  1
  O  O132  1  0.67827759  0.94467945  0.02897561  1
  O  O133  1  0.75184703  0.98584226  0.64915267  1
  O  O134  1  0.02736050  0.36404213  0.26433800  1
  O  O135  1  0.01795289  0.39789920  0.70283898  1
  O  O136  1  -0.04593860  0.91796836  0.23305873  1
  O  O137  1  0.02822775  0.83552976  0.67843232  1
  O  O138  1  0.48911201  0.38786056  0.28753873  1
  O  O139  1  0.51096845  0.36314309  0.76225474  1
  O  O140  1  0.53959277  0.89902790  0.26446819  1
  O  O141  1  0.39613282  0.78507146  0.68182290  1
  O  O142  1  0.47296736  0.16922807  0.25755515  1
  O  O143  1  0.50648975  0.07301421  0.71912461  1
  O  O144  1  0.53211345  0.61788647  0.29242892  1
  O  O145  1  0.52982662  0.63825325  0.72479960  1
  O  O146  1  1.03959096  0.14614466  0.27972264  1
  O  O147  1  0.97701949  0.11344476  0.77015441  1
  O  O148  1  0.99081967  0.57816581  0.20699283  1
  O  O149  1  1.04154408  0.63292242  0.71276610  1
  O  O150  1  0.33932448  0.36638923  0.11166132  1
  O  O151  1  0.36865003  0.27417517  0.51278375  1
  O  O152  1  0.41990623  0.72472445  0.06322167  1
  O  O153  1  0.33921924  0.69613757  0.50999119  1
  O  O154  1  0.84788718  0.25052474  -0.03656631  1
  O  O155  1  0.85707479  0.24207082  0.49026699  1
  O  O156  1  0.88750493  0.73934924  -0.03521877  1
  O  O157  1  0.80939350  0.73114776  0.50376195  1
  O  O158  1  0.14504795  0.24926038  0.52376990  1
  O  O159  1  0.07347597  0.31342970  0.90189992  1
  O  O160  1  0.15260908  0.77781357  0.50599386  1
  O  O161  1  0.04367515  0.69427726  0.94220166  1
  O  O162  1  0.59001252  0.24519949  0.49810546  1
  O  O163  1  0.68505180  0.19647709  0.99107579  1
  O  O164  1  0.62820032  0.72790732  0.49645292  1
  O  O165  1  0.61921408  0.68515380  1.02468230  1
  O  O166  1  0.48240012  0.29301712  0.16533039  1
  O  O167  1  0.46137042  0.20050418  0.66736905  1
  O  O168  1  0.52824475  0.72055284  0.16919642  1
  O  O169  1  0.51180257  0.71025980  0.59799650  1
  O  O170  1  1.01375806  0.25138991  0.16175839  1
  O  O171  1  0.95764118  0.24039486  0.66532303  1
  O  O172  1  0.99749285  0.82200935  0.08922512  1
  O  O173  1  1.04107499  0.73802103  0.59554461  1
  O  O174  1  0.00922501  0.27059994  0.36843709  1
  O  O175  1  0.02810438  0.25314422  0.87896362  1
  O  O176  1  0.05510654  0.84618236  0.32185034  1
  O  O177  1  -0.01567192  0.75541169  0.78596117  1
  O  O178  1  0.49260021  0.26851241  0.37619736  1
  O  O179  1  0.52281801  0.25072990  0.88706515  1
  O  O180  1  0.44111379  0.76233258  0.35264886  1
  O  O181  1  0.44931369  0.71119161  0.79234402  1
  O  O182  1  0.26469378  0.14061968  0.51785264  1
  O  O183  1  0.29638770  0.13742011  0.97110921  1
  O  O184  1  0.21108872  0.63306680  0.53847113  1
  O  O185  1  0.19864738  0.68769940  0.90605163  1
  O  O186  1  0.72518741  0.14451028  0.52443425  1
  O  O187  1  0.71409573  0.20245763  0.92526529  1
  O  O188  1  0.73336329  0.63700307  0.40837030  1
  O  O189  1  0.77391346  0.62016918  0.97617079  1
  O  O190  1  0.30255462  0.41179050  0.07313383  1
  O  O191  1  0.26205119  0.35725438  0.55429305  1
  O  O192  1  0.22910252  0.83905895  -0.06635559  1
  O  O193  1  0.29192509  0.82063108  0.51428723  1
  O  O194  1  0.74925272  0.37353731  -0.01135675  1
  O  O195  1  0.74304142  0.34742502  0.51569953  1
  O  O196  1  0.73864162  0.82108203  -0.04413731  1
  O  O197  1  0.62985364  0.94674092  0.47839589  1
  O  O198  1  0.14496971  0.63705752  0.07255200  1
  O  O199  1  0.18527121  0.48710107  0.81350723  1
  O  O200  1  0.21689300  0.98289837  0.24288206  1
  O  O201  1  0.12303056  0.99942082  0.79277548  1
  O  O202  1  0.63932750  0.46734772  0.28901120  1
  O  O203  1  0.62970794  0.51138701  0.74039497  1
  O  O204  1  0.57585406  0.93139515  0.31493044  1
  O  O205  1  0.63208347  0.97245287  0.75893420  1
  O  O206  1  0.38598264  0.02881188  0.26209962  1
  O  O207  1  0.43417696  -0.07615948  0.71853826  1
  O  O208  1  0.37340537  0.51103514  0.22201790  1
  O  O209  1  0.34556054  0.48396591  0.78569198  1
  O  O210  1  0.88062891  -0.00984360  0.33715850  1
  O  O211  1  0.92991390  -0.04186539  0.73663885  1
  O  O212  1  0.84611083  0.52945645  0.24438532  1
  O  O213  1  0.89220039  0.47705515  0.77030717  1
  O  O214  1  0.13449360  0.36588160  0.39224066  1
  O  O215  1  0.12186242  0.33972621  0.85322791  1
  O  O216  1  0.18724468  0.90036163  0.39918685  1
  O  O217  1  0.07891641  0.75496941  0.94663204  1
  O  O218  1  0.59676873  0.36512802  0.40478989  1
  O  O219  1  0.60545102  0.38823985  0.86144509  1
  O  O220  1  0.75605586  0.86384178  0.36398319  1
  O  O221  1  0.59072965  0.81307609  0.86273307  1
  O  O222  1  0.39423696  0.13816478  0.14942491  1
  O  O223  1  0.38435353  0.08923085  0.64206235  1
  O  O224  1  0.31817309  0.59185064  0.09228245  1
  O  O225  1  0.51496857  0.53112577  0.55133679  1
  O  O226  1  0.87885051  0.10558300  0.20156948  1
  O  O227  1  0.85941075  0.14164463  0.64513316  1
  O  O228  1  0.87180804  0.59830589  0.12781211  1
  O  O229  1  0.87589419  0.72819011  0.48264213  1
  O  O230  1  0.21871158  0.27262661  0.06553672  1
  O  O231  1  0.25594320  0.24140178  0.63471789  1
  O  O232  1  0.28784222  0.76970491  0.12674018  1
  O  O233  1  0.23723519  0.73606407  0.61961902  1
  O  O234  1  0.66087428  0.30663916  0.09791596  1
  O  O235  1  0.75023325  0.24520557  0.61969882  1
  O  O236  1  0.78077783  0.74305550  0.07320142  1
  O  O237  1  0.68264760  0.83684556  0.60124367  1
  O  O238  1  0.25461271  0.25661387  0.41896054  1
  O  O239  1  0.23419266  0.25275182  0.89350769  1
  O  O240  1  0.22980512  0.71436662  0.42058499  1
  O  O241  1  0.26883051  0.77987500  0.77110184  1
  O  O242  1  0.71258370  0.25305542  0.40987307  1
  O  O243  1  0.69667489  0.26517331  0.88418455  1
  O  O244  1  0.72781379  0.81613026  0.40775049  1
  O  O245  1  0.76255589  0.71202757  0.86506114  1
  O  O246  1  -0.01030706  0.12904813  0.00633035  1
  O  O247  1  -0.00517597  0.11035851  0.45959659  1
  O  O248  1  0.00985732  0.56718949  0.02126703  1
  O  O249  1  0.00819314  0.57802741  0.46483841  1
  O  O250  1  0.52509332  0.17270969  0.07152609  1
  O  O251  1  0.46329583  0.14024666  0.53172547  1
  O  O252  1  0.49543912  0.62683787  -0.03990608  1
  O  O253  1  0.59336857  0.67149540  0.47091674  1
  O  O254  1  0.47001805  0.37979426  0.49588392  1
  O  O255  1  0.52695838  0.36037710  0.99321153  1
  O  O256  1  0.49696587  0.78168291  0.39296419  1
  O  O257  1  0.50976065  0.84857333  0.99669800  1
  O  O258  1  0.99346699  0.42118615  0.44069026  1
  O  O259  1  0.95732810  0.33716125  1.00911797  1
  O  O260  1  1.00660326  0.92254717  0.55180382  1
  O  O261  1  1.06948570  0.98432896  1.00803251  1
  O  O262  1  0.51657607  0.49042515  0.40307131  1
  O  O263  1  0.47395989  0.50623588  0.85492748  1
  O  O264  1  0.45537557  0.92629402  0.41783146  1
  O  O265  1  0.51562667  0.95205690  0.87655955  1
  O  O266  1  1.07709197  0.49658269  0.31360864  1
  O  O267  1  0.99356494  0.48126080  0.88676141  1
  O  O268  1  1.02449443  0.97869997  0.40023929  1
  O  O269  1  0.95384759  1.01670758  0.89895047  1
  O  O270  1  -0.07344580  -0.00170766  0.07137556  1
  O  O271  1  -0.01056360  0.06655411  0.60770332  1
  O  O272  1  -0.00245574  0.44164237  0.11475151  1
  O  O273  1  -0.05192679  0.49397966  0.58625381  1
  O  O274  1  0.49965750  0.02853522  0.14494071  1
  O  O275  1  0.49694700  0.01404586  0.59378606  1
  O  O276  1  0.50875582  0.55974802  0.13829338  1
  O  O277  1  0.52624870  0.49588884  0.61109559  1
  O  O278  1  0.23660244  0.39921380  0.27504284  1
  O  O279  1  0.29892290  0.33635607  0.75315389  1
  O  O280  1  0.21037939  0.85291456  0.34879966  1
  O  O281  1  0.27510743  0.93837318  0.76932412  1
  O  O282  1  0.72526218  0.38053016  0.20406524  1
  O  O283  1  0.71996235  0.39074454  0.77248885  1
  O  O284  1  0.81878754  0.84935181  0.17173955  1
  O  O285  1  0.74161067  0.84946277  0.74947468  1
  O  O286  1  0.27577178  0.14034108  0.23541781  1
  O  O287  1  0.24857930  0.13315433  0.79860565  1
  O  O288  1  0.22864526  0.57508020  0.22597897  1
  O  O289  1  0.27890165  0.61641315  0.77548181  1
  O  O290  1  0.74573322  0.18853603  0.24306404  1
  O  O291  1  0.70215204  0.10989227  0.73524633  1
  O  O292  1  0.81242149  0.66404338  0.25379900  1
  O  O293  1  0.76045290  0.59858557  0.76132074  1
  O  O294  1  0.35420707  0.13985537  0.37177753  1
  O  O295  1  0.40589456  0.06195852  0.85369362  1
  O  O296  1  0.38220673  0.57929879  0.39083263  1
  O  O297  1  0.34791551  0.57979243  0.91983813  1
  O  O298  1  0.86517251  0.14773381  0.35961552  1
  O  O299  1  0.78274082  0.07657843  0.97179553  1
  O  O300  1  0.93455551  0.61626078  0.31902692  1
  O  O301  1  0.87374786  0.58894498  0.86879329  1
  O  O302  1  0.15179729  0.25217968  0.07316416  1
  O  O303  1  0.15586062  0.34144172  0.68838769  1
  O  O304  1  0.18018916  0.91005310  0.09672774  1
  O  O305  1  0.17650477  0.90127446  0.58333721  1
  O  O306  1  0.56798524  0.42291892  0.15386265  1
  O  O307  1  0.62736907  0.37937594  0.65322066  1
  O  O308  1  0.64363456  0.81272710  0.10308464  1
  O  O309  1  0.60428589  0.88278552  0.45511119  1
  O  O310  1  0.13962437  0.25404007  0.25049644  1
  O  O311  1  0.01137864  0.35686476  0.75908248  1
  O  O312  1  0.15132140  0.76749195  0.23085306  1
  O  O313  1  0.12082098  0.73757243  0.73324108  1
  O  O314  1  0.60456295  0.29663700  0.26505527  1
  O  O315  1  0.62603859  0.25912065  0.74840693  1
  O  O316  1  0.66226395  0.79466280  0.27035598  1
  O  O317  1  0.53927161  0.79055799  0.69579787  1
  O  O318  1  0.37194401  0.28091993  0.27279960  1
  O  O319  1  0.42448277  0.12938800  0.86111145  1
  O  O320  1  0.36855798  0.67593040  0.22386022  1
  O  O321  1  0.39948211  0.64712177  0.66043880  1
  O  O322  1  0.89158523  0.25892059  0.24516890  1
  O  O323  1  0.82906982  0.23538957  0.76569193  1
  O  O324  1  0.92855691  0.71292124  0.19973377  1
  O  O325  1  0.92821783  0.70460618  0.67282087  1
  O  O326  1  0.34846008  0.47651696  0.51729278  1
  O  O327  1  0.42789099  0.48192549  1.00127118  1
  O  O328  1  0.33117570  0.95954888  0.57500565  1
  O  O329  1  0.28153466  0.80594531  0.96564276  1
  O  O330  1  0.83258918  0.57426443  0.47995449  1
  O  O331  1  0.89006218  0.47035470  0.98778804  1
  O  O332  1  0.83502316  1.03165193  0.48292900  1
  O  O333  1  0.80062998  1.01018567  0.98427367  1
  O  O334  1  0.20100588  0.06886700  0.07708982  1
  O  O335  1  0.11816449  0.03581386  0.52344338  1
  O  O336  1  0.09982544  0.44906516  -0.01195299  1
  O  O337  1  0.10628312  0.48879789  0.54855763  1
  O  O338  1  0.58487427  0.07466419  -0.04107090  1
  O  O339  1  0.59668048  0.00964404  0.44531855  1
  O  O340  1  0.61201898  0.51559407  -0.00860623  1
  O  O341  1  0.67607126  0.58878108  0.57075387  1
  O  O342  1  0.21650051  0.37125987  0.20151643  1
  O  O343  1  0.39709556  0.37810292  0.63481551  1
  O  O344  1  0.41494311  0.84757663  0.17561081  1
  O  O345  1  0.48996440  0.85861097  0.55405962  1
  O  O346  1  0.83826454  0.34761474  0.09818506  1
  O  O347  1  0.84972127  0.34511631  0.65117740  1
  O  O348  1  0.79574735  0.89720231  0.11746888  1
  O  O349  1  0.84317066  0.85470261  0.62252148  1
  O  O350  1  0.17509049  0.11293308  0.37219122  1
  O  O351  1  0.13067968  0.12797829  0.91298686  1
  O  O352  1  0.08912331  0.68847263  0.35034226  1
  O  O353  1  0.16650141  0.62491126  0.90674900  1
  O  O354  1  0.60230298  0.15538462  0.37309185  1
  O  O355  1  0.63228315  0.06532793  0.90942325  1
  O  O356  1  0.63839327  0.76499765  0.32959640  1
  O  O357  1  0.62812918  0.62113358  0.87049620  1
