# generated using pymatgen
data_V51Zn51O256
_symmetry_space_group_name_H-M   'P 1'
_cell_length_a   17.63746919
_cell_length_b   17.69118041
_cell_length_c   18.38956050
_cell_angle_alpha   91.67076691
_cell_angle_beta   92.08208864
_cell_angle_gamma   90.76307773
_symmetry_Int_Tables_number   1
_chemical_formula_structural   V51Zn51O256
_chemical_formula_sum   'V51 Zn51 O256'
_cell_volume   5731.23154031
_cell_formula_units_Z   1
loop_
 _symmetry_equiv_pos_site_id
 _symmetry_equiv_pos_as_xyz
  1  'x, y, z'
loop_
 _atom_site_type_symbol
 _atom_site_label
 _atom_site_symmetry_multiplicity
 _atom_site_fract_x
 _atom_site_fract_y
 _atom_site_fract_z
 _atom_site_occupancy
  V  V0  1  0.65861257  0.24236904  0.26524737  1
  V  V1  1  0.21314892  0.63652761  0.35324973  1
  V  V2  1  0.76681048  0.11482794  0.31537388  1
  V  V3  1  0.03672646  0.01611848  0.05481196  1
  V  V4  1  0.30100551  0.51471288  0.87991396  1
  V  V5  1  0.23563405  0.86562273  0.16158360  1
  V  V6  1  0.89704801  0.00728703  0.85128511  1
  V  V7  1  0.54092075  0.67589430  0.26648124  1
  V  V8  1  0.11786451  0.54669652  0.10691996  1
  V  V9  1  0.15827104  0.52410275  0.58228434  1
  V  V10  1  0.36564486  0.23056048  0.68758029  1
  V  V11  1  0.10310243  0.64638093  0.48713582  1
  V  V12  1  0.20718308  0.50734907  0.24055454  1
  V  V13  1  0.77578005  0.36375343  0.75338618  1
  V  V14  1  0.46867510  0.27153586  0.17574254  1
  V  V15  1  0.76099218  0.38485581  0.06226436  1
  V  V16  1  0.10787205  0.01947896  0.60104846  1
  V  V17  1  0.27179874  0.94737407  0.62146054  1
  V  V18  1  0.36356863  0.61934158  0.23600541  1
  V  V19  1  0.51088572  0.35115969  0.32757072  1
  V  V20  1  0.34554072  0.67502536  0.77029433  1
  V  V21  1  0.13136138  0.18353435  0.86731526  1
  V  V22  1  0.07025392  0.14449036  0.50584587  1
  V  V23  1  0.74210977  0.50101501  0.36896795  1
  V  V24  1  0.91238341  0.40512777  0.53863119  1
  V  V25  1  0.50195676  0.89585391  0.40900722  1
  V  V26  1  0.61096437  0.16047400  0.47789057  1
  V  V27  1  0.85858305  0.60222958  0.28823279  1
  V  V28  1  0.83418611  0.91299466  0.51055545  1
  V  V29  1  0.32171703  0.39784733  0.45669403  1
  V  V30  1  0.08311116  0.76524111  0.36534847  1
  V  V31  1  0.50543323  0.34781354  0.90145654  1
  V  V32  1  0.91596758  0.67611250  0.70940086  1
  V  V33  1  0.39846608  0.32842946  0.57401288  1
  V  V34  1  0.02035703  0.44465115  0.87941540  1
  V  V35  1  0.25854856  0.11701477  0.43080187  1
  V  V36  1  0.29242808  0.37511406  0.01163660  1
  V  V37  1  0.61538489  0.59811762  0.56007443  1
  V  V38  1  0.35624952  0.02259747  0.90036586  1
  V  V39  1  0.50652808  0.57994979  0.71563176  1
  V  V40  1  0.39967162  0.10358664  0.22511828  1
  V  V41  1  0.26470969  0.76095573  0.46058930  1
  V  V42  1  0.37877485  0.48515580  0.34348998  1
  V  V43  1  -0.01266542  0.37473348  0.36245402  1
  V  V44  1  0.12170093  0.33179135  0.23349992  1
  V  V45  1  0.10521471  0.78037838  0.91087809  1
  V  V46  1  0.64110730  0.82539098  0.31967972  1
  V  V47  1  0.10967763  0.25424584  0.39176109  1
  V  V48  1  0.04749868  0.80074026  0.65606706  1
  V  V49  1  0.52155706  0.58383631  0.12966487  1
  V  V50  1  0.13268190  0.01653546  0.21104526  1
  Zn  Zn51  1  0.85965354  0.51898117  0.14522135  1
  Zn  Zn52  1  0.55016852  0.39852868  0.07770883  1
  Zn  Zn53  1  0.13060362  0.86006319  0.50499796  1
  Zn  Zn54  1  0.49310762  0.79633753  0.16595151  1
  Zn  Zn55  1  0.67804960  0.98632769  0.40678010  1
  Zn  Zn56  1  0.44948933  0.07764857  0.40061084  1
  Zn  Zn57  1  0.42202960  0.93686543  0.25110961  1
  Zn  Zn58  1  0.94555523  0.83089932  0.79402780  1
  Zn  Zn59  1  0.51611341  0.20993713  0.62886730  1
  Zn  Zn60  1  0.09126883  0.36603982  0.03940070  1
  Zn  Zn61  1  0.00735166  0.50213985  0.24648094  1
  Zn  Zn62  1  0.21317468  0.94225380  1.00454868  1
  Zn  Zn63  1  0.11102765  0.05406054  0.35656947  1
  Zn  Zn64  1  0.17505600  0.17429098  0.67859344  1
  Zn  Zn65  1  0.94649417  0.34497059  0.13934516  1
  Zn  Zn66  1  0.74841639  0.68517056  0.41138566  1
  Zn  Zn67  1  0.91817966  0.69449073  0.43544422  1
  Zn  Zn68  1  0.68787313  0.56384352  0.21450067  1
  Zn  Zn69  1  0.98695896  0.20622828  1.00103351  1
  Zn  Zn70  1  0.22153103  0.17647311  0.27678525  1
  Zn  Zn71  1  0.14228943  0.58208087  0.93861860  1
  Zn  Zn72  1  1.02693790  0.62595142  0.84046576  1
  Zn  Zn73  1  0.41295705  0.41964455  0.74761731  1
  Zn  Zn74  1  0.39836596  0.21529398  0.96886988  1
  Zn  Zn75  1  0.34544709  0.79190246  0.32336847  1
  Zn  Zn76  1  0.68610515  0.33332707  0.41616205  1
  Zn  Zn77  1  0.21063360  0.71684927  0.63669513  1
  Zn  Zn78  1  0.90430329  0.30297997  0.86646207  1
  Zn  Zn79  1  0.96855742  0.37440827  0.71693740  1
  Zn  Zn80  1  0.28489830  0.85499162  0.79239698  1
  Zn  Zn81  1  0.06742015  0.34356750  0.54889600  1
  Zn  Zn82  1  0.40044645  0.43586506  0.17287266  1
  Zn  Zn83  1  0.78435432  0.10658742  0.47738677  1
  Zn  Zn84  1  0.79062005  0.20687112  0.15232450  1
  Zn  Zn85  1  0.32127095  0.57343505  0.51191102  1
  Zn  Zn86  1  0.38212560  -0.05260757  0.09108372  1
  Zn  Zn87  1  0.81683607  0.34536994  0.25665338  1
  Zn  Zn88  1  0.82095981  0.59062422  0.55533734  1
  Zn  Zn89  1  0.04873572  0.84748868  0.08529125  1
  Zn  Zn90  1  0.51687338  0.75381616  0.54704562  1
  Zn  Zn91  1  0.93377489  0.18831359  0.40492248  1
  Zn  Zn92  1  0.06049699  0.05700500  0.76638662  1
  Zn  Zn93  1  0.42597704  0.66554012  0.41087819  1
  Zn  Zn94  1  0.93902744  0.96606582  0.67050744  1
  Zn  Zn95  1  0.13772921  0.46541562  0.40424339  1
  Zn  Zn96  1  0.72196091  1.04162047  0.94842044  1
  Zn  Zn97  1  0.58780611  0.46514857  0.81768374  1
  Zn  Zn98  1  0.43340445  0.49705330  1.00719182  1
  Zn  Zn99  1  0.33226746  0.11117858  0.55960111  1
  Zn  Zn100  1  0.29062617  0.54785617  0.06310254  1
  Zn  Zn101  1  0.19451145  0.91296445  0.35948032  1
  O  O102  1  0.13755231  0.10587590  0.25513631  1
  O  O103  1  0.10567088  0.13140843  0.60379099  1
  O  O104  1  0.05787276  0.61667014  0.10466154  1
  O  O105  1  0.14251995  0.63999519  0.57871370  1
  O  O106  1  0.81111627  0.13347381  0.06231775  1
  O  O107  1  0.58105669  0.16003657  0.56750733  1
  O  O108  1  0.61802843  0.57206607  0.13132182  1
  O  O109  1  0.57101918  0.60850620  0.64875931  1
  O  O110  1  0.33001278  0.39286272  0.35936324  1
  O  O111  1  0.29081174  0.41794062  0.92768017  1
  O  O112  1  0.43539032  0.87016511  0.33672709  1
  O  O113  1  0.33774969  0.93073126  0.85874591  1
  O  O114  1  0.89778129  0.37367528  0.32808580  1
  O  O115  1  0.92914407  0.40997165  0.89136248  1
  O  O116  1  0.82888188  0.87033919  0.42323964  1
  O  O117  1  0.88400607  0.90371661  0.84999383  1
  O  O118  1  0.22096028  0.03300182  0.38992244  1
  O  O119  1  0.25866361  0.00295341  0.93182044  1
  O  O120  1  0.20413427  0.52540089  0.34380152  1
  O  O121  1  0.20658901  0.52938990  0.86881729  1
  O  O122  1  0.74744566  0.02198437  0.33163023  1
  O  O123  1  0.80694310  0.01718969  0.88630147  1
  O  O124  1  0.74205450  0.42479196  0.42499356  1
  O  O125  1  0.75066650  0.45669231  0.79915900  1
  O  O126  1  0.22567023  0.51427451  0.14867154  1
  O  O127  1  0.25476574  0.53230238  0.58017834  1
  O  O128  1  0.21305549  1.00604952  0.16929944  1
  O  O129  1  0.30346925  1.04243339  0.62909063  1
  O  O130  1  0.77819859  0.48637138  0.07099126  1
  O  O131  1  0.71297006  0.34894563  0.65722526  1
  O  O132  1  0.79115389  0.76829313  0.14728200  1
  O  O133  1  0.65004462  1.01118570  0.65476058  1
  O  O134  1  0.02799361  0.35413785  0.24865845  1
  O  O135  1  0.03568399  0.43176859  0.78682549  1
  O  O136  1  -0.04781479  0.86630908  0.19821292  1
  O  O137  1  -0.00684192  0.87139627  0.70477572  1
  O  O138  1  0.45398495  0.35802151  0.23277239  1
  O  O139  1  0.50030339  0.39849911  0.81596665  1
  O  O140  1  0.56407576  0.78424314  0.26188866  1
  O  O141  1  0.51833496  0.80477658  0.70688295  1
  O  O142  1  0.47076846  0.17207352  0.21058230  1
  O  O143  1  0.45377008  0.19445972  0.71262836  1
  O  O144  1  0.47444938  0.59439022  0.23145601  1
  O  O145  1  0.56227327  0.56487032  0.79271185  1
  O  O146  1  1.00934400  0.18710050  0.17022382  1
  O  O147  1  0.97354906  0.06712069  0.70532882  1
  O  O148  1  0.95074042  0.59747168  0.26661097  1
  O  O149  1  0.99344965  0.71437401  0.65914956  1
  O  O150  1  0.32644911  0.28540492  -0.00000291  1
  O  O151  1  0.34778551  0.30340946  0.48822699  1
  O  O152  1  0.46399432  0.82076101  -0.03220924  1
  O  O153  1  0.35855242  0.75342242  0.42431110  1
  O  O154  1  0.90178211  0.23817127  -0.05536601  1
  O  O155  1  0.91549630  0.22106554  0.64299437  1
  O  O156  1  0.84953995  0.82894195  0.02337393  1
  O  O157  1  0.80641785  0.83353196  0.55491673  1
  O  O158  1  0.10381591  0.25188768  0.49683576  1
  O  O159  1  0.15725988  0.18138237  0.95865428  1
  O  O160  1  0.14492237  0.74073949  0.47058609  1
  O  O161  1  0.07732553  0.78952137  0.99789036  1
  O  O162  1  0.66217606  0.24187960  0.46191082  1
  O  O163  1  0.52777728  0.13182612  1.03198805  1
  O  O164  1  0.59904019  0.68550749  0.52525777  1
  O  O165  1  0.65105705  0.93326901  1.04443457  1
  O  O166  1  0.53343476  0.29911324  0.11344479  1
  O  O167  1  0.49255568  0.30915783  0.57979138  1
  O  O168  1  0.52231505  0.69434646  0.15823472  1
  O  O169  1  0.42782862  0.68855516  0.56659863  1
  O  O170  1  1.00444545  0.29810834  0.05991028  1
  O  O171  1  0.98471824  0.22565282  0.64020150  1
  O  O172  1  0.97224713  0.76936955  0.12177095  1
  O  O173  1  1.05128777  0.82350759  0.56768406  1
  O  O174  1  0.00241991  0.26345902  0.36823060  1
  O  O175  1  0.03615104  0.18423641  0.90042707  1
  O  O176  1  -0.01017774  0.75173741  0.38544944  1
  O  O177  1  0.03062108  0.80931018  0.85854251  1
  O  O178  1  0.56642116  0.27823624  0.26706374  1
  O  O179  1  0.44266717  0.27240507  0.89515200  1
  O  O180  1  0.51197856  0.68430544  0.35438820  1
  O  O181  1  0.65800173  0.77370865  0.88422090  1
  O  O182  1  0.22439591  0.12899390  0.51477993  1
  O  O183  1  0.25033204  0.12351174  1.08618603  1
  O  O184  1  0.25760108  0.63589774  0.44150689  1
  O  O185  1  0.39987567  0.79152834  0.96766282  1
  O  O186  1  0.67639340  0.08189767  0.46645516  1
  O  O187  1  0.77388412  0.13791567  1.00109967  1
  O  O188  1  0.70846536  0.58200498  0.57169914  1
  O  O189  1  0.78527865  0.68904549  0.96838448  1
  O  O190  1  0.20255233  0.36864261  0.03987776  1
  O  O191  1  0.23048253  0.40993841  0.46780701  1
  O  O192  1  0.27875080  0.90076119  0.07790778  1
  O  O193  1  0.24476935  0.85509557  0.44851533  1
  O  O194  1  0.74622497  0.38737273  -0.02953314  1
  O  O195  1  0.84654487  0.33913624  0.53069620  1
  O  O196  1  0.69477332  1.00061822  0.04025066  1
  O  O197  1  0.73491884  0.93815580  0.49205501  1
  O  O198  1  0.11174881  0.53489878  0.21803714  1
  O  O199  1  0.15860883  0.52807489  0.69339726  1
  O  O200  1  0.11991803  0.96277824  0.29129749  1
  O  O201  1  0.13159963  1.02265392  0.69427250  1
  O  O202  1  0.69714169  0.48346685  0.28509678  1
  O  O203  1  0.68271278  0.41355263  0.79696439  1
  O  O204  1  0.70300252  0.86224767  0.26762934  1
  O  O205  1  0.52914530  0.95114367  0.76638826  1
  O  O206  1  0.43048851  0.04242694  0.29682533  1
  O  O207  1  0.33611970  0.06324057  0.81840361  1
  O  O208  1  0.33833503  0.49080740  0.24828198  1
  O  O209  1  0.34178359  0.47051921  0.80681635  1
  O  O210  1  0.92648060  0.00114489  0.31843258  1
  O  O211  1  0.86545490  -0.01771314  0.75379301  1
  O  O212  1  0.93603180  0.45269197  0.17534922  1
  O  O213  1  0.85693960  0.38931363  0.71309418  1
  O  O214  1  0.11225470  0.35382288  0.39305399  1
  O  O215  1  0.12199160  0.27770762  0.84924532  1
  O  O216  1  0.10313380  0.86179383  0.40088727  1
  O  O217  1  0.19412445  0.84438520  0.93293494  1
  O  O218  1  0.58935382  0.37484544  0.38029593  1
  O  O219  1  0.59162932  0.31428401  0.90751620  1
  O  O220  1  0.60027444  0.90923633  0.37391971  1
  O  O221  1  0.66732098  0.91196382  0.84518871  1
  O  O222  1  0.38732348  0.04120501  0.15312183  1
  O  O223  1  0.36788333  0.21340539  0.59299173  1
  O  O224  1  0.35076358  0.60470977  0.14466345  1
  O  O225  1  0.44000741  0.65178997  0.73482818  1
  O  O226  1  0.95811066  0.14737929  0.19188566  1
  O  O227  1  0.79859093  0.15861109  0.57841002  1
  O  O228  1  0.79923516  0.58770146  0.20523393  1
  O  O229  1  0.84910691  0.63547418  0.65220940  1
  O  O230  1  0.25597462  0.19197071  0.09861830  1
  O  O231  1  0.14746431  0.28986923  0.66215146  1
  O  O232  1  0.26012364  0.77759819  0.15818125  1
  O  O233  1  0.27058165  0.74637805  0.55181518  1
  O  O234  1  0.75712962  0.28540162  0.07009778  1
  O  O235  1  0.76336928  0.13637113  0.63220574  1
  O  O236  1  0.72435151  0.70537053  -0.00509809  1
  O  O237  1  0.69474118  0.81380341  0.66841909  1
  O  O238  1  0.22559538  0.19831464  0.38669622  1
  O  O239  1  0.22772424  0.19034305  0.85237878  1
  O  O240  1  0.22902013  0.73654395  0.35109379  1
  O  O241  1  0.19062917  0.83431054  0.85587113  1
  O  O242  1  0.72682999  0.30554893  0.30442459  1
  O  O243  1  0.66491778  0.15958473  0.77889686  1
  O  O244  1  0.82997372  0.67293465  0.48506964  1
  O  O245  1  0.78846947  0.85858205  1.00789253  1
  O  O246  1  -0.00035509  0.10530815  0.03501901  1
  O  O247  1  -0.02616233  0.15542180  0.50168080  1
  O  O248  1  -0.10801504  0.56259072  -0.00863134  1
  O  O249  1  0.00975510  0.65273159  0.49357491  1
  O  O250  1  0.46317751  0.16950336  0.04917088  1
  O  O251  1  0.53552592  0.14474714  0.41852932  1
  O  O252  1  0.49138022  0.59205586  0.04169274  1
  O  O253  1  0.42083328  0.63005195  0.51339781  1
  O  O254  1  0.45864765  0.29670711  0.37512148  1
  O  O255  1  0.49803848  0.41262238  0.98144335  1
  O  O256  1  0.50705223  0.83047674  0.47420565  1
  O  O257  1  0.63652357  0.89653472  0.98556523  1
  O  O258  1  0.97725579  0.38694844  0.46060801  1
  O  O259  1  1.07746804  0.39085556  0.93425742  1
  O  O260  1  0.92971593  0.90080901  0.49932451  1
  O  O261  1  0.98676475  0.93204064  1.04702721  1
  O  O262  1  0.46909492  0.45586128  0.33982084  1
  O  O263  1  0.62817752  0.50685740  0.93261512  1
  O  O264  1  0.48076081  0.98110143  0.44544840  1
  O  O265  1  0.45088491  1.00863969  0.89361351  1
  O  O266  1  1.02928196  0.46429964  0.34727456  1
  O  O267  1  1.03811731  0.54234428  0.90706254  1
  O  O268  1  0.96851836  1.05383155  0.34320597  1
  O  O269  1  0.99787861  0.99605037  0.82937720  1
  O  O270  1  0.05145828  0.02179086  0.15113983  1
  O  O271  1  0.01907732  -0.01660575  0.59913925  1
  O  O272  1  0.06733111  0.46828407  0.07842084  1
  O  O273  1  0.08959380  0.54562016  0.67109211  1
  O  O274  1  0.45027252  -0.10910950  0.15715298  1
  O  O275  1  0.47026936  0.01285172  0.63906969  1
  O  O276  1  0.49609203  0.48065031  0.13335850  1
  O  O277  1  0.46339089  0.49686098  0.68967827  1
  O  O278  1  0.19107490  0.40875494  0.25122502  1
  O  O279  1  0.17938857  0.33791312  0.70608053  1
  O  O280  1  0.26727921  0.86460961  0.28621395  1
  O  O281  1  0.26760788  0.90452982  0.70504698  1
  O  O282  1  0.77374690  0.39475530  0.16496434  1
  O  O283  1  0.80309742  0.30254756  0.81832910  1
  O  O284  1  0.68389966  0.76439289  0.37854865  1
  O  O285  1  0.68647775  0.91167143  0.78153732  1
  O  O286  1  0.31776025  0.14871483  0.24689181  1
  O  O287  1  0.27859773  0.19521416  0.70901026  1
  O  O288  1  0.25492019  0.61599410  0.26108650  1
  O  O289  1  0.27681161  0.66421054  0.70300154  1
  O  O290  1  0.80298549  0.12830876  0.23300803  1
  O  O291  1  0.54595865  0.01872447  0.76802051  1
  O  O292  1  0.70728869  0.58148187  0.40795551  1
  O  O293  1  0.73835197  0.76525388  0.68949136  1
  O  O294  1  0.35814680  0.10792795  0.45190902  1
  O  O295  1  0.35732012  0.11671473  0.93629889  1
  O  O296  1  0.37925475  0.58974835  0.34161013  1
  O  O297  1  0.32833702  0.61625283  0.84100067  1
  O  O298  1  0.83048278  0.15084622  0.39164661  1
  O  O299  1  0.89594637  0.10142635  0.82870354  1
  O  O300  1  0.84066810  0.52535091  0.34597941  1
  O  O301  1  0.95291109  0.61009127  0.76941205  1
  O  O302  1  0.12920041  0.30346790  0.14849398  1
  O  O303  1  0.13176967  0.43149262  0.57461340  1
  O  O304  1  0.13735093  0.87117122  0.14786146  1
  O  O305  1  0.17345735  0.94426050  0.57148059  1
  O  O306  1  0.66259063  0.39383799  0.07598614  1
  O  O307  1  0.71425205  0.28568731  0.69427334  1
  O  O308  1  0.72409571  0.76741430  0.12765736  1
  O  O309  1  0.54988428  0.81328278  0.64057531  1
  O  O310  1  0.14329283  0.25362416  0.29042459  1
  O  O311  1  0.10159042  0.16911672  0.76780006  1
  O  O312  1  0.08750559  0.77111611  0.27750633  1
  O  O313  1  0.13880252  0.78281784  0.68623401  1
  O  O314  1  0.68238283  0.22037541  0.17934557  1
  O  O315  1  0.68719148  0.14322298  0.84153879  1
  O  O316  1  0.62784182  0.63924360  0.27048012  1
  O  O317  1  0.56460610  0.80933364  0.76134387  1
  O  O318  1  0.38482735  0.27264510  0.13415135  1
  O  O319  1  0.37333475  0.33336355  0.67894615  1
  O  O320  1  0.37987640  0.71455515  0.25266925  1
  O  O321  1  0.34598589  0.76766811  0.80165662  1
  O  O322  1  0.86831524  0.28170660  0.18635584  1
  O  O323  1  0.96725689  0.29002378  0.78527896  1
  O  O324  1  0.84040952  0.68377393  0.33775133  1
  O  O325  1  0.87938861  0.75023921  0.75983049  1
  O  O326  1  0.36107642  0.49714632  0.44372197  1
  O  O327  1  0.34485400  0.54999181  0.96675191  1
  O  O328  1  0.47282534  0.94443104  0.64686413  1
  O  O329  1  0.37584430  0.99109600  0.99574589  1
  O  O330  1  0.87522651  0.49390768  0.54466526  1
  O  O331  1  0.90332140  0.58451886  1.05586591  1
  O  O332  1  0.84128062  1.01447973  0.49269311  1
  O  O333  1  0.93661477  1.01215811  0.93911513  1
  O  O334  1  0.12287216  -0.00216040  0.01801118  1
  O  O335  1  0.08729853  0.04820726  0.49229261  1
  O  O336  1  0.18392590  0.57382206  0.03424034  1
  O  O337  1  0.12152456  0.54210415  0.48340909  1
  O  O338  1  0.65721607  0.07561028  -0.13116158  1
  O  O339  1  0.62846718  -0.05510094  0.64749838  1
  O  O340  1  0.67995308  0.55503709  -0.05493007  1
  O  O341  1  0.55408067  0.50431544  0.54022441  1
  O  O342  1  0.34988642  0.44065693  0.07315897  1
  O  O343  1  0.38269191  0.42091904  0.55496872  1
  O  O344  1  0.30333836  0.91702801  0.23689246  1
  O  O345  1  0.33243056  0.90271203  0.57194298  1
  O  O346  1  0.86108348  0.37299498  0.05465485  1
  O  O347  1  0.98219949  0.37855939  0.61053969  1
  O  O348  1  0.94022895  0.79657955  0.18233694  1
  O  O349  1  0.84896466  0.94893986  0.60634354  1
  O  O350  1  0.08228742  0.14961015  0.40114997  1
  O  O351  1  0.12780959  0.07992894  0.85362205  1
  O  O352  1  0.11425844  0.64600382  0.37238505  1
  O  O353  1  0.11200099  0.68008369  0.88886409  1
  O  O354  1  0.67471645  0.15746208  0.31520543  1
  O  O355  1  0.55730094  0.14605278  0.97144863  1
  O  O356  1  0.57970364  0.53381226  0.47846577  1
  O  O357  1  0.69453537  0.75124581  0.83245496  1
