# generated using pymatgen
data_V51Zn51O256
_symmetry_space_group_name_H-M   'P 1'
_cell_length_a   17.59906840
_cell_length_b   17.47185329
_cell_length_c   17.46921824
_cell_angle_alpha   88.45058790
_cell_angle_beta   90.05070837
_cell_angle_gamma   90.01494394
_symmetry_Int_Tables_number   1
_chemical_formula_structural   V51Zn51O256
_chemical_formula_sum   'V51 Zn51 O256'
_cell_volume   5369.61471671
_cell_formula_units_Z   1
loop_
 _symmetry_equiv_pos_site_id
 _symmetry_equiv_pos_as_xyz
  1  'x, y, z'
loop_
 _atom_site_type_symbol
 _atom_site_label
 _atom_site_symmetry_multiplicity
 _atom_site_fract_x
 _atom_site_fract_y
 _atom_site_fract_z
 _atom_site_occupancy
  V  V0  1  0.01758412  0.61939069  0.12931943  1
  V  V1  1  0.38927761  0.25487555  0.67466026  1
  V  V2  1  0.30409080  -0.00914782  0.41032744  1
  V  V3  1  0.12076073  0.61145225  -0.04116607  1
  V  V4  1  0.23031925  0.22337009  0.41483140  1
  V  V5  1  0.52389862  0.48499094  -0.02616287  1
  V  V6  1  0.49350299  0.88254004  0.35008710  1
  V  V7  1  0.53989502  0.64199509  0.07532147  1
  V  V8  1  0.76088941  0.39767131  0.11939796  1
  V  V9  1  0.04279919  0.40726013  0.83810552  1
  V  V10  1  0.88653032  0.09870120  0.77854444  1
  V  V11  1  0.58396410  0.12513058  -0.03282535  1
  V  V12  1  0.57414276  0.83087491  0.73320346  1
  V  V13  1  0.87396076  0.50783002  0.35423897  1
  V  V14  1  0.61126119  0.26545167  0.84920798  1
  V  V15  1  0.47489609  0.12321323  0.63093900  1
  V  V16  1  0.31831776  0.73745335  0.05231706  1
  V  V17  1  0.26879599  0.37800936  0.13966508  1
  V  V18  1  0.84470380  -0.05774819  0.38326898  1
  V  V19  1  -0.00622749  0.86342726  0.87436828  1
  V  V20  1  0.87448929  0.64049551  0.73851802  1
  V  V21  1  0.64066289  0.50294363  0.13131477  1
  V  V22  1  0.72027565  0.86899871  0.15471605  1
  V  V23  1  0.26831085  0.24571505  0.01208111  1
  V  V24  1  0.67182595  -0.07337093  0.83983309  1
  V  V25  1  0.87028357  0.75923664  0.58861109  1
  V  V26  1  0.74687518  0.01861423  0.24007611  1
  V  V27  1  0.73827662  0.63565210  0.39285187  1
  V  V28  1  0.62314202  0.07969111  0.55085782  1
  V  V29  1  0.36944463  0.38845239  -0.01358080  1
  V  V30  1  0.11800811  0.13691521  0.06197039  1
  V  V31  1  0.87727765  0.25370882  0.12488176  1
  V  V32  1  0.20870446  0.88104437  0.05331607  1
  V  V33  1  0.35862303  0.11454539  0.78558845  1
  V  V34  1  0.87322373  0.63838637  0.22838882  1
  V  V35  1  0.75941530  0.26826878  -0.00598941  1
  V  V36  1  0.12774845  0.74027695  0.35545869  1
  V  V37  1  0.44184237  0.59923248  0.24235963  1
  V  V38  1  0.89446291  0.40094666  -0.00070959  1
  V  V39  1  -0.02171230  0.48827841  0.48701182  1
  V  V40  1  0.11370134  0.14638844  0.54433782  1
  V  V41  1  0.40468575  0.75949908  0.75624505  1
  V  V42  1  0.13280552  0.49377143  0.14699346  1
  V  V43  1  0.46412104  0.92569218  0.90705079  1
  V  V44  1  0.87069793  0.49610458  0.85407021  1
  V  V45  1  -0.02244517  0.28766357  0.25527748  1
  V  V46  1  0.51337034  0.24910590  0.24331813  1
  V  V47  1  0.00720916  0.62971769  0.59983650  1
  V  V48  1  -0.00485441  -0.00667569  0.51132178  1
  V  V49  1  0.45688975  -0.02131260  0.51468348  1
  V  V50  1  0.48536051  0.40618723  0.46772631  1
  Zn  Zn51  1  0.05250245  0.80345415  0.53209541  1
  Zn  Zn52  1  0.96454073  0.44576626  0.68338383  1
  Zn  Zn53  1  0.04554619  0.06785326  0.85121046  1
  Zn  Zn54  1  0.05970178  0.31671633  0.07203957  1
  Zn  Zn55  1  0.29469353  0.29902792  0.83531897  1
  Zn  Zn56  1  0.70863199  0.45930640  0.30195407  1
  Zn  Zn57  1  0.21468836  0.20533117  0.20583221  1
  Zn  Zn58  1  0.54251126  0.58328159  0.40280274  1
  Zn  Zn59  1  0.29986266  0.10291010  0.56114817  1
  Zn  Zn60  1  0.70740918  0.42483470  0.91623366  1
  Zn  Zn61  1  0.80153322  0.32694552  0.30082999  1
  Zn  Zn62  1  0.43144217  0.20535692  0.43961971  1
  Zn  Zn63  1  0.00330347  0.31303896  0.57324270  1
  Zn  Zn64  1  0.42972130  0.94958861  0.71833329  1
  Zn  Zn65  1  0.82423820  0.78646573  0.29056776  1
  Zn  Zn66  1  0.31889014  0.84759645  0.90230133  1
  Zn  Zn67  1  0.83729137  0.56106939  0.05514416  1
  Zn  Zn68  1  0.23242740  0.43297752  0.40456804  1
  Zn  Zn69  1  0.32866676  0.79006367  0.39074026  1
  Zn  Zn70  1  0.48559739  0.81665907  1.01923843  1
  Zn  Zn71  1  0.94583475  0.45649357  0.18208040  1
  Zn  Zn72  1  0.49447135  0.59025706  0.81677833  1
  Zn  Zn73  1  0.81754665  0.80706110  0.81861213  1
  Zn  Zn74  1  0.28390950  0.54655994  0.04076309  1
  Zn  Zn75  1  0.88094039  0.29763424  0.84145809  1
  Zn  Zn76  1  0.05223494  0.55703877  0.78069471  1
  Zn  Zn77  1  0.16389483  0.94648880  0.87887975  1
  Zn  Zn78  1  0.40687902  0.99396829  0.24733340  1
  Zn  Zn79  1  0.55598105  0.29922249  0.03044992  1
  Zn  Zn80  1  0.43693292  0.21168679  0.92701830  1
  Zn  Zn81  1  0.15390870  0.71227157  0.14202854  1
  Zn  Zn82  1  0.93361879  0.92628159  0.68584108  1
  Zn  Zn83  1  0.15608096  0.09874620  0.35440792  1
  Zn  Zn84  1  0.85317119  0.58965529  0.53480576  1
  Zn  Zn85  1  0.70520374  0.69029936  0.67202932  1
  Zn  Zn86  1  0.26982016  0.06093724  0.10017768  1
  Zn  Zn87  1  0.55757608  0.25526238  0.56692280  1
  Zn  Zn88  1  0.72612494  0.68789667  0.10859347  1
  Zn  Zn89  1  0.45656338  0.43373938  0.15935935  1
  Zn  Zn90  1  0.17087243  0.59464313  0.48947917  1
  Zn  Zn91  1  0.18911260  0.06898181  0.72016584  1
  Zn  Zn92  1  0.68880976  0.83853778  0.35978717  1
  Zn  Zn93  1  0.71676956  0.11307491  0.09520016  1
  Zn  Zn94  1  0.35217424  0.56522300  0.40063358  1
  Zn  Zn95  1  0.98148650  0.65040425  0.90228543  1
  Zn  Zn96  1  0.62289886  0.95467793  1.02313215  1
  Zn  Zn97  1  0.54698060  0.06271531  0.79692147  1
  Zn  Zn98  1  0.93086840  0.69105202  0.41689405  1
  Zn  Zn99  1  0.06849210  0.54927813  0.31617159  1
  Zn  Zn100  1  1.01480911  0.17640999  0.40698430  1
  Zn  Zn101  1  0.16969618  0.42039342  0.98460515  1
  O  O102  1  0.18127050  0.11513223  0.14693392  1
  O  O103  1  0.12415933  0.10760821  0.63402820  1
  O  O104  1  0.13381051  0.59735928  0.12378588  1
  O  O105  1  0.10059866  0.61788967  0.57781156  1
  O  O106  1  0.63175332  0.06806782  0.04004141  1
  O  O107  1  0.57546671  0.10711006  0.64149043  1
  O  O108  1  0.63659610  0.61617835  0.10273072  1
  O  O109  1  0.63976977  0.59556847  0.63281746  1
  O  O110  1  0.49175149  0.43204232  0.36915626  1
  O  O111  1  0.35903109  0.37507582  0.89118623  1
  O  O112  1  0.30206480  0.89357729  0.42084861  1
  O  O113  1  0.37198885  0.94834153  0.92471475  1
  O  O114  1  0.86313862  0.41306491  0.35107298  1
  O  O115  1  0.87323379  0.39375018  0.89335710  1
  O  O116  1  0.76024329  0.90616172  0.41562044  1
  O  O117  1  0.89396574  0.88367426  0.85573687  1
  O  O118  1  0.21127071  0.02156240  0.40869389  1
  O  O119  1  0.22569355  -0.08586601  0.77225292  1
  O  O120  1  0.32260042  0.46841980  0.35257713  1
  O  O121  1  0.24521194  0.42446614  0.75063413  1
  O  O122  1  0.82133352  0.01667384  0.31281546  1
  O  O123  1  0.68872670  -0.06440116  0.93569756  1
  O  O124  1  0.76661686  0.53804339  0.35521684  1
  O  O125  1  0.77489191  0.50359021  0.86596652  1
  O  O126  1  0.24046103  0.48418561  0.12782754  1
  O  O127  1  0.39452504  0.58022860  0.61665466  1
  O  O128  1  0.26081833  0.95277934  0.09418819  1
  O  O129  1  0.25977198  1.02200989  0.63968687  1
  O  O130  1  0.74297351  0.50944981  0.09544355  1
  O  O131  1  0.73105807  0.44610884  0.55498601  1
  O  O132  1  0.77376736  0.95814348  0.15823734  1
  O  O133  1  0.68486872  0.87016310  0.55551653  1
  O  O134  1  -0.00273510  0.38185758  0.25570567  1
  O  O135  1  0.06362403  0.45150926  0.74462194  1
  O  O136  1  0.07962077  0.93431140  0.21570884  1
  O  O137  1  -0.00487084  0.88938046  0.77224385  1
  O  O138  1  0.49200588  0.35196672  0.23351086  1
  O  O139  1  0.64498828  0.37834969  0.65484534  1
  O  O140  1  0.48822658  0.92774189  0.26011623  1
  O  O141  1  0.46862659  0.83871286  0.71609330  1
  O  O142  1  0.53590400  0.15768077  0.21589827  1
  O  O143  1  0.46490405  0.12014593  0.73924914  1
  O  O144  1  0.52315982  0.58499307  0.29329359  1
  O  O145  1  0.45899808  0.68885877  0.80507993  1
  O  O146  1  1.03896528  0.14543095  0.24305240  1
  O  O147  1  0.98667885  0.08518892  0.75038649  1
  O  O148  1  1.01519066  0.61046754  0.23029928  1
  O  O149  1  0.99075372  0.61384931  0.70612777  1
  O  O150  1  0.36898186  0.26577736  0.00198547  1
  O  O151  1  0.43314500  0.31899237  0.45468082  1
  O  O152  1  0.39726791  0.78834650  0.07978069  1
  O  O153  1  0.29753348  0.70842423  0.53080370  1
  O  O154  1  0.87566242  0.28500051  0.02279634  1
  O  O155  1  0.77982556  0.18354983  0.43026672  1
  O  O156  1  0.82713299  0.70486601  -0.04075700  1
  O  O157  1  0.88509085  0.76287761  0.49056824  1
  O  O158  1  0.06917671  0.23279481  0.55892749  1
  O  O159  1  0.12668545  0.23543312  1.03844641  1
  O  O160  1  0.12251024  0.75311133  0.45942472  1
  O  O161  1  0.16445150  0.69108295  0.97911814  1
  O  O162  1  0.64524287  0.19014538  0.52936777  1
  O  O163  1  0.66111272  0.28845272  0.99987997  1
  O  O164  1  0.50554490  0.70640521  0.57042314  1
  O  O165  1  0.65326418  0.69952261  0.88080751  1
  O  O166  1  0.54449780  0.26864392  0.14680134  1
  O  O167  1  0.48773524  0.25061038  0.65140746  1
  O  O168  1  0.55354869  0.73196095  0.04013141  1
  O  O169  1  0.36494350  0.72034064  0.68190845  1
  O  O170  1  0.97912280  0.27784247  0.14246480  1
  O  O171  1  0.95090599  0.34313552  0.65687219  1
  O  O172  1  1.04386861  0.71374687  0.11774006  1
  O  O173  1  0.99653260  0.73282087  0.59552585  1
  O  O174  1  -0.03035765  0.25459928  0.34936620  1
  O  O175  1  -0.01169767  0.32675632  0.82838693  1
  O  O176  1  0.02590357  0.72204507  0.35831895  1
  O  O177  1  -0.01851371  0.76390700  0.87243641  1
  O  O178  1  0.48396645  0.21706705  0.34083231  1
  O  O179  1  0.51571236  0.27326170  0.87435977  1
  O  O180  1  0.42945820  0.80820470  0.35573517  1
  O  O181  1  0.45575785  0.82757077  0.90317122  1
  O  O182  1  0.21614153  0.16666186  0.52427338  1
  O  O183  1  0.26745895  0.14837219  1.02679048  1
  O  O184  1  0.25748760  0.53577507  0.45398622  1
  O  O185  1  0.31943776  0.64170819  1.07815894  1
  O  O186  1  0.70448752  0.04097794  0.56874312  1
  O  O187  1  0.76542228  0.17191789  1.01974318  1
  O  O188  1  0.76535298  0.63236059  0.48648379  1
  O  O189  1  0.78299608  0.65576150  1.00940023  1
  O  O190  1  0.26637855  0.36895942  0.01390882  1
  O  O191  1  0.39746680  0.45077318  0.47765703  1
  O  O192  1  0.22192638  0.88932063  -0.04965125  1
  O  O193  1  0.23234730  0.95135262  0.60183022  1
  O  O194  1  0.77480453  0.38628973  0.00442463  1
  O  O195  1  0.84272558  0.26459968  0.57363410  1
  O  O196  1  0.63331389  0.89519894  0.12051558  1
  O  O197  1  0.63080658  0.83451251  0.53121214  1
  O  O198  1  0.12856375  0.48582997  0.24303714  1
  O  O199  1  0.22101502  0.46284889  0.69355828  1
  O  O200  1  -0.05498771  1.00734828  0.14219526  1
  O  O201  1  0.13450767  1.02660696  0.80985305  1
  O  O202  1  0.64230026  0.50663356  0.22701909  1
  O  O203  1  0.56806087  0.55065051  0.73220470  1
  O  O204  1  0.66811551  0.98562436  0.27730086  1
  O  O205  1  0.64547549  1.01346614  0.79814691  1
  O  O206  1  0.33828589  0.02262054  0.32316876  1
  O  O207  1  0.35566978  0.01762456  0.76613166  1
  O  O208  1  0.40820971  0.51300779  0.21497293  1
  O  O209  1  0.35395677  0.53659056  0.78260763  1
  O  O210  1  0.88476923  -0.13046165  0.33422829  1
  O  O211  1  0.87790926  0.00152789  0.74990972  1
  O  O212  1  0.88943779  0.52538638  0.25149039  1
  O  O213  1  0.88370766  0.48192177  0.75650497  1
  O  O214  1  0.12045188  0.47318772  0.40246179  1
  O  O215  1  0.12367541  0.39104441  0.89215084  1
  O  O216  1  0.10722382  0.83736484  0.34172507  1
  O  O217  1  0.09283378  0.84628525  0.87109425  1
  O  O218  1  0.71046767  0.36004824  0.34820701  1
  O  O219  1  0.65862209  0.35378715  0.84858738  1
  O  O220  1  0.58277792  0.84941374  0.37147326  1
  O  O221  1  0.60201878  0.85052932  0.82993827  1
  O  O222  1  0.37197192  0.05761340  0.16222137  1
  O  O223  1  0.36521224  0.16221223  0.63269472  1
  O  O224  1  0.47689459  0.64887492  0.15167022  1
  O  O225  1  0.32990272  0.69346876  0.46145167  1
  O  O226  1  0.87272820  0.16139631  0.12949922  1
  O  O227  1  0.85368626  0.13433417  0.69257993  1
  O  O228  1  0.91067552  0.61419174  0.12441597  1
  O  O229  1  0.88177618  0.64922205  0.62540974  1
  O  O230  1  0.24910407  0.27225129  0.12203169  1
  O  O231  1  0.34813972  0.32980148  0.63615110  1
  O  O232  1  0.23145072  0.78284051  0.09735259  1
  O  O233  1  0.24500260  0.66223735  0.55710266  1
  O  O234  1  0.77326557  0.29215371  0.12153112  1
  O  O235  1  0.77980426  0.23437777  0.57756722  1
  O  O236  1  0.75326833  0.79531860  0.10012378  1
  O  O237  1  0.77375252  0.74849113  0.60650848  1
  O  O238  1  0.22613833  0.32042928  0.41878433  1
  O  O239  1  0.23594558  0.25567693  0.91923544  1
  O  O240  1  0.22597807  0.75148436  0.36309784  1
  O  O241  1  0.31486528  0.74682620  0.95663669  1
  O  O242  1  0.82086169  0.23829637  0.41214348  1
  O  O243  1  0.78793112  0.26763116  0.89984966  1
  O  O244  1  0.74748394  0.73397919  0.36016450  1
  O  O245  1  0.78661678  0.75915074  0.92387283  1
  O  O246  1  0.03393457  0.12437029  0.09674298  1
  O  O247  1  -0.00101098  0.11262138  0.49787593  1
  O  O248  1  0.02758963  0.61456785  0.00264868  1
  O  O249  1  -0.03419480  0.61941337  0.49953717  1
  O  O250  1  0.52207585  0.19190124  0.00851700  1
  O  O251  1  0.48259482  0.16312055  0.53050399  1
  O  O252  1  0.50586351  0.58787587  -0.00172510  1
  O  O253  1  0.49292414  0.72675072  0.50401532  1
  O  O254  1  0.55634270  0.32899978  0.47854714  1
  O  O255  1  0.48364769  0.38791165  1.00360049  1
  O  O256  1  0.44865456  0.89365473  0.55279549  1
  O  O257  1  0.51935458  0.92403382  0.99589162  1
  O  O258  1  0.98943002  0.39228941  0.49145335  1
  O  O259  1  0.98819387  0.37902253  1.00525173  1
  O  O260  1  1.03590707  0.90488842  0.50094662  1
  O  O261  1  0.96840567  0.85969157  0.96945580  1
  O  O262  1  0.44663103  0.59314240  0.44938732  1
  O  O263  1  0.49791655  0.49999260  0.87959909  1
  O  O264  1  0.46239765  0.95652380  0.41367204  1
  O  O265  1  0.49083409  0.96110238  0.81368964  1
  O  O266  1  0.97855669  0.51926186  0.37914071  1
  O  O267  1  0.99087363  0.48485272  0.87114458  1
  O  O268  1  1.12298174  0.98743088  0.22723206  1
  O  O269  1  1.02431090  0.96139071  0.90015661  1
  O  O270  1  -0.06008854  -0.03029167  0.20185042  1
  O  O271  1  -0.03027488  -0.00863910  0.60432235  1
  O  O272  1  0.02998038  0.50409359  0.12208240  1
  O  O273  1  -0.01682965  0.51173782  0.58940849  1
  O  O274  1  0.43473524  0.05588261  0.10249035  1
  O  O275  1  0.44389596  0.02673371  0.61992189  1
  O  O276  1  0.54096705  0.49247614  0.10654795  1
  O  O277  1  0.57124492  0.58867347  0.66451490  1
  O  O278  1  0.25986543  0.37063777  0.23275329  1
  O  O279  1  0.22620516  0.34814114  0.75348725  1
  O  O280  1  0.24013884  0.88892229  0.24238306  1
  O  O281  1  0.18936479  0.86580737  0.73624276  1
  O  O282  1  0.77517427  0.40964869  0.21670836  1
  O  O283  1  0.75966204  0.28107199  0.72610037  1
  O  O284  1  0.72401481  0.83364786  0.24977610  1
  O  O285  1  0.74972864  0.88618270  0.79472809  1
  O  O286  1  0.22224577  0.19028965  0.31470630  1
  O  O287  1  0.26382030  0.13575941  0.76603804  1
  O  O288  1  0.24257528  0.59636713  0.26995531  1
  O  O289  1  0.33649895  0.54216052  0.61031817  1
  O  O290  1  0.72817201  0.10893119  0.20103954  1
  O  O291  1  0.80403551  0.08390791  0.82889868  1
  O  O292  1  0.78024910  0.64127003  0.20024294  1
  O  O293  1  0.77951619  0.62254367  0.73200128  1
  O  O294  1  0.32499311  0.19705912  0.43035205  1
  O  O295  1  0.37986030  0.12891401  0.87990774  1
  O  O296  1  0.37873435  0.63431507  0.30930115  1
  O  O297  1  0.29952503  0.57835312  0.76746806  1
  O  O298  1  1.04788299  0.10269950  0.31120747  1
  O  O299  1  0.93786606  0.08658171  0.87583037  1
  O  O300  1  0.87051455  0.63521372  0.34096223  1
  O  O301  1  0.90104574  0.60590319  0.84024617  1
  O  O302  1  0.13522041  0.39694623  0.09789696  1
  O  O303  1  0.10116548  0.22565511  0.76869082  1
  O  O304  1  0.11894538  0.89487932  0.07130213  1
  O  O305  1  0.14629866  0.79675206  0.61763288  1
  O  O306  1  0.65800715  0.39944683  0.11790529  1
  O  O307  1  0.65001012  0.31799139  0.61908643  1
  O  O308  1  0.54119401  0.78637479  0.21482750  1
  O  O309  1  0.60792691  0.90137380  0.68129087  1
  O  O310  1  0.07186767  0.21897478  0.24675302  1
  O  O311  1  0.09463232  0.19616105  0.83356123  1
  O  O312  1  0.13368671  0.72821800  0.25675860  1
  O  O313  1  0.14799052  0.74504444  0.66775761  1
  O  O314  1  0.59624249  0.27291834  0.29274099  1
  O  O315  1  0.61682226  0.23329459  0.76127198  1
  O  O316  1  0.58399915  0.73615745  0.23928346  1
  O  O317  1  0.61816602  0.74623177  0.70793334  1
  O  O318  1  0.41373517  0.23925861  0.22967658  1
  O  O319  1  0.36892667  0.24413119  0.77348511  1
  O  O320  1  0.25401426  0.64434419  0.21844982  1
  O  O321  1  0.33253215  0.80785176  0.80186148  1
  O  O322  1  0.87400067  0.27723999  0.23621989  1
  O  O323  1  0.89602622  0.19658539  0.79820723  1
  O  O324  1  0.89753716  0.73375388  0.22688588  1
  O  O325  1  0.87355285  0.73534077  0.75834131  1
  O  O326  1  0.56065717  0.47829743  0.46491987  1
  O  O327  1  0.36612759  0.48673079  0.99371824  1
  O  O328  1  0.35826126  1.02923045  0.49425352  1
  O  O329  1  0.40988331  1.06389086  1.03546578  1
  O  O330  1  0.87506900  0.49941491  0.47279523  1
  O  O331  1  0.88687534  0.50385542  0.97557573  1
  O  O332  1  0.90897428  0.98247202  0.45147091  1
  O  O333  1  0.89425187  0.88537326  1.06139700  1
  O  O334  1  0.13376832  0.04614768  -0.00516295  1
  O  O335  1  0.09008370  0.04573245  0.49703701  1
  O  O336  1  0.18651806  0.53369788  -0.02167737  1
  O  O337  1  0.09710956  0.50282782  0.47122230  1
  O  O338  1  0.52970793  0.06715299  -0.08705315  1
  O  O339  1  0.55652987  0.00829611  0.51861490  1
  O  O340  1  0.61852808  0.47314339  -0.02991608  1
  O  O341  1  0.74366957  0.38510720  0.52410243  1
  O  O342  1  0.36788998  0.38362973  0.11568698  1
  O  O343  1  0.49021617  0.42155553  0.56659614  1
  O  O344  1  0.30121787  0.85380465  0.24592323  1
  O  O345  1  0.27923238  0.89734718  0.60497923  1
  O  O346  1  0.87326274  0.42015347  0.10431852  1
  O  O347  1  0.81709086  0.32145839  0.73218641  1
  O  O348  1  0.93387615  0.83176913  0.08222609  1
  O  O349  1  0.89219796  0.84372008  0.63238872  1
  O  O350  1  0.12619136  0.18325895  0.42560300  1
  O  O351  1  0.09447283  0.10134841  0.95396756  1
  O  O352  1  0.13175484  0.63409037  0.37768903  1
  O  O353  1  0.08867627  0.62137039  0.86025756  1
  O  O354  1  0.63341861  0.14706861  0.46385597  1
  O  O355  1  0.64320755  0.17303247  0.90240630  1
  O  O356  1  0.64266271  0.62299308  0.39945667  1
  O  O357  1  0.63556811  0.63415644  0.86322193  1
