# generated using pymatgen
data_V51Zn51O256
_symmetry_space_group_name_H-M   'P 1'
_cell_length_a   17.52862756
_cell_length_b   17.28594351
_cell_length_c   17.59788798
_cell_angle_alpha   90.71973269
_cell_angle_beta   90.47288684
_cell_angle_gamma   90.60524286
_symmetry_Int_Tables_number   1
_chemical_formula_structural   V51Zn51O256
_chemical_formula_sum   'V51 Zn51 O256'
_cell_volume   5331.23441327
_cell_formula_units_Z   1
loop_
 _symmetry_equiv_pos_site_id
 _symmetry_equiv_pos_as_xyz
  1  'x, y, z'
loop_
 _atom_site_type_symbol
 _atom_site_label
 _atom_site_symmetry_multiplicity
 _atom_site_fract_x
 _atom_site_fract_y
 _atom_site_fract_z
 _atom_site_occupancy
  V  V0  1  0.42752791  0.62841768  0.23936218  1
  V  V1  1  0.07851409  0.35651481  0.90206096  1
  V  V2  1  0.29227763  0.46756958  0.24073007  1
  V  V3  1  0.55426813  0.24296688  0.21477741  1
  V  V4  1  0.37221085  0.38977764  0.54181679  1
  V  V5  1  0.01525674  0.05077464  0.02193279  1
  V  V6  1  0.01271298  0.06147572  0.58227977  1
  V  V7  1  0.41463661  0.48742052  0.36642716  1
  V  V8  1  0.10277843  0.88269461  0.77174748  1
  V  V9  1  0.14806634  0.04529982  0.12765723  1
  V  V10  1  0.84723434  0.53468479  0.38384275  1
  V  V11  1  0.62819572  0.90972371  0.24793363  1
  V  V12  1  0.86046945  0.70613716  0.68706529  1
  V  V13  1  0.23857515  0.48848948  0.78798242  1
  V  V14  1  0.61275480  0.85698216  0.76966474  1
  V  V15  1  0.01826390  0.88543851  0.92943125  1
  V  V16  1  0.62929677  0.58570316  -0.05340486  1
  V  V17  1  0.49686808  0.89412608  0.37635087  1
  V  V18  1  0.62417038  0.64412082  0.52784225  1
  V  V19  1  0.36444452  0.67652229  0.72061632  1
  V  V20  1  0.38494499  0.23340956  0.11792012  1
  V  V21  1  0.40424354  0.21651997  0.63046015  1
  V  V22  1  0.80397605  0.26104337  -0.08082312  1
  V  V23  1  0.62525251  0.48369048  0.64148501  1
  V  V24  1  0.29265940  0.15952263  0.37243130  1
  V  V25  1  0.00370641  0.71054531  0.83498430  1
  V  V26  1  0.35800453  0.87032421  0.01307769  1
  V  V27  1  0.79334175  0.37863505  0.61902945  1
  V  V28  1  0.22179624  0.13467000  0.88586090  1
  V  V29  1  0.01576786  0.23008559  0.76389350  1
  V  V30  1  0.78633155  0.27075839  0.48728055  1
  V  V31  1  0.48481594  0.37422023  0.85682348  1
  V  V32  1  0.85953652  0.15506755  0.25841312  1
  V  V33  1  0.24594496  0.74182291  0.00879583  1
  V  V34  1  0.54034854  0.20095727  0.75662976  1
  V  V35  1  0.50727298  -0.03688289  -0.00806483  1
  V  V36  1  0.14905857  0.60758333  0.07351175  1
  V  V37  1  0.59487563  0.26220499  0.38831086  1
  V  V38  1  0.57105590  0.72914609  0.85590873  1
  V  V39  1  0.20596162  0.88750413  0.24849983  1
  V  V40  1  0.14202054  0.29377287  0.34159778  1
  V  V41  1  0.75621628  0.70274905  0.04648778  1
  V  V42  1  0.34985358  0.01980658  0.89891738  1
  V  V43  1  0.13332000  0.57323743  0.64814295  1
  V  V44  1  0.49912943  0.50992586  0.52914552  1
  V  V45  1  0.61924538  0.75533024  0.37113844  1
  V  V46  1  0.77051441  0.88987082  0.13260525  1
  V  V47  1  0.67790979  0.03761616  0.03122766  1
  V  V48  1  0.83893222  -0.06098348  0.88661102  1
  V  V49  1  0.28147926  0.62411180  0.35541222  1
  V  V50  1  0.22861203  0.25317451  0.51664778  1
  Zn  Zn51  1  0.31219760  0.31118706  0.78508190  1
  Zn  Zn52  1  0.67358709  0.42690838  0.45668686  1
  Zn  Zn53  1  0.04681607  0.22645986  0.57187141  1
  Zn  Zn54  1  0.90987319  0.84457492  0.75812971  1
  Zn  Zn55  1  0.10194469  0.54459281  0.85927644  1
  Zn  Zn56  1  0.34904218  0.98664897  0.31708390  1
  Zn  Zn57  1  0.52046899  0.31569566  0.03860686  1
  Zn  Zn58  1  0.13974486  0.87151484  0.08407073  1
  Zn  Zn59  1  0.47720612  0.67072641  0.41633221  1
  Zn  Zn60  1  0.30088745  0.57507416  0.55161016  1
  Zn  Zn61  1  0.40667493  0.31046181  0.30947557  1
  Zn  Zn62  1  0.32120609  0.84021653  0.79948199  1
  Zn  Zn63  1  0.86363552  0.11256777  0.78499782  1
  Zn  Zn64  1  0.41252299  0.22126189  0.91586771  1
  Zn  Zn65  1  0.94099791  0.46082276  0.25572286  1
  Zn  Zn66  1  0.42981392  0.41084062  0.17099205  1
  Zn  Zn67  1  0.96423027  0.70826340  1.02168642  1
  Zn  Zn68  1  0.22016399  0.18425128  0.19674158  1
  Zn  Zn69  1  0.86593529  0.36746715  0.78023077  1
  Zn  Zn70  1  0.17195719  0.16111399  0.67247162  1
  Zn  Zn71  1  0.74439867  0.22820222  0.73886468  1
  Zn  Zn72  1  0.93984608  0.52019771  0.66283443  1
  Zn  Zn73  1  0.35272569  0.08511120  0.50800796  1
  Zn  Zn74  1  0.69128928  0.63972529  0.22666323  1
  Zn  Zn75  1  0.85613942  0.16921216  0.60289496  1
  Zn  Zn76  1  0.48415234  0.01520309  0.79504995  1
  Zn  Zn77  1  0.84261214  0.13008454  0.04738348  1
  Zn  Zn78  1  0.54109289  0.31371185  0.57925650  1
  Zn  Zn79  1  -0.00803551  0.85654157  0.60913564  1
  Zn  Zn80  1  0.26617029  0.39496096  0.39134288  1
  Zn  Zn81  1  0.65258355  0.70510768  0.67049701  1
  Zn  Zn82  1  0.78585141  0.56524374  0.57588883  1
  Zn  Zn83  1  -0.02488534  0.25015124  0.01227832  1
  Zn  Zn84  1  0.56464443  0.07774259  0.30672724  1
  Zn  Zn85  1  0.51541992  0.55297043  0.77924836  1
  Zn  Zn86  1  0.12364657  0.54404389  0.26203987  1
  Zn  Zn87  1  0.69493167  1.13003552  0.45122883  1
  Zn  Zn88  1  0.04820953  0.05489974  0.83228093  1
  Zn  Zn89  1  0.46387756  0.94326674  0.17819534  1
  Zn  Zn90  1  0.34850257  0.03798508  0.11187390  1
  Zn  Zn91  1  0.05128693  0.21566210  0.21511987  1
  Zn  Zn92  1  0.72949134  0.29887286  0.30756874  1
  Zn  Zn93  1  0.35741401  0.79819804  0.29073418  1
  Zn  Zn94  1  0.15458208  0.71230452  0.23706991  1
  Zn  Zn95  1  0.32959305  0.57909576  0.11421754  1
  Zn  Zn96  1  0.17909303  0.74255917  0.72710097  1
  Zn  Zn97  1  0.21486898  0.91266561  0.91944270  1
  Zn  Zn98  1  0.92548315  0.99095597  0.14265735  1
  Zn  Zn99  1  0.21156249  0.45980905  0.97422743  1
  Zn  Zn100  1  0.67968399  0.86269293  0.96299061  1
  Zn  Zn101  1  0.58638722  0.56026380  0.34273258  1
  O  O102  1  0.11300329  0.12862216  0.17398248  1
  O  O103  1  0.10463217  0.09135184  0.61358923  1
  O  O104  1  0.12462697  0.62000076  0.16893824  1
  O  O105  1  0.14365264  0.67190426  0.65180485  1
  O  O106  1  0.62406591  0.08717656  0.08651852  1
  O  O107  1  0.67433973  0.00032779  0.62411277  1
  O  O108  1  0.58611652  0.56410937  0.04511845  1
  O  O109  1  0.62730864  0.60069237  0.62435604  1
  O  O110  1  0.38939670  0.39143030  0.39624098  1
  O  O111  1  0.39322362  0.32287073  0.86237178  1
  O  O112  1  0.39618914  0.88259667  0.35137004  1
  O  O113  1  0.32265851  0.89051342  0.89576779  1
  O  O114  1  0.89482439  0.44165568  0.35910927  1
  O  O115  1  1.06842637  0.39041569  0.67088203  1
  O  O116  1  0.91498685  0.79620135  0.48383488  1
  O  O117  1  0.91430271  0.89182550  0.93924929  1
  O  O118  1  0.34153259  0.06715648  0.39945791  1
  O  O119  1  0.24523148  0.02489803  0.89416313  1
  O  O120  1  0.30008047  0.50081901  0.34944586  1
  O  O121  1  0.21165707  0.52194505  0.88263331  1
  O  O122  1  0.70109835  0.01652704  0.42046583  1
  O  O123  1  0.75553583  -0.05906495  0.93868137  1
  O  O124  1  0.75767188  0.48250729  0.39961397  1
  O  O125  1  0.90342180  0.52548469  0.83466781  1
  O  O126  1  0.33519444  0.46472243  0.14588881  1
  O  O127  1  0.19923904  0.53625798  0.58701349  1
  O  O128  1  0.24331013  1.07335574  0.13220086  1
  O  O129  1  0.18844635  0.94355777  0.50057420  1
  O  O130  1  0.77359517  0.47732985  0.05753757  1
  O  O131  1  0.73189631  0.48024749  0.62654072  1
  O  O132  1  0.73396252  0.97526171  0.09891251  1
  O  O133  1  0.65370449  1.03909255  0.67835684  1
  O  O134  1  -0.01408436  0.36089236  0.22215319  1
  O  O135  1  0.12704189  0.38634925  0.63318350  1
  O  O136  1  -0.03159490  0.87792793  0.30306163  1
  O  O137  1  0.00044346  0.87006754  0.81436960  1
  O  O138  1  0.57991113  0.39295304  0.21684800  1
  O  O139  1  0.52089566  0.32811200  0.75801122  1
  O  O140  1  0.55698041  0.88995134  0.18210106  1
  O  O141  1  0.45289038  0.92535268  0.62496094  1
  O  O142  1  0.52927965  0.14941736  0.22868645  1
  O  O143  1  0.52030954  0.10416443  0.74270099  1
  O  O144  1  0.51889330  0.61642298  0.27372028  1
  O  O145  1  0.44982298  0.63369197  0.74224226  1
  O  O146  1  0.95509798  0.19167902  0.25584297  1
  O  O147  1  0.98045935  0.13577536  0.78794348  1
  O  O148  1  1.02090091  0.53065121  0.27796518  1
  O  O149  1  1.01962516  0.61548727  0.84609184  1
  O  O150  1  0.41532059  0.26184585  0.02466706  1
  O  O151  1  0.39146033  0.27748526  0.55324733  1
  O  O152  1  0.34489517  0.76436217  -0.00222127  1
  O  O153  1  0.31291660  0.79228029  0.52647917  1
  O  O154  1  0.86853348  0.22447193  -0.00913197  1
  O  O155  1  0.85849699  0.29205379  0.43344647  1
  O  O156  1  0.85104531  0.69849315  0.02626635  1
  O  O157  1  0.87291209  0.61682716  0.63792807  1
  O  O158  1  0.13082272  0.25803937  0.51297047  1
  O  O159  1  0.15169784  0.28521440  1.07196658  1
  O  O160  1  0.17525173  0.80436797  0.44667058  1
  O  O161  1  0.14266138  0.72875887  1.05932820  1
  O  O162  1  0.56370020  0.27119270  0.47792667  1
  O  O163  1  0.69681951  0.29563170  0.91915842  1
  O  O164  1  0.61772512  0.73507491  0.56418341  1
  O  O165  1  0.60766951  0.70874201  0.95851914  1
  O  O166  1  0.56415995  0.25761195  0.11753837  1
  O  O167  1  0.50655610  0.22810964  0.64996428  1
  O  O168  1  0.50118006  0.73305426  0.08217467  1
  O  O169  1  0.37530000  0.81039320  0.55317082  1
  O  O170  1  1.00133722  0.27373187  0.12541776  1
  O  O171  1  0.96279691  0.15560774  0.57358887  1
  O  O172  1  0.91680222  0.73495015  0.17100337  1
  O  O173  1  1.02412794  0.73657707  0.36586272  1
  O  O174  1  0.02349832  0.39355632  0.49391961  1
  O  O175  1  0.06956276  0.27138176  0.83861359  1
  O  O176  1  -0.10106566  0.78879789  0.41426457  1
  O  O177  1  -0.00405625  0.75726668  0.92609484  1
  O  O178  1  0.51929266  0.28213136  0.32083877  1
  O  O179  1  0.50559243  0.21291671  0.84834425  1
  O  O180  1  0.51211816  0.77576693  0.39080845  1
  O  O181  1  0.48299112  0.74956477  0.86870156  1
  O  O182  1  0.26880005  0.16119970  0.48227358  1
  O  O183  1  0.23287074  0.18503718  0.96447420  1
  O  O184  1  0.26707154  0.61122443  0.44997984  1
  O  O185  1  0.25445453  0.64421575  1.06277657  1
  O  O186  1  0.78320876  0.16857643  0.51559439  1
  O  O187  1  0.74991265  0.09780872  1.00150143  1
  O  O188  1  0.72091864  0.63092204  0.51563454  1
  O  O189  1  0.72035445  0.62529090  0.98645608  1
  O  O190  1  0.15372941  0.34887220  0.10256575  1
  O  O191  1  0.27491886  0.35111924  0.49886920  1
  O  O192  1  0.23474659  0.85436010  0.02059762  1
  O  O193  1  0.17185170  0.92649379  0.56570774  1
  O  O194  1  0.84619802  0.34261337  -0.11413849  1
  O  O195  1  0.73796906  0.36233747  0.52541392  1
  O  O196  1  0.75806914  0.81716737  0.06337844  1
  O  O197  1  0.71777081  0.96018388  0.47406676  1
  O  O198  1  0.19821699  0.47298537  0.22386748  1
  O  O199  1  0.15375671  0.53268049  0.74079919  1
  O  O200  1  0.00661816  0.93303575  0.32697193  1
  O  O201  1  0.10499593  0.98070904  0.76863441  1
  O  O202  1  0.58953543  0.42152889  0.15125329  1
  O  O203  1  0.60713759  0.50287280  0.73449281  1
  O  O204  1  0.64105278  1.00551090  0.25860288  1
  O  O205  1  0.54285797  0.92518234  0.77140957  1
  O  O206  1  0.37757402  -0.00524804  0.21110472  1
  O  O207  1  0.37434173  -0.00324580  0.80625758  1
  O  O208  1  0.43383920  0.47067075  0.27226850  1
  O  O209  1  0.32190524  0.52057786  0.76168281  1
  O  O210  1  0.90350418  0.06376634  0.22443968  1
  O  O211  1  0.82256194  -0.12023737  0.80900788  1
  O  O212  1  0.84881557  0.53183486  0.27939433  1
  O  O213  1  0.90530892  0.47446897  0.76210128  1
  O  O214  1  0.15869008  0.39103929  0.36232104  1
  O  O215  1  0.16820125  0.36313433  0.94125300  1
  O  O216  1  0.23705150  0.94671832  0.31947177  1
  O  O217  1  0.11510304  0.87907549  0.88688782  1
  O  O218  1  0.64958598  0.35657557  0.37173993  1
  O  O219  1  0.57788435  0.35883813  0.80376095  1
  O  O220  1  0.60041615  0.86791498  0.33624759  1
  O  O221  1  0.63087277  0.82411605  0.86742861  1
  O  O222  1  0.40191250  0.13905068  0.12395219  1
  O  O223  1  0.37572902  0.12288646  0.60672093  1
  O  O224  1  0.43445333  0.59876187  0.14463499  1
  O  O225  1  0.33767436  0.64736545  0.62951577  1
  O  O226  1  0.84877856  0.16640952  0.15253507  1
  O  O227  1  0.92240778  0.01953985  0.62920766  1
  O  O228  1  0.98638098  0.73277112  0.13139114  1
  O  O229  1  0.74908549  0.56260982  0.78173065  1
  O  O230  1  0.29047649  0.24546916  0.13595954  1
  O  O231  1  0.23923313  0.23278271  0.61106796  1
  O  O232  1  0.15492575  0.76853767  0.13127191  1
  O  O233  1  0.15774510  0.76900647  0.50393931  1
  O  O234  1  0.71622245  0.26616632  -0.01301765  1
  O  O235  1  0.83640416  0.28939362  0.58643792  1
  O  O236  1  0.74046063  0.67091284  0.13605132  1
  O  O237  1  0.76491121  0.71562084  0.69337141  1
  O  O238  1  0.22148227  0.24729314  0.39055578  1
  O  O239  1  0.23976318  0.21429725  0.81228703  1
  O  O240  1  0.30439863  0.71982815  0.35072733  1
  O  O241  1  0.21280498  0.72129440  0.92487597  1
  O  O242  1  0.71336879  0.24238107  0.41215964  1
  O  O243  1  0.79645720  0.19698180  0.84376775  1
  O  O244  1  0.68881455  0.78624634  0.42628791  1
  O  O245  1  0.66053124  0.75512058  1.00154030  1
  O  O246  1  0.02167349  0.14808682  0.01375473  1
  O  O247  1  0.01901571  0.02260902  0.49754166  1
  O  O248  1  0.04458085  0.61136914  0.02958945  1
  O  O249  1  0.04043809  0.70812738  0.42701013  1
  O  O250  1  0.62240797  0.10093375  -0.07373152  1
  O  O251  1  0.55883044  0.06840013  0.50711621  1
  O  O252  1  0.53057796  0.56336782  -0.00799038  1
  O  O253  1  0.50279809  0.61278851  0.51471510  1
  O  O254  1  0.47606731  0.39579440  0.53154638  1
  O  O255  1  0.52504138  0.36674201  0.94546918  1
  O  O256  1  0.50449769  0.91977804  0.46527063  1
  O  O257  1  0.46083610  0.87333106  0.98087146  1
  O  O258  1  0.98620201  0.34430354  0.52845719  1
  O  O259  1  1.01353198  0.34288047  0.97306901  1
  O  O260  1  0.98447029  0.84030419  0.50052422  1
  O  O261  1  1.04818307  0.87273348  1.02112451  1
  O  O262  1  0.50805082  0.50063688  0.40442239  1
  O  O263  1  0.46880490  0.46837847  0.83714571  1
  O  O264  1  0.50460379  0.98382067  0.32764500  1
  O  O265  1  0.47220132  1.01880649  0.91657982  1
  O  O266  1  0.93436634  0.57774619  0.40472145  1
  O  O267  1  1.05514274  0.44178937  0.86073067  1
  O  O268  1  0.83790053  0.92227042  0.36333013  1
  O  O269  1  1.02198560  0.99675485  0.92887515  1
  O  O270  1  0.03078915  0.01154455  0.11710036  1
  O  O271  1  -0.01401492  -0.02827830  0.64582181  1
  O  O272  1  -0.07117758  0.49509133  0.13450239  1
  O  O273  1  0.03881963  0.54606118  0.62901541  1
  O  O274  1  0.48509860  0.00117593  0.07695317  1
  O  O275  1  0.49883626  0.06520572  0.54769470  1
  O  O276  1  0.51846939  0.42072537  0.10286376  1
  O  O277  1  0.50859957  0.50883190  0.62470196  1
  O  O278  1  0.30876087  0.37224133  0.26923321  1
  O  O279  1  0.23705170  0.38870218  0.78212067  1
  O  O280  1  0.28179900  0.83626562  0.21700865  1
  O  O281  1  0.20344666  0.84516699  0.76622020  1
  O  O282  1  0.75424470  0.38948260  0.23047808  1
  O  O283  1  0.77577363  0.34210897  0.71283139  1
  O  O284  1  0.71850795  0.86986706  0.21646854  1
  O  O285  1  0.68714917  0.88468295  0.72230422  1
  O  O286  1  0.24763095  0.13039048  0.29115167  1
  O  O287  1  0.23907217  0.14569143  0.76387042  1
  O  O288  1  0.32109467  0.58590970  0.24071982  1
  O  O289  1  0.25947214  0.66194717  0.76293283  1
  O  O290  1  0.76867003  0.11092598  0.25458724  1
  O  O291  1  0.81145612  0.14988799  0.69803601  1
  O  O292  1  0.66793735  0.54779871  0.27504298  1
  O  O293  1  0.76617105  0.61513617  0.82653672  1
  O  O294  1  0.36863334  0.21517668  0.35167739  1
  O  O295  1  0.35524868  0.12141034  0.90420287  1
  O  O296  1  0.40040544  0.60372456  0.36174015  1
  O  O297  1  0.31416252  0.67511328  0.81946783  1
  O  O298  1  0.86534141  0.12718539  0.35122205  1
  O  O299  1  0.86733183  0.02828886  0.85420996  1
  O  O300  1  0.80411778  0.62125270  0.37024366  1
  O  O301  1  0.86521618  0.49813664  0.88752760  1
  O  O302  1  -0.03562271  0.33909184  0.15098274  1
  O  O303  1  0.09604911  0.52396574  0.42337422  1
  O  O304  1  0.16065763  0.94455965  0.16934089  1
  O  O305  1  0.07422722  0.85174236  0.68079784  1
  O  O306  1  0.75194447  0.41233258  0.03780308  1
  O  O307  1  0.61028200  0.38526827  0.63058886  1
  O  O308  1  0.55193378  0.72778445  0.12931728  1
  O  O309  1  0.50926162  0.88540842  0.61555161  1
  O  O310  1  0.14709820  0.26509154  0.24269842  1
  O  O311  1  0.07616537  0.22902182  0.68450994  1
  O  O312  1  0.14283541  0.81529028  0.27929335  1
  O  O313  1  0.08188747  0.74265278  0.79031586  1
  O  O314  1  0.64721639  0.25054292  0.24813913  1
  O  O315  1  0.63692969  0.21342031  0.75313599  1
  O  O316  1  0.65323606  0.72634009  0.28388983  1
  O  O317  1  0.58871953  0.75244545  0.74860708  1
  O  O318  1  0.43662634  0.29357973  0.19333501  1
  O  O319  1  0.36683799  0.24885836  0.71291510  1
  O  O320  1  0.41735028  0.72604443  0.23413060  1
  O  O321  1  0.36835044  0.77877723  0.72298977  1
  O  O322  1  0.82508535  0.24955478  0.27096626  1
  O  O323  1  0.94127626  0.28819058  0.74594061  1
  O  O324  1  0.92243068  0.73906454  0.24248259  1
  O  O325  1  0.91061079  0.71055579  0.77825939  1
  O  O326  1  0.38306125  0.49890309  0.51005392  1
  O  O327  1  0.33799821  0.44908435  0.97402358  1
  O  O328  1  0.31239238  0.96425637  0.54432391  1
  O  O329  1  0.34730011  0.98215420  1.00557730  1
  O  O330  1  0.84461904  0.52257035  0.48571577  1
  O  O331  1  0.90257299  0.56077970  1.12301465  1
  O  O332  1  0.77354490  0.97306196  0.51864028  1
  O  O333  1  0.91348304  1.04270516  1.03973545  1
  O  O334  1  0.13250871  0.04108672  0.03077680  1
  O  O335  1  -0.12619788  -0.04225767  0.41280002  1
  O  O336  1  0.17662322  0.51306889  0.06311517  1
  O  O337  1  0.08251219  0.56982166  0.47481479  1
  O  O338  1  0.61033686  -0.04734141  -0.00903594  1
  O  O339  1  0.61880472  0.10744236  0.53884947  1
  O  O340  1  0.65926559  0.50279229  -0.08346877  1
  O  O341  1  0.60631418  0.49533394  0.51748795  1
  O  O342  1  0.37319906  0.51119829  -0.01178587  1
  O  O343  1  0.35065359  0.40725817  0.62940797  1
  O  O344  1  0.37899776  0.87183963  0.10478970  1
  O  O345  1  0.28779651  0.94924156  0.60869293  1
  O  O346  1  0.81762048  0.39124912  0.19673511  1
  O  O347  1  0.87451003  0.43449679  0.61989053  1
  O  O348  1  0.86462490  0.90171726  0.15595899  1
  O  O349  1  0.90252862  0.79476567  0.65371242  1
  O  O350  1  0.05578268  0.27028582  0.36953193  1
  O  O351  1  0.12609121  0.12201966  0.87521228  1
  O  O352  1  0.18609438  0.62855357  0.31088946  1
  O  O353  1  0.10369868  0.61535199  0.97368745  1
  O  O354  1  0.60374032  0.15539444  0.37944855  1
  O  O355  1  0.65536847  0.08372899  0.86614923  1
  O  O356  1  0.60101263  0.65385491  0.41671845  1
  O  O357  1  0.58332954  0.62288318  0.85242650  1
