# generated using pymatgen
data_V51Zn51O256
_symmetry_space_group_name_H-M   'P 1'
_cell_length_a   17.60253257
_cell_length_b   17.57666288
_cell_length_c   17.69576453
_cell_angle_alpha   91.23482993
_cell_angle_beta   89.40422789
_cell_angle_gamma   90.12063681
_symmetry_Int_Tables_number   1
_chemical_formula_structural   V51Zn51O256
_chemical_formula_sum   'V51 Zn51 O256'
_cell_volume   5473.38242568
_cell_formula_units_Z   1
loop_
 _symmetry_equiv_pos_site_id
 _symmetry_equiv_pos_as_xyz
  1  'x, y, z'
loop_
 _atom_site_type_symbol
 _atom_site_label
 _atom_site_symmetry_multiplicity
 _atom_site_fract_x
 _atom_site_fract_y
 _atom_site_fract_z
 _atom_site_occupancy
  V  V0  1  0.51473048  0.04079360  0.08557479  1
  V  V1  1  0.39206633  0.81222312  0.44158433  1
  V  V2  1  0.82574131  0.67727499  0.19591766  1
  V  V3  1  0.02535939  -0.02898667  0.49044477  1
  V  V4  1  -0.05737820  -0.00908498  0.02733573  1
  V  V5  1  -0.05498429  0.41859205  0.83567782  1
  V  V6  1  0.02232121  0.49682222  0.52491330  1
  V  V7  1  0.53448299  0.39356714  0.36518477  1
  V  V8  1  0.14235251  0.60744886  0.53093465  1
  V  V9  1  0.74749264  0.11591232  0.37067235  1
  V  V10  1  0.26552376  0.71710965  0.52816764  1
  V  V11  1  0.50261382  -0.03726595  0.49848124  1
  V  V12  1  0.87128596  0.85882084  0.45833112  1
  V  V13  1  0.68922825  0.36070539  0.26981045  1
  V  V14  1  0.51112950  0.66354765  0.61986318  1
  V  V15  1  0.17037370  0.38216254  0.77643374  1
  V  V16  1  0.25722168  0.25276414  0.47729672  1
  V  V17  1  0.25096161  0.91494636  0.64201022  1
  V  V18  1  0.38308459  0.23211317  0.61442312  1
  V  V19  1  0.60401069  0.88068165  0.28428585  1
  V  V20  1  0.65940492  0.62705161  0.51035613  1
  V  V21  1  0.26231692  0.39448924  0.61841556  1
  V  V22  1  0.03464223  0.92764938  0.83461349  1
  V  V23  1  0.89249854  0.10232000  0.27536107  1
  V  V24  1  0.86689680  0.37648132  0.50364007  1
  V  V25  1  0.52695947  0.49897180  0.50378818  1
  V  V26  1  0.90425160  0.78866235  0.62408534  1
  V  V27  1  0.69539289  0.94261344  0.11048480  1
  V  V28  1  0.87848413  0.20647947  0.15287212  1
  V  V29  1  0.02811379  0.71223053  0.71562386  1
  V  V30  1  0.91163031  0.12032410  0.76618920  1
  V  V31  1  0.72964096  0.27716650  0.10594310  1
  V  V32  1  0.78889913  0.62775027  0.38998213  1
  V  V33  1  0.36695252  0.75371692  0.09224340  1
  V  V34  1  0.67834165  0.80508741  -0.00755623  1
  V  V35  1  0.64232835  0.52805857  0.14096012  1
  V  V36  1  0.10265300  0.71417342  0.88358977  1
  V  V37  1  0.36571446  0.94352506  -0.09073481  1
  V  V38  1  0.80636614  0.50004279  0.25677124  1
  V  V39  1  0.76305332  0.67114671  0.87254305  1
  V  V40  1  0.12020287  0.69753356  0.35889819  1
  V  V41  1  0.71426152  0.14802357  0.83568292  1
  V  V42  1  0.60451551  0.70277790  0.35697402  1
  V  V43  1  0.11403829  0.26084204  0.36097787  1
  V  V44  1  0.51719771  0.21366384  0.32285719  1
  V  V45  1  0.31383108  0.08718152  0.83883032  1
  V  V46  1  0.15319842  0.00737038  0.13577952  1
  V  V47  1  0.91261042  0.50268398  0.39145846  1
  V  V48  1  0.89832028  0.30354614  0.66186221  1
  V  V49  1  0.21187640  0.15475630  0.96596448  1
  V  V50  1  0.12385028  0.13820117  0.49069976  1
  Zn  Zn51  1  0.56279650  0.28714107  0.51019772  1
  Zn  Zn52  1  0.89655209  0.59460085  0.75007938  1
  Zn  Zn53  1  0.09562343  0.41642246  0.93939365  1
  Zn  Zn54  1  0.75549658  0.67977843  0.66859652  1
  Zn  Zn55  1  0.34974490  0.56304221  0.55623773  1
  Zn  Zn56  1  0.78492789  0.81559534  0.31166479  1
  Zn  Zn57  1  0.32620238  0.04723933  0.08445860  1
  Zn  Zn58  1  0.96663425  0.68453415  0.46578007  1
  Zn  Zn59  1  0.57208951  0.80235599  0.51163003  1
  Zn  Zn60  1  0.98396140  0.95953643  0.66836264  1
  Zn  Zn61  1  0.51468388  0.38196993  0.18462805  1
  Zn  Zn62  1  0.90923022  0.77932854  0.83153556  1
  Zn  Zn63  1  0.21340578  0.84851099  0.82256186  1
  Zn  Zn64  1  0.53614248  0.19619360  0.13733921  1
  Zn  Zn65  1  0.63229091  0.98949964  0.93894423  1
  Zn  Zn66  1  0.71826033  0.45647199  0.44596642  1
  Zn  Zn67  1  0.84480870  0.56456908  0.56626570  1
  Zn  Zn68  1  0.02622867  0.28299720  0.51491688  1
  Zn  Zn69  1  0.67154218  0.11752706  0.18574185  1
  Zn  Zn70  1  0.66997905  0.71901276  0.16533429  1
  Zn  Zn71  1  0.73471829  0.60472840  0.02389011  1
  Zn  Zn72  1  0.48374420  0.78378772  0.94219080  1
  Zn  Zn73  1  0.04879251  0.15281025  0.08158375  1
  Zn  Zn74  1  0.19668940  0.60206366  0.22477465  1
  Zn  Zn75  1  0.16753687  0.24669388  0.65118883  1
  Zn  Zn76  1  0.18689866  0.96717295  0.94684876  1
  Zn  Zn77  1  0.88278244  0.40189320  0.12906917  1
  Zn  Zn78  1  0.09627423  0.80091110  0.57260059  1
  Zn  Zn79  1  0.93405523  0.19531600  0.42153590  1
  Zn  Zn80  1  0.54546009  0.67046966  0.80994489  1
  Zn  Zn81  1  0.42467507  0.14329474  0.46620000  1
  Zn  Zn82  1  0.27779101  0.10880063  0.59036637  1
  Zn  Zn83  1  0.44881055  0.64848724  0.44727040  1
  Zn  Zn84  1  0.40084059  0.14468862  0.98464960  1
  Zn  Zn85  1  0.31271794  0.73624955  0.29043239  1
  Zn  Zn86  1  0.02612755  0.11555105  0.91853394  1
  Zn  Zn87  1  0.15381633  0.39882573  0.46741541  1
  Zn  Zn88  1  0.69419556  0.92695099  0.43242307  1
  Zn  Zn89  1  1.00614616  0.13302143  0.60812530  1
  Zn  Zn90  1  0.50322129  0.86223036  0.12995832  1
  Zn  Zn91  1  0.07868865  0.86125177  -0.00475040  1
  Zn  Zn92  1  0.58376211  0.05183786  0.37593988  1
  Zn  Zn93  1  0.46100475  0.38116773  0.63148839  1
  Zn  Zn94  1  0.08028306  0.05310021  0.31687239  1
  Zn  Zn95  1  0.63400411  0.52568566  0.32876939  1
  Zn  Zn96  1  0.06253516  0.54181174  0.80585979  1
  Zn  Zn97  1  0.71316452  0.21555959  0.63504599  1
  Zn  Zn98  1  0.78107125  0.09200585  0.02933853  1
  Zn  Zn99  1  1.05608307  0.39492423  0.65286381  1
  Zn  Zn100  1  0.86137399  0.97272012  0.18011549  1
  Zn  Zn101  1  0.81076839  0.33388493  0.83210572  1
  O  O102  1  0.13590799  0.10043168  0.11593785  1
  O  O103  1  0.11630282  0.16204413  0.60253431  1
  O  O104  1  0.19781104  0.56442180  0.11491502  1
  O  O105  1  0.14412370  0.60360527  0.62263369  1
  O  O106  1  0.56635623  0.08579358  0.15895827  1
  O  O107  1  0.70531614  -0.02296191  0.61637262  1
  O  O108  1  0.62055429  0.62262983  0.12914906  1
  O  O109  1  0.66980969  0.65259317  0.60300550  1
  O  O110  1  0.44690030  0.38275659  0.33666003  1
  O  O111  1  0.46354919  0.54269420  1.00617036  1
  O  O112  1  0.37206141  0.80714788  0.34748149  1
  O  O113  1  0.36670761  0.99944357  0.82515525  1
  O  O114  1  0.89229624  0.40268283  0.40739402  1
  O  O115  1  0.87476870  0.39381826  0.89768763  1
  O  O116  1  0.87782402  0.84328638  0.36333239  1
  O  O117  1  0.94701829  0.88272932  0.83855674  1
  O  O118  1  0.27259855  0.13377438  0.28323943  1
  O  O119  1  0.22601962  0.06824622  0.90313172  1
  O  O120  1  0.29732477  0.46281085  0.30354323  1
  O  O121  1  0.25361102  0.46956185  1.04578053  1
  O  O122  1  0.82292779  0.08062811  0.60387674  1
  O  O123  1  0.65985934  0.06250102  0.85201607  1
  O  O124  1  0.78997351  0.51560813  0.37785074  1
  O  O125  1  0.76522898  0.58589458  0.91516038  1
  O  O126  1  0.17412584  0.41467853  0.18494605  1
  O  O127  1  0.28462932  0.48467130  0.59742001  1
  O  O128  1  0.25007889  1.00389719  0.14613027  1
  O  O129  1  0.25422327  1.01142502  0.62695633  1
  O  O130  1  0.83735924  0.49538719  0.16450199  1
  O  O131  1  0.70521082  0.45896471  0.64309016  1
  O  O132  1  0.70756469  1.04190709  0.10105071  1
  O  O133  1  0.75069776  0.96022525  0.66528177  1
  O  O134  1  -0.00558373  0.39520432  0.10915164  1
  O  O135  1  -0.08652026  0.48943651  0.77983826  1
  O  O136  1  0.02217543  0.81161927  0.23757010  1
  O  O137  1  0.05845766  0.92314031  0.73936392  1
  O  O138  1  0.57902227  0.37391613  0.26736861  1
  O  O139  1  0.46046851  0.37585756  0.74728690  1
  O  O140  1  0.54795255  0.82943650  0.21951678  1
  O  O141  1  0.43921422  0.88288875  0.73987574  1
  O  O142  1  0.58150302  0.14122923  0.31450001  1
  O  O143  1  0.52917143  0.26134935  0.81938474  1
  O  O144  1  0.45076527  0.56988451  0.20640361  1
  O  O145  1  0.54207698  0.64050326  0.70914742  1
  O  O146  1  0.98689021  0.10632968  0.28682248  1
  O  O147  1  0.95312701  0.15250741  0.84692814  1
  O  O148  1  0.91649892  0.69397716  0.18890175  1
  O  O149  1  1.01166885  0.61426586  0.73365232  1
  O  O150  1  0.45080126  0.32341539  -0.02347359  1
  O  O151  1  0.35389119  0.24429814  0.47977103  1
  O  O152  1  0.34353983  0.77928080  -0.00000182  1
  O  O153  1  0.34947920  0.70812104  0.46114348  1
  O  O154  1  0.79440266  0.18492070  0.08946952  1
  O  O155  1  0.89272083  0.28182573  0.49655747  1
  O  O156  1  0.76807770  0.83457537  -0.06735695  1
  O  O157  1  0.90868594  0.77587942  0.51131035  1
  O  O158  1  0.13597651  0.25455929  0.48509810  1
  O  O159  1  0.03106406  0.32468536  0.97437221  1
  O  O160  1  0.16011518  0.72114587  0.52412185  1
  O  O161  1  0.08650414  0.75395724  0.97354926  1
  O  O162  1  0.64279450  0.25632735  0.57227489  1
  O  O163  1  0.59011742  0.27196846  0.93555082  1
  O  O164  1  0.63677560  0.71856325  0.46847210  1
  O  O165  1  0.59405436  0.80543169  0.94791564  1
  O  O166  1  0.49982907  0.24598188  0.23022368  1
  O  O167  1  0.47262665  0.28117292  0.58041721  1
  O  O168  1  0.47140695  0.76785549  0.06063597  1
  O  O169  1  0.52938692  0.75773487  0.60540997  1
  O  O170  1  0.96872037  0.21706311  0.11631562  1
  O  O171  1  0.99823212  0.29938557  0.62944388  1
  O  O172  1  1.05202804  0.68358900  0.10561386  1
  O  O173  1  1.00625073  0.74191847  0.61336769  1
  O  O174  1  0.01522434  0.26312600  0.38738551  1
  O  O175  1  -0.00064614  0.29021439  0.91557809  1
  O  O176  1  0.02952681  0.72261922  0.38692962  1
  O  O177  1  0.02430816  0.74251305  0.82391581  1
  O  O178  1  0.55145736  0.28242583  0.39365764  1
  O  O179  1  0.59631314  0.31980697  0.88806905  1
  O  O180  1  0.52000139  0.65505845  0.36131974  1
  O  O181  1  0.34206151  0.63581753  0.76323521  1
  O  O182  1  0.23040439  0.14578713  0.49344293  1
  O  O183  1  0.28710924  0.14213121  1.03314267  1
  O  O184  1  0.25487369  0.61343620  0.51744224  1
  O  O185  1  0.25779468  0.51397666  1.10251289  1
  O  O186  1  0.76071665  0.10649040  0.58354347  1
  O  O187  1  0.73808058  0.13389758  0.93424523  1
  O  O188  1  0.76460881  0.61133123  0.49705669  1
  O  O189  1  0.71422857  0.70793290  0.96843806  1
  O  O190  1  0.30716038  0.31864074  0.12229998  1
  O  O191  1  0.24920407  0.35611577  0.51257577  1
  O  O192  1  0.27508246  0.90144441  -0.08887259  1
  O  O193  1  0.30256087  0.83211819  0.51116536  1
  O  O194  1  0.71827282  0.30859379  0.02198195  1
  O  O195  1  0.77094539  0.38410401  0.50471279  1
  O  O196  1  0.68487706  0.91833520  0.00582924  1
  O  O197  1  0.77798111  0.87763429  0.48116313  1
  O  O198  1  0.13180732  0.51127509  0.26059070  1
  O  O199  1  0.08717851  0.44020087  0.75380661  1
  O  O200  1  0.11342590  0.99432223  0.22461225  1
  O  O201  1  0.12785797  1.06892008  0.73591093  1
  O  O202  1  0.69255191  0.51457224  0.23253385  1
  O  O203  1  0.52896934  0.48340790  0.76624839  1
  O  O204  1  0.55557952  0.95484721  0.32411578  1
  O  O205  1  0.58193235  0.95954676  0.70815018  1
  O  O206  1  0.26529575  -0.10340564  0.25363699  1
  O  O207  1  0.28663954  0.11719768  0.75692541  1
  O  O208  1  0.29933141  0.41877419  0.24916041  1
  O  O209  1  0.32627294  0.46938204  0.88917792  1
  O  O210  1  0.86418458  0.00747987  0.28274092  1
  O  O211  1  0.93168542  0.03092095  0.74134748  1
  O  O212  1  0.90678171  0.50170572  0.29138508  1
  O  O213  1  0.66134844  0.49563878  0.68384396  1
  O  O214  1  0.13789944  0.35865330  0.36813264  1
  O  O215  1  0.17985788  0.40014863  0.87318174  1
  O  O216  1  0.16010980  0.80068141  0.37090520  1
  O  O217  1  0.12125963  0.89369633  0.88353306  1
  O  O218  1  0.66334698  0.41430792  0.36217077  1
  O  O219  1  0.50190145  0.42232395  0.79321289  1
  O  O220  1  0.58536790  0.80142927  0.35731379  1
  O  O221  1  0.63615646  0.91059533  0.84440741  1
  O  O222  1  0.42481458  0.02105966  0.12095086  1
  O  O223  1  0.39271145  0.13565806  0.56972217  1
  O  O224  1  0.38841010  0.65963156  0.07718749  1
  O  O225  1  0.41791391  0.63795535  0.60985896  1
  O  O226  1  0.87801344  0.09936642  0.17051335  1
  O  O227  1  0.93660315  0.17573004  0.68940098  1
  O  O228  1  0.78700304  0.64740089  0.11069361  1
  O  O229  1  0.83305216  0.60236425  0.66337427  1
  O  O230  1  0.37165010  0.31599825  0.15081245  1
  O  O231  1  0.27339445  0.22493569  0.61041997  1
  O  O232  1  0.27052637  0.74800443  0.10287139  1
  O  O233  1  0.28882089  0.72709678  0.61587715  1
  O  O234  1  0.65036403  0.21430344  0.12830207  1
  O  O235  1  0.81356268  0.25431730  0.65128315  1
  O  O236  1  0.66468011  0.79719194  0.08943988  1
  O  O237  1  0.80920050  0.76682555  0.63152374  1
  O  O238  1  0.23859299  0.25398172  0.38415111  1
  O  O239  1  0.23617167  0.22616182  0.91475530  1
  O  O240  1  0.22017256  0.75100477  0.37889890  1
  O  O241  1  0.18828308  0.74615772  0.84979490  1
  O  O242  1  0.71049912  0.18944683  0.41380108  1
  O  O243  1  0.76915273  0.23424584  0.83955070  1
  O  O244  1  0.78147949  0.72198470  0.38137995  1
  O  O245  1  0.80357083  0.77931091  0.88842269  1
  O  O246  1  -0.01005519  0.07940496  0.01727708  1
  O  O247  1  0.00998970  0.16593942  0.50124778  1
  O  O248  1  0.04973551  0.61489708  0.09448022  1
  O  O249  1  0.03209360  0.60743400  0.51901705  1
  O  O250  1  0.47792545  0.14801430  0.05610303  1
  O  O251  1  0.50623790  0.05577328  0.45901875  1
  O  O252  1  0.48253990  0.69140137  -0.11055303  1
  O  O253  1  0.54660327  0.61486471  0.53092250  1
  O  O254  1  0.53661403  0.39828057  0.47592020  1
  O  O255  1  0.44736942  0.37350603  0.92963406  1
  O  O256  1  0.47607639  0.76766437  0.46167500  1
  O  O257  1  0.43781262  0.87860307  0.91247889  1
  O  O258  1  1.03514134  0.39673200  0.50529299  1
  O  O259  1  1.01492560  0.32418417  0.84632115  1
  O  O260  1  1.05821314  0.88352871  0.50889073  1
  O  O261  1  0.98619205  0.91711773  0.97591618  1
  O  O262  1  0.53837613  0.49687120  0.37761967  1
  O  O263  1  0.37724919  0.50244586  0.85529662  1
  O  O264  1  0.39088933  1.01204375  0.28548382  1
  O  O265  1  0.52206084  1.21136966  0.86456878  1
  O  O266  1  1.00614590  0.50859897  0.40643325  1
  O  O267  1  1.01303966  0.47235180  0.88969371  1
  O  O268  1  1.03808683  0.98930878  0.39606586  1
  O  O269  1  1.03815081  1.02115667  0.86194246  1
  O  O270  1  -0.04892209  -0.03660394  0.11964496  1
  O  O271  1  -0.00202092  0.02214755  0.58125966  1
  O  O272  1  -0.12437534  0.48872589  0.01415230  1
  O  O273  1  0.01319046  0.49349263  0.61976885  1
  O  O274  1  0.55496826  -0.05559588  0.08861977  1
  O  O275  1  0.48023231  -0.03029963  0.58737966  1
  O  O276  1  0.56053322  0.47336359  0.13979659  1
  O  O277  1  0.50636873  0.47428363  0.59517971  1
  O  O278  1  0.12660873  0.43881328  0.23388134  1
  O  O279  1  0.25257037  0.41245464  0.72795841  1
  O  O280  1  0.23365558  0.83339747  0.24776460  1
  O  O281  1  0.26086472  0.89133819  0.73617253  1
  O  O282  1  0.78767825  0.40441532  0.27546883  1
  O  O283  1  0.71515219  0.38668561  0.80771033  1
  O  O284  1  0.70008942  0.88243418  0.32726104  1
  O  O285  1  0.69427261  0.89748840  0.80543963  1
  O  O286  1  0.31402210  0.16466248  0.23731083  1
  O  O287  1  0.12143983  0.12888002  0.77160621  1
  O  O288  1  0.28978817  0.63719099  0.26261382  1
  O  O289  1  0.29550609  0.63236005  0.90818335  1
  O  O290  1  0.73496624  0.11336435  0.27281213  1
  O  O291  1  0.68448870  0.15457370  0.73902622  1
  O  O292  1  0.80333812  0.61215225  0.27802595  1
  O  O293  1  0.71768223  0.65101343  0.77530374  1
  O  O294  1  0.34041137  0.01043769  0.33337735  1
  O  O295  1  0.37563937  0.15122964  0.88067188  1
  O  O296  1  0.38684417  0.54543208  0.19432352  1
  O  O297  1  0.26388102  0.59805137  0.95964889  1
  O  O298  1  0.85447557  0.12938422  0.37703643  1
  O  O299  1  0.80143126  0.10295086  0.79754955  1
  O  O300  1  0.88984584  0.61271113  0.41606445  1
  O  O301  1  0.85725726  0.67047086  0.83046027  1
  O  O302  1  0.02936268  0.46012322  0.08363217  1
  O  O303  1  0.16162911  0.36260088  0.62586293  1
  O  O304  1  0.06033411  0.83253562  0.18386324  1
  O  O305  1  0.17135877  0.87461681  0.60881378  1
  O  O306  1  0.69331223  0.35754958  0.16600207  1
  O  O307  1  0.61514205  0.34318216  0.73683269  1
  O  O308  1  0.65164297  0.93001887  0.19881156  1
  O  O309  1  0.60163078  0.89412032  0.69365837  1
  O  O310  1  0.11986403  0.23781755  0.27063385  1
  O  O311  1  0.15572507  0.28763354  0.75696387  1
  O  O312  1  0.12336789  0.67499745  0.26280156  1
  O  O313  1  0.11798220  0.73605936  0.70807042  1
  O  O314  1  0.70310919  0.27330352  0.29072282  1
  O  O315  1  0.68595107  0.34252085  0.74828508  1
  O  O316  1  0.63885708  0.69326417  0.26749264  1
  O  O317  1  0.47073826  0.82198887  0.75009787  1
  O  O318  1  0.43839077  0.17207421  0.36312167  1
  O  O319  1  0.40297284  0.21870139  0.70235019  1
  O  O320  1  0.37680691  0.74588279  0.19179067  1
  O  O321  1  0.35033896  0.70461668  0.76972563  1
  O  O322  1  0.87541764  0.21309146  0.25066074  1
  O  O323  1  0.89803680  0.33705881  0.75647872  1
  O  O324  1  0.77447276  0.76187069  0.21597432  1
  O  O325  1  0.92726922  0.75880613  0.72106139  1
  O  O326  1  0.43360036  0.53934204  0.47992499  1
  O  O327  1  0.40075684  0.51955861  1.02538358  1
  O  O328  1  0.42569936  0.90956738  0.45491025  1
  O  O329  1  0.36739443  1.00972976  0.98108248  1
  O  O330  1  0.90671234  0.49375346  0.51169351  1
  O  O331  1  0.92108081  0.54214193  1.01069558  1
  O  O332  1  0.92137107  0.94214125  0.47839006  1
  O  O333  1  0.84939208  1.01118789  1.00292757  1
  O  O334  1  0.13820437  -0.05356631  0.04758513  1
  O  O335  1  0.11545434  0.04207378  0.50278869  1
  O  O336  1  0.09754718  0.44727309  0.05210290  1
  O  O337  1  0.13115213  0.50360585  0.50774444  1
  O  O338  1  0.54768140  0.03642741  -0.01363216  1
  O  O339  1  0.59229490  -0.09008633  0.49081793  1
  O  O340  1  0.69767828  0.50728797  0.06279045  1
  O  O341  1  0.63706413  0.51948845  0.50106426  1
  O  O342  1  0.42074954  0.37965904  0.13091996  1
  O  O343  1  0.35081887  0.34857709  0.62702046  1
  O  O344  1  0.38989374  0.85508012  0.12075107  1
  O  O345  1  0.32785100  0.87246917  0.57662606  1
  O  O346  1  0.83614535  0.30602325  0.13555806  1
  O  O347  1  0.87923798  0.38630532  0.60987353  1
  O  O348  1  0.78495711  0.91278938  0.12991153  1
  O  O349  1  0.90962741  0.88378832  0.63289899  1
  O  O350  1  0.11811923  0.14015328  0.38749749  1
  O  O351  1  0.11112866  0.16350204  0.97981226  1
  O  O352  1  0.14658594  0.62077358  0.40930694  1
  O  O353  1  0.10498965  0.61544086  0.87806888  1
  O  O354  1  0.69263605  0.03704724  0.40955000  1
  O  O355  1  0.63923552  0.20741084  0.85628822  1
  O  O356  1  0.67447799  0.61428810  0.38611670  1
  O  O357  1  0.66561175  0.69423209  0.82468006  1
