# generated using pymatgen
data_V51Zn51O256
_symmetry_space_group_name_H-M   'P 1'
_cell_length_a   17.54672912
_cell_length_b   17.43132936
_cell_length_c   17.92411412
_cell_angle_alpha   89.74683819
_cell_angle_beta   88.69249880
_cell_angle_gamma   90.09648837
_symmetry_Int_Tables_number   1
_chemical_formula_structural   V51Zn51O256
_chemical_formula_sum   'V51 Zn51 O256'
_cell_volume   5480.83032643
_cell_formula_units_Z   1
loop_
 _symmetry_equiv_pos_site_id
 _symmetry_equiv_pos_as_xyz
  1  'x, y, z'
loop_
 _atom_site_type_symbol
 _atom_site_label
 _atom_site_symmetry_multiplicity
 _atom_site_fract_x
 _atom_site_fract_y
 _atom_site_fract_z
 _atom_site_occupancy
  V  V0  1  0.31426816  0.49783428  0.42029777  1
  V  V1  1  0.32769641  0.73557521  0.15280739  1
  V  V2  1  0.48766857  0.49664473  -0.02084185  1
  V  V3  1  0.83096865  0.85622773  0.48325969  1
  V  V4  1  0.04231454  0.13999048  0.09929474  1
  V  V5  1  0.22703855  0.29826535  -0.02812065  1
  V  V6  1  0.10513382  0.39656927  0.25390484  1
  V  V7  1  0.09300165  0.53061061  0.66511663  1
  V  V8  1  0.60669698  0.63612532  0.49907767  1
  V  V9  1  0.68951220  0.84655446  0.61298769  1
  V  V10  1  0.39758127  0.00905822  0.31609889  1
  V  V11  1  -0.00364719  0.22341719  0.74972345  1
  V  V12  1  0.89096963  0.36513623  0.00563608  1
  V  V13  1  0.46668226  0.72708829  0.25455472  1
  V  V14  1  0.09384416  0.25598558  0.37621409  1
  V  V15  1  0.44563591  0.88197257  0.99502134  1
  V  V16  1  0.00288265  0.68438200  0.14096455  1
  V  V17  1  0.74416080  0.54292422  0.72532980  1
  V  V18  1  0.23611324  0.76649270  0.00305989  1
  V  V19  1  0.63703227  0.83610452  0.26298471  1
  V  V20  1  0.59548862  0.51024574  0.64079565  1
  V  V21  1  0.56913997  0.76162283  0.93657373  1
  V  V22  1  0.75627659  0.35676578  0.12473750  1
  V  V23  1  0.49806496  0.60778349  0.12758012  1
  V  V24  1  0.91724645  0.01650724  0.86103496  1
  V  V25  1  0.57749638  0.82189837  0.76213177  1
  V  V26  1  0.68875278  0.01691197  0.73267697  1
  V  V27  1  0.48506974  0.34134130  0.85783671  1
  V  V28  1  0.23299318  0.27539185  0.47528992  1
  V  V29  1  0.39911680  0.80930698  0.50286024  1
  V  V30  1  -0.02350728  0.38723946  0.83048277  1
  V  V31  1  0.74369771  0.20811144  0.52825576  1
  V  V32  1  0.48224256  0.01344310  0.48284654  1
  V  V33  1  0.18545874  0.62249366  0.41257287  1
  V  V34  1  0.23359329  0.39717202  0.14556176  1
  V  V35  1  0.49076124  0.19196885  0.10396340  1
  V  V36  1  0.67625467  0.36869898  0.77914200  1
  V  V37  1  0.15895445  0.00161799  0.60792186  1
  V  V38  1  0.15127384  0.11830385  -0.04590319  1
  V  V39  1  0.87119931  0.77220772  0.62337495  1
  V  V40  1  0.15301260  0.58834943  0.00205253  1
  V  V41  1  -0.01294738  0.52156812  0.04973434  1
  V  V42  1  0.36360932  0.24720150  0.18320959  1
  V  V43  1  0.12899996  0.36496550  0.73086341  1
  V  V44  1  0.26917121  0.58373739  0.86765847  1
  V  V45  1  0.67595700  -0.01088946  0.04993715  1
  V  V46  1  -0.01158701  0.41390571  0.38313449  1
  V  V47  1  0.74382383  0.48822686  0.27374454  1
  V  V48  1  0.65524857  0.50986118  0.08917900  1
  V  V49  1  0.91752763  0.23654399  0.60214523  1
  V  V50  1  0.22130297  0.90157462  0.15258425  1
  Zn  Zn51  1  0.13851816  0.43612832  0.46156294  1
  Zn  Zn52  1  0.00152744  0.40704065  0.58519718  1
  Zn  Zn53  1  0.57901523  -0.00150928  0.88878293  1
  Zn  Zn54  1  0.42242111  0.64857629  0.42297429  1
  Zn  Zn55  1  0.37577406  0.36021768  0.04668331  1
  Zn  Zn56  1  0.75630283  0.93242553  0.89645618  1
  Zn  Zn57  1  0.83404351  0.06316260  0.00562461  1
  Zn  Zn58  1  0.25839097  0.95794597  1.00646672  1
  Zn  Zn59  1  0.08565290  0.04996543  0.79764624  1
  Zn  Zn60  1  0.58983141  -0.01455087  0.34270865  1
  Zn  Zn61  1  0.23096329  0.09448701  0.14801226  1
  Zn  Zn62  1  0.90865070  0.23036356  0.42549725  1
  Zn  Zn63  1  0.65272716  0.72123645  0.10427548  1
  Zn  Zn64  1  0.32756674  0.09059578  0.56686951  1
  Zn  Zn65  1  0.29237955  0.95901645  0.45465382  1
  Zn  Zn66  1  0.49472724  0.89510864  0.62254588  1
  Zn  Zn67  1  0.91628156  0.56579489  0.79797881  1
  Zn  Zn68  1  0.27989616  0.58712730  0.56066395  1
  Zn  Zn69  1  0.01332062  0.54940779  0.25206606  1
  Zn  Zn70  1  0.14260675  0.65870324  0.78589306  1
  Zn  Zn71  1  0.73503854  0.46160893  0.93527682  1
  Zn  Zn72  1  0.58563899  0.84547591  0.45932086  1
  Zn  Zn73  1  0.09998018  0.20041165  0.57301682  1
  Zn  Zn74  1  0.71256818  0.50272756  0.47411444  1
  Zn  Zn75  1  0.78430059  0.20278766  0.72037747  1
  Zn  Zn76  1  0.69373525  0.16064979  0.11831973  1
  Zn  Zn77  1  0.75998589  0.65464522  0.84966571  1
  Zn  Zn78  1  0.91386118  0.42698846  0.19719833  1
  Zn  Zn79  1  0.97551747  0.20852206  0.93646756  1
  Zn  Zn80  1  0.83457390  0.91078807  0.73098935  1
  Zn  Zn81  1  0.39965704  0.19653396  0.95358334  1
  Zn  Zn82  1  0.40283901  0.67702688  0.97725327  1
  Zn  Zn83  1  0.38018924  0.20120485  0.37246053  1
  Zn  Zn84  1  0.28107024  0.33871459  0.32257797  1
  Zn  Zn85  1  0.16738068  0.60491279  0.20026700  1
  Zn  Zn86  1  0.30822106  0.83788116  0.31020021  1
  Zn  Zn87  1  0.09263904  0.49784663  0.86362728  1
  Zn  Zn88  1  0.82341765  0.85917246  0.28301383  1
  Zn  Zn89  1  0.99262014  0.88787498  0.56489975  1
  Zn  Zn90  1  0.63831638  0.63573476  0.24901946  1
  Zn  Zn91  1  0.64730373  0.01855470  0.53811280  1
  Zn  Zn92  1  0.51543973  0.38118612  0.69693764  1
  Zn  Zn93  1  0.68564236  0.37880599  0.58161369  1
  Zn  Zn94  1  0.51565128  0.95089647  0.16634461  1
  Zn  Zn95  1  0.60676846  0.56407888  0.84816597  1
  Zn  Zn96  1  0.06267439  0.33398028  0.07177188  1
  Zn  Zn97  1  0.79112715  0.36387158  0.42435234  1
  Zn  Zn98  1  0.08155046  0.15933641  0.25754919  1
  Zn  Zn99  1  0.64562147  0.67575004  0.67833742  1
  Zn  Zn100  1  1.03387845  0.87858433  0.13874611  1
  Zn  Zn101  1  0.29946336  0.38877045  0.80822408  1
  O  O102  1  0.14094296  0.13082268  0.09773272  1
  O  O103  1  0.12193058  0.08921717  0.58253712  1
  O  O104  1  0.15336524  0.57714600  0.09543479  1
  O  O105  1  0.08324677  0.62036210  0.70228942  1
  O  O106  1  0.58763381  0.18608512  0.10795713  1
  O  O107  1  0.51693953  0.20634363  0.56467724  1
  O  O108  1  0.60157159  0.61634935  0.10381989  1
  O  O109  1  0.59086919  0.61447464  0.60233757  1
  O  O110  1  0.33855045  0.41397275  0.37626040  1
  O  O111  1  0.40863716  0.37251796  0.80534418  1
  O  O112  1  0.32315360  0.79723763  0.41628209  1
  O  O113  1  0.35273900  0.90846813  0.98530234  1
  O  O114  1  0.89427613  0.38880200  0.39060314  1
  O  O115  1  0.90739840  0.38637448  0.90766466  1
  O  O116  1  0.82916713  0.85137131  0.38833936  1
  O  O117  1  0.99915455  0.77229092  0.94500017  1
  O  O118  1  0.32297774  -0.05508987  0.34976969  1
  O  O119  1  0.29973234  0.04248799  0.89586933  1
  O  O120  1  0.20991265  0.51507977  0.41478375  1
  O  O121  1  0.28977062  0.49653662  0.83206205  1
  O  O122  1  0.76573802  0.06292004  0.36656727  1
  O  O123  1  0.74891370  -0.04405981  0.78833430  1
  O  O124  1  0.73204713  0.44164574  0.36106985  1
  O  O125  1  0.71740857  0.55192001  0.86781978  1
  O  O126  1  0.25525710  0.48768308  0.15115131  1
  O  O127  1  0.19369659  0.52371312  0.61277933  1
  O  O128  1  0.26491519  0.98937485  0.12650247  1
  O  O129  1  0.25031932  1.03988378  0.63377100  1
  O  O130  1  0.68030089  0.51709073  0.18408644  1
  O  O131  1  0.72509604  0.53529295  0.63417535  1
  O  O132  1  0.73812009  1.07669049  0.05807758  1
  O  O133  1  0.68232449  0.98434583  0.63854476  1
  O  O134  1  0.00032863  0.38864072  0.25905671  1
  O  O135  1  -0.04984811  0.37000767  0.74450599  1
  O  O136  1  0.03189378  0.86039376  0.34811534  1
  O  O137  1  -0.13994391  0.78243730  0.80479159  1
  O  O138  1  0.58450875  0.27709876  0.27737896  1
  O  O139  1  0.56306821  0.34731565  0.78977584  1
  O  O140  1  0.51926592  0.80462184  0.23161980  1
  O  O141  1  0.50366519  0.87426178  0.72838847  1
  O  O142  1  0.61518223  0.10115067  0.32778696  1
  O  O143  1  0.45891353  0.13714025  0.73263009  1
  O  O144  1  0.52907103  0.64440800  0.22921454  1
  O  O145  1  0.42036122  0.63134848  0.72326317  1
  O  O146  1  1.01995835  0.10787364  0.18956362  1
  O  O147  1  1.01496636  0.13107389  0.76433808  1
  O  O148  1  1.05920456  0.64501894  0.21645828  1
  O  O149  1  1.12462663  0.81041637  0.83362474  1
  O  O150  1  0.33369053  0.27664118  -0.01177222  1
  O  O151  1  0.32891498  0.25725762  0.45149705  1
  O  O152  1  0.32084943  0.72197034  0.04240193  1
  O  O153  1  0.41611144  0.71201185  0.50924333  1
  O  O154  1  0.90549851  0.26916211  0.00254457  1
  O  O155  1  0.93010128  0.18249785  0.52246251  1
  O  O156  1  0.86296965  0.72010591  0.00765544  1
  O  O157  1  0.85347002  0.76502055  0.52140071  1
  O  O158  1  0.12152067  0.25152641  0.48083486  1
  O  O159  1  0.12968904  0.30524231  0.98975117  1
  O  O160  1  0.13197575  0.80562314  0.48823590  1
  O  O161  1  0.16294537  0.69549280  0.99742766  1
  O  O162  1  0.67298958  0.26973962  0.55198688  1
  O  O163  1  0.63221163  0.15819077  0.92263340  1
  O  O164  1  0.59780393  0.73024692  0.48530180  1
  O  O165  1  0.61531088  0.77568746  1.01807674  1
  O  O166  1  0.44648310  0.28468954  0.10498150  1
  O  O167  1  0.52592358  0.25174435  0.61765666  1
  O  O168  1  0.42438114  0.68654071  0.15082641  1
  O  O169  1  0.37146045  0.78866237  0.77214401  1
  O  O170  1  1.02105479  0.23535322  0.10548250  1
  O  O171  1  1.01428805  0.22163126  0.63694418  1
  O  O172  1  1.03546896  0.77517753  0.11621502  1
  O  O173  1  0.96086554  0.81008043  0.63449243  1
  O  O174  1  -0.00134641  0.29154499  0.39679218  1
  O  O175  1  -0.02372248  0.26340924  0.84186877  1
  O  O176  1  0.06117955  0.80825544  0.49236534  1
  O  O177  1  0.09306619  0.87542134  0.83920723  1
  O  O178  1  0.49097914  0.23125149  0.38511016  1
  O  O179  1  0.47065813  0.24868258  0.88428989  1
  O  O180  1  0.47090344  0.71588368  0.34841994  1
  O  O181  1  0.46675604  0.77676897  0.96197145  1
  O  O182  1  0.24720929  0.16531467  0.52712432  1
  O  O183  1  0.22164854  0.18958812  0.96444385  1
  O  O184  1  0.23382494  0.65600562  0.48944215  1
  O  O185  1  0.24051495  0.55521375  0.97494989  1
  O  O186  1  0.70490502  0.11793187  0.51974156  1
  O  O187  1  0.89428259  0.12224844  0.92019986  1
  O  O188  1  0.69983556  0.61078446  0.47868234  1
  O  O189  1  0.80382543  0.69045973  1.03752944  1
  O  O190  1  0.24298987  0.37303562  0.04701179  1
  O  O191  1  0.22274520  0.37017097  0.49794147  1
  O  O192  1  0.20627635  0.85400501  0.04878567  1
  O  O193  1  0.29723122  0.84391021  0.47829504  1
  O  O194  1  0.79208426  0.38850379  0.00220780  1
  O  O195  1  0.76224838  0.41629811  0.51365004  1
  O  O196  1  0.77967135  0.81091591  -0.08421839  1
  O  O197  1  0.74182311  0.88418037  0.52535401  1
  O  O198  1  0.11773336  0.49564000  0.24933850  1
  O  O199  1  0.12478223  0.47707631  0.74452884  1
  O  O200  1  0.18379159  1.03402463  0.30489292  1
  O  O201  1  0.12806196  1.01344812  0.70325367  1
  O  O202  1  0.63144684  0.28867700  0.32557349  1
  O  O203  1  0.62084434  0.54006629  0.73781815  1
  O  O204  1  0.58933438  0.92913971  0.24954685  1
  O  O205  1  0.60422622  1.01628263  0.78362609  1
  O  O206  1  0.42823401  -0.00975022  0.22733852  1
  O  O207  1  0.42716595  0.10622193  0.67844361  1
  O  O208  1  0.48887984  0.39995902  0.29018809  1
  O  O209  1  0.36901281  0.59952056  0.68705614  1
  O  O210  1  0.88275748  0.00614073  0.27850605  1
  O  O211  1  0.90830285  -0.03209636  0.77856591  1
  O  O212  1  0.83845144  0.49423620  0.25404278  1
  O  O213  1  0.84178230  0.54613371  0.72972036  1
  O  O214  1  0.10156583  0.38785962  0.35963387  1
  O  O215  1  0.07921438  0.38233278  0.83523136  1
  O  O216  1  0.12384793  0.99491345  0.30502272  1
  O  O217  1  0.24862572  0.90779171  0.79561937  1
  O  O218  1  0.55554753  0.32391382  0.44237117  1
  O  O219  1  0.67661367  0.38715036  0.87400465  1
  O  O220  1  0.62782131  0.82048718  0.35593782  1
  O  O221  1  0.59009842  0.83113530  0.86279565  1
  O  O222  1  0.44177301  0.17173169  0.18997394  1
  O  O223  1  0.38371110  0.15649806  0.63315091  1
  O  O224  1  0.47836049  0.52270986  0.15828722  1
  O  O225  1  0.33024787  0.64794260  0.63800590  1
  O  O226  1  0.92778273  0.08530743  0.07167347  1
  O  O227  1  1.02101246  0.04467731  0.45761314  1
  O  O228  1  0.91438202  0.68668043  0.17194383  1
  O  O229  1  0.86770721  0.68973413  0.66568273  1
  O  O230  1  0.29366687  0.18839555  0.15427212  1
  O  O231  1  0.22247233  0.22191471  0.57655414  1
  O  O232  1  0.24666627  0.68800496  0.17228113  1
  O  O233  1  0.18698954  0.85065480  0.69280685  1
  O  O234  1  0.74175142  0.26026902  0.12033771  1
  O  O235  1  0.80586737  0.21228446  0.60685325  1
  O  O236  1  0.76816263  0.73232976  0.09202749  1
  O  O237  1  0.69906694  0.75114660  0.60752120  1
  O  O238  1  0.20677055  0.27043910  0.37675297  1
  O  O239  1  0.23841494  0.33915904  0.88705934  1
  O  O240  1  0.20504186  0.69999549  0.33771821  1
  O  O241  1  0.25985141  0.79053636  0.91794637  1
  O  O242  1  0.79575115  0.24893165  0.44746270  1
  O  O243  1  0.69302609  0.13003069  0.89310602  1
  O  O244  1  0.91823324  0.65794767  0.38770191  1
  O  O245  1  0.73113330  0.75608001  0.90374135  1
  O  O246  1  0.05445456  0.14664195  -0.01899060  1
  O  O247  1  0.04946693  -0.01419917  0.43191194  1
  O  O248  1  0.00882550  0.62638137  0.05755298  1
  O  O249  1  -0.01677871  0.64647221  0.54247989  1
  O  O250  1  0.45046359  0.14143870  0.03328840  1
  O  O251  1  0.50445661  0.10325821  0.47318032  1
  O  O252  1  0.46670479  0.60228352  0.02928307  1
  O  O253  1  0.51434063  0.58434993  0.46421197  1
  O  O254  1  0.49058632  0.29732232  0.42747247  1
  O  O255  1  0.50297727  0.39298824  0.93744040  1
  O  O256  1  0.47232370  0.85999067  0.45984162  1
  O  O257  1  0.47119671  0.88897908  1.08498941  1
  O  O258  1  1.02531823  0.42992466  0.47704034  1
  O  O259  1  0.98307742  0.40576950  1.03930304  1
  O  O260  1  0.90455896  0.91488370  0.50897709  1
  O  O261  1  0.96189619  0.83174109  0.94615077  1
  O  O262  1  0.52633702  0.44083823  0.33099920  1
  O  O263  1  0.50806815  0.53582017  0.89257972  1
  O  O264  1  0.47691395  0.99150314  0.37260976  1
  O  O265  1  0.49863584  0.94200840  0.93913483  1
  O  O266  1  0.98570334  0.50672726  0.34874534  1
  O  O267  1  0.98365964  0.49465975  0.83378896  1
  O  O268  1  0.93473317  0.99952914  0.32303693  1
  O  O269  1  1.01261040  1.01187273  0.87443862  1
  O  O270  1  -0.01105655  0.03809231  0.06584768  1
  O  O271  1  0.07795712  -0.05315142  0.58723544  1
  O  O272  1  -0.02524490  0.51130901  0.15005074  1
  O  O273  1  0.00224172  0.50214722  0.64308897  1
  O  O274  1  0.59181124  0.00057276  0.09839744  1
  O  O275  1  0.51246971  -0.00630708  0.57399165  1
  O  O276  1  0.56810676  0.48823675  0.03495600  1
  O  O277  1  0.50257038  0.48511271  0.65579106  1
  O  O278  1  0.21334150  0.37465510  0.24827124  1
  O  O279  1  0.22513361  0.35669049  0.73115131  1
  O  O280  1  0.22816566  0.87910124  0.24563580  1
  O  O281  1  0.30438362  0.93303609  0.76117238  1
  O  O282  1  0.73937543  0.38553955  0.21577277  1
  O  O283  1  0.74361608  0.43853815  0.75488454  1
  O  O284  1  0.72738529  0.87508620  0.24947165  1
  O  O285  1  0.66106259  0.85197194  0.71507383  1
  O  O286  1  0.18495747  0.10135615  0.25444315  1
  O  O287  1  0.28599569  0.13767811  0.77096833  1
  O  O288  1  0.21462622  0.62678911  0.30619009  1
  O  O289  1  0.25046681  0.64188248  0.78930250  1
  O  O290  1  0.85166010  0.14784753  0.22445746  1
  O  O291  1  0.72997451  0.10564425  0.73053849  1
  O  O292  1  0.71152169  0.57969592  0.30237870  1
  O  O293  1  0.72569117  0.64696909  0.74609092  1
  O  O294  1  0.36755565  0.10051652  0.33345580  1
  O  O295  1  0.40984868  0.10379640  0.87317288  1
  O  O296  1  0.35937995  0.57430740  0.37650918  1
  O  O297  1  0.34952940  0.62978756  0.89870762  1
  O  O298  1  0.90771832  0.16167150  0.33484104  1
  O  O299  1  0.87134614  0.11055692  0.84328605  1
  O  O300  1  0.96102976  0.71329548  0.38132967  1
  O  O301  1  0.87619018  0.65747761  0.85125175  1
  O  O302  1  0.12444263  0.38180033  0.14853084  1
  O  O303  1  0.09901591  0.37591498  0.63999418  1
  O  O304  1  0.12575311  0.92702022  0.15272568  1
  O  O305  1  0.20286662  0.90096353  0.64226421  1
  O  O306  1  0.67483983  0.40761203  0.08727525  1
  O  O307  1  0.63128212  0.40003608  0.67494660  1
  O  O308  1  0.72460931  0.91622134  0.08093447  1
  O  O309  1  0.59910110  0.85951547  0.57658629  1
  O  O310  1  0.09969028  0.27067515  0.27442249  1
  O  O311  1  0.09237647  0.26749736  0.74458316  1
  O  O312  1  0.09211881  0.82661016  0.33579676  1
  O  O313  1  0.09630752  0.76348411  0.77885996  1
  O  O314  1  0.65854221  0.13695112  0.27685044  1
  O  O315  1  0.71953337  0.28322399  0.75999994  1
  O  O316  1  0.65480421  0.74454059  0.21171974  1
  O  O317  1  0.56625227  0.72888724  0.73855048  1
  O  O318  1  0.35444273  0.26253532  0.27985022  1
  O  O319  1  0.24916137  0.18601037  0.73805187  1
  O  O320  1  0.36207732  0.75779207  0.25301757  1
  O  O321  1  0.31280457  0.76397282  0.74623845  1
  O  O322  1  0.85402287  0.18652331  0.28376628  1
  O  O323  1  0.89701287  0.21965845  0.70983363  1
  O  O324  1  0.92192304  0.85106482  0.23384323  1
  O  O325  1  0.90963040  0.73261672  0.81930178  1
  O  O326  1  0.33669181  0.50311996  0.51288823  1
  O  O327  1  0.40089208  0.46216661  1.01265940  1
  O  O328  1  0.37551987  1.01868591  0.49868902  1
  O  O329  1  0.36472661  1.04435465  0.86103371  1
  O  O330  1  0.93719394  0.60217832  0.51639568  1
  O  O331  1  0.90563125  0.52711847  1.00751311  1
  O  O332  1  0.80638115  1.04311751  0.41837216  1
  O  O333  1  0.85477196  0.97416115  0.93312668  1
  O  O334  1  0.18087828  0.02939978  -0.01397746  1
  O  O335  1  0.20006018  -0.02087902  0.51767992  1
  O  O336  1  0.07488489  0.51661655  -0.01655983  1
  O  O337  1  0.13057707  0.52834604  0.56273342  1
  O  O338  1  0.66825833  -0.02959423  -0.05030077  1
  O  O339  1  0.59834168  -0.03135015  0.45157477  1
  O  O340  1  0.72371654  0.53855693  0.02892569  1
  O  O341  1  0.61773856  0.47569599  0.54942459  1
  O  O342  1  0.32822682  0.34303833  0.15648161  1
  O  O343  1  0.47145454  0.31088652  0.62421043  1
  O  O344  1  0.30946885  0.83115762  0.13939343  1
  O  O345  1  0.40002340  0.84459192  0.59276995  1
  O  O346  1  0.85954369  0.37251686  0.12042221  1
  O  O347  1  0.92035383  0.33053314  0.57733369  1
  O  O348  1  0.93470032  0.90707097  0.18257108  1
  O  O349  1  0.80354585  0.84655609  0.65594747  1
  O  O350  1  0.07817844  0.15951114  0.36959636  1
  O  O351  1  0.15005459  0.10866090  0.85978681  1
  O  O352  1  0.09346604  0.62777377  0.42697782  1
  O  O353  1  0.14941424  0.59207746  0.87837317  1
  O  O354  1  0.68979101  0.09549834  0.22185398  1
  O  O355  1  0.57154907  0.11182324  0.93174335  1
  O  O356  1  0.57460345  0.58579335  0.41069370  1
  O  O357  1  0.58551130  0.67415158  0.90274584  1
