# generated using pymatgen
data_V51Zn51O256
_symmetry_space_group_name_H-M   'P 1'
_cell_length_a   17.62259940
_cell_length_b   17.52956891
_cell_length_c   17.43379049
_cell_angle_alpha   90.53454657
_cell_angle_beta   89.36931016
_cell_angle_gamma   89.66868885
_symmetry_Int_Tables_number   1
_chemical_formula_structural   V51Zn51O256
_chemical_formula_sum   'V51 Zn51 O256'
_cell_volume   5384.93284901
_cell_formula_units_Z   1
loop_
 _symmetry_equiv_pos_site_id
 _symmetry_equiv_pos_as_xyz
  1  'x, y, z'
loop_
 _atom_site_type_symbol
 _atom_site_label
 _atom_site_symmetry_multiplicity
 _atom_site_fract_x
 _atom_site_fract_y
 _atom_site_fract_z
 _atom_site_occupancy
  V  V0  1  0.62613251  0.39145637  0.73853591  1
  V  V1  1  0.49076298  0.12305200  0.59967138  1
  V  V2  1  0.84970351  0.41531224  -0.00360072  1
  V  V3  1  0.86869172  0.12737595  0.74200656  1
  V  V4  1  0.24570256  0.26103547  0.49872812  1
  V  V5  1  0.87441386  0.32199868  0.47657632  1
  V  V6  1  0.63298196  0.25039743  0.86667910  1
  V  V7  1  0.49737793  0.37764819  0.86650557  1
  V  V8  1  0.37307468  0.32684475  0.64570922  1
  V  V9  1  0.41801534  0.65041441  0.26708631  1
  V  V10  1  0.74740930  0.00916428  0.78549446  1
  V  V11  1  0.75603662  0.14695176  0.89156549  1
  V  V12  1  0.75506447  0.78839175  0.55059558  1
  V  V13  1  0.70880060  0.41135343  0.56639776  1
  V  V14  1  0.48952912  0.58187237  0.59613050  1
  V  V15  1  0.38920437  0.88757858  0.04773101  1
  V  V16  1  0.51071606  0.75326466  0.73330425  1
  V  V17  1  -0.04568849  0.49860871  0.51685133  1
  V  V18  1  0.21859959  0.63545508  0.52267872  1
  V  V19  1  0.73441895  0.60366223  0.41274846  1
  V  V20  1  0.73911168  0.27911903  0.01005265  1
  V  V21  1  0.49881576  -0.00781735  0.47144127  1
  V  V22  1  0.62422260  0.26751867  0.36185089  1
  V  V23  1  0.34000160  0.08992180  0.71953519  1
  V  V24  1  -0.04749350  0.36725191  0.83863966  1
  V  V25  1  0.25631555  0.49029839  0.30624878  1
  V  V26  1  0.82781102  0.77635004  0.07212841  1
  V  V27  1  0.27577515  0.69657907  0.10068833  1
  V  V28  1  0.60314335  0.90668800  0.78189351  1
  V  V29  1  0.88302274  0.08631692  0.25779686  1
  V  V30  1  0.52224047  0.23733799  0.74411467  1
  V  V31  1  0.89194134  0.28425972  0.11186302  1
  V  V32  1  0.44521618  0.48289487  0.30110616  1
  V  V33  1  0.45011037  0.86899361  0.86561353  1
  V  V34  1  -0.02820924  0.12331188  0.07838591  1
  V  V35  1  0.76336906  0.50561968  0.24665545  1
  V  V36  1  0.03877892  0.73977628  0.31366728  1
  V  V37  1  0.25717647  0.37239462  0.13837869  1
  V  V38  1  0.63802807  0.00509880  0.63103014  1
  V  V39  1  0.17935710  0.68390354  0.82525803  1
  V  V40  1  -0.01759008  0.70540823  0.74994519  1
  V  V41  1  -0.03263900  0.40983364  0.35815179  1
  V  V42  1  0.70812381  0.91877904  0.08149951  1
  V  V43  1  0.74568501  0.62156276  0.88134198  1
  V  V44  1  0.35546918  0.55945363  0.92657038  1
  V  V45  1  0.01005974  0.51752448  0.01818605  1
  V  V46  1  0.76157613  0.49715343  0.74210435  1
  V  V47  1  0.70353807  0.83652594  0.36313167  1
  V  V48  1  0.42036241  0.76579699  0.58530944  1
  V  V49  1  0.61469418  0.73640032  0.86425594  1
  V  V50  1  0.72997262  0.21038252  0.47971903  1
  Zn  Zn51  1  0.54644102  0.30456216  0.03548348  1
  Zn  Zn52  1  0.92274726  0.78165577  0.61798100  1
  Zn  Zn53  1  0.60974199  0.26326067  0.58149647  1
  Zn  Zn54  1  0.24060669  0.69344168  0.28768216  1
  Zn  Zn55  1  0.67996872  0.44450781  0.91571254  1
  Zn  Zn56  1  0.44866027  0.24588418  0.44827946  1
  Zn  Zn57  1  0.44524813  0.31419680  0.18850829  1
  Zn  Zn58  1  0.01921508  0.31999252  -0.00830764  1
  Zn  Zn59  1  0.63637401  0.99385070  0.93587099  1
  Zn  Zn60  1  0.77286424  0.12751815  0.10879549  1
  Zn  Zn61  1  0.50613530  0.80905347  0.39612802  1
  Zn  Zn62  1  0.78096055  0.70022703  0.72938911  1
  Zn  Zn63  1  0.38363509  0.56111749  0.11226461  1
  Zn  Zn64  1  0.92227712  0.67537839  0.92134250  1
  Zn  Zn65  1  0.25895949  0.78859921  0.97412395  1
  Zn  Zn66  1  0.40703635  0.63481436  0.45594139  1
  Zn  Zn67  1  0.69629354  0.60834810  0.61105369  1
  Zn  Zn68  1  0.17068558  0.12970727  0.63126533  1
  Zn  Zn69  1  0.11841386  0.23115887  0.10153965  1
  Zn  Zn70  1  0.51447625  0.58768139  0.84619386  1
  Zn  Zn71  1  0.67811545  1.01714717  0.43023806  1
  Zn  Zn72  1  0.44827974  0.93371463  0.67208491  1
  Zn  Zn73  1  0.62704216  0.46074600  0.38740919  1
  Zn  Zn74  1  0.72722767  0.20633235  0.69605827  1
  Zn  Zn75  1  0.31467799  0.77185092  0.75941265  1
  Zn  Zn76  1  0.89813203  0.68371116  0.45761594  1
  Zn  Zn77  1  0.58682439  0.69357993  0.50235501  1
  Zn  Zn78  1  0.76770173  0.71562185  0.22833978  1
  Zn  Zn79  1  0.36337718  0.79364654  0.22011118  1
  Zn  Zn80  1  -0.03901792  0.17428786  0.88294056  1
  Zn  Zn81  1  0.21421425  0.53310801  1.03048053  1
  Zn  Zn82  1  0.05958572  0.08324820  0.21625566  1
  Zn  Zn83  1  0.53156612  0.12144967  0.34401645  1
  Zn  Zn84  1  0.92139003  0.46706421  0.17887372  1
  Zn  Zn85  1  0.40744989  0.48317962  0.75386933  1
  Zn  Zn86  1  0.77271778  0.59126134  0.07443584  1
  Zn  Zn87  1  0.36109186  0.25131414  0.82100651  1
  Zn  Zn88  1  0.80258358  0.31159950  0.29835057  1
  Zn  Zn89  1  0.82623994  -0.01912800  0.60667573  1
  Zn  Zn90  1  0.88920507  0.95107519  0.13948813  1
  Zn  Zn91  1  0.57704345  0.61644527  0.32255861  1
  Zn  Zn92  1  0.86539257  0.10798865  0.46045376  1
  Zn  Zn93  1  0.44277946  0.72366695  0.96674366  1
  Zn  Zn94  1  0.03880492  0.56799612  0.84491148  1
  Zn  Zn95  1  0.10156705  0.51593851  0.42894186  1
  Zn  Zn96  1  0.05830535  0.35197898  0.50032055  1
  Zn  Zn97  1  0.13250857  0.75391598  0.66014239  1
  Zn  Zn98  1  0.51027725  0.05916876  0.84483036  1
  Zn  Zn99  1  0.11184453  0.92397747  0.29485576  1
  Zn  Zn100  1  0.57112397  0.85160785  0.56860364  1
  Zn  Zn101  1  0.52036764  1.01807317  0.04231761  1
  O  O102  1  0.07203700  0.13481429  0.11478726  1
  O  O103  1  0.07528811  0.07848677  0.60668770  1
  O  O104  1  0.12580023  0.56785533  0.18025011  1
  O  O105  1  0.21211651  0.53622489  0.57471138  1
  O  O106  1  0.61432723  0.09399945  0.15883217  1
  O  O107  1  0.58858070  0.09251101  0.63481723  1
  O  O108  1  0.61705628  0.66830435  0.11155661  1
  O  O109  1  0.58732150  0.61193111  0.58412624  1
  O  O110  1  0.46145229  0.39373428  0.26722994  1
  O  O111  1  0.40472946  0.34408357  0.85510122  1
  O  O112  1  0.42702137  0.84948685  0.31581005  1
  O  O113  1  0.36225553  0.83373312  0.84283585  1
  O  O114  1  0.88570231  0.31733720  0.37622184  1
  O  O115  1  0.86996614  0.40365991  0.89533136  1
  O  O116  1  0.89414029  0.92638836  0.45733469  1
  O  O117  1  0.93773867  0.88460459  0.83309790  1
  O  O118  1  0.24854308  0.06782476  0.38435128  1
  O  O119  1  0.15718003  -0.03136906  0.79369712  1
  O  O120  1  0.34833307  0.46388093  0.34103532  1
  O  O121  1  0.26607780  0.59188288  0.94949559  1
  O  O122  1  0.89166687  -0.08015928  0.38746900  1
  O  O123  1  0.72493654  0.03782789  0.88696781  1
  O  O124  1  0.72493481  0.51243168  0.36309873  1
  O  O125  1  0.72625675  0.52221694  0.84806071  1
  O  O126  1  0.09221549  0.51970420  0.21817432  1
  O  O127  1  0.21349011  0.49437577  0.75090978  1
  O  O128  1  0.06256128  0.87920820  0.13809473  1
  O  O129  1  0.24253063  0.89129846  0.65547468  1
  O  O130  1  0.74359578  0.51880768  0.14941495  1
  O  O131  1  0.74074209  0.48277955  0.62495312  1
  O  O132  1  0.78558635  1.00068775  0.09521359  1
  O  O133  1  0.72936717  1.01285798  0.67365913  1
  O  O134  1  -0.04152208  0.40207758  0.25996782  1
  O  O135  1  -0.07198025  0.33523474  0.75613346  1
  O  O136  1  0.07032666  0.83614039  0.33690684  1
  O  O137  1  -0.00791615  0.90865618  0.79694274  1
  O  O138  1  0.51851095  0.26640631  0.12683937  1
  O  O139  1  0.52694541  0.35046085  0.74259839  1
  O  O140  1  0.43883490  0.92762980  0.28948893  1
  O  O141  1  0.49363123  0.87335962  0.76195878  1
  O  O142  1  0.44033635  0.10011631  0.27954098  1
  O  O143  1  0.50143452  0.14650141  0.77387049  1
  O  O144  1  0.50660055  0.68947681  0.27762474  1
  O  O145  1  0.51361221  0.65825140  0.75233158  1
  O  O146  1  0.96086254  0.13079442  0.20911354  1
  O  O147  1  0.95987604  0.14199169  0.77681105  1
  O  O148  1  1.02812076  0.64262256  0.33060574  1
  O  O149  1  0.99260813  0.60916601  0.75156071  1
  O  O150  1  0.34640166  0.17855237  0.02226532  1
  O  O151  1  0.34286456  0.23744021  0.47717382  1
  O  O152  1  0.34384916  0.72784580  0.03012886  1
  O  O153  1  0.47607000  0.73337457  0.48079771  1
  O  O154  1  0.84571168  0.29260157  0.01178313  1
  O  O155  1  0.83471450  0.21895261  0.48388710  1
  O  O156  1  0.87720091  0.74425022  -0.00561051  1
  O  O157  1  0.86054404  0.75777459  0.53268596  1
  O  O158  1  0.14926869  0.29209447  0.51712777  1
  O  O159  1  0.11582534  0.26196407  0.98824765  1
  O  O160  1  0.18480360  0.71391759  0.57285551  1
  O  O161  1  0.19626271  0.72541585  1.05721778  1
  O  O162  1  0.63272553  0.25661722  0.47198089  1
  O  O163  1  0.63796961  0.28105535  0.97213437  1
  O  O164  1  0.64924124  0.78315371  0.53155716  1
  O  O165  1  0.63659453  0.77699143  0.94449589  1
  O  O166  1  0.37697072  0.15219106  0.07927891  1
  O  O167  1  0.52654668  0.21961905  0.63505127  1
  O  O168  1  0.56630045  0.70595642  0.07743468  1
  O  O169  1  0.54277007  0.75690329  0.64083441  1
  O  O170  1  0.99129352  0.28034177  0.09801201  1
  O  O171  1  1.02142946  0.12170464  0.56744902  1
  O  O172  1  1.05839047  0.72440246  0.21805306  1
  O  O173  1  1.01973038  0.75726183  0.66290961  1
  O  O174  1  0.09747145  0.11583962  0.41288354  1
  O  O175  1  -0.02253021  0.28369889  0.89406045  1
  O  O176  1  -0.01175047  0.73981153  0.40737213  1
  O  O177  1  -0.02167126  0.73404989  0.84503047  1
  O  O178  1  0.52582757  0.22969825  0.37298043  1
  O  O179  1  0.53051064  0.26511378  0.85909742  1
  O  O180  1  0.61206953  0.80187922  0.36096314  1
  O  O181  1  0.50631881  0.76532593  0.85929067  1
  O  O182  1  0.21940272  0.17204792  0.54260791  1
  O  O183  1  0.24231202  0.26985438  0.94921893  1
  O  O184  1  0.29833948  0.64973853  0.46748738  1
  O  O185  1  0.26925830  0.59590194  1.10978287  1
  O  O186  1  0.71922246  0.12015611  0.44794631  1
  O  O187  1  0.75079340  0.16721187  0.99471994  1
  O  O188  1  0.74391657  0.58787259  0.50737596  1
  O  O189  1  0.73501032  0.62972025  0.97810285  1
  O  O190  1  0.24198456  0.42877927  0.06126691  1
  O  O191  1  0.25938490  0.35587398  0.46998288  1
  O  O192  1  0.29659933  0.88384926  0.01693390  1
  O  O193  1  0.23287090  0.89493015  0.32279652  1
  O  O194  1  0.74683596  0.38774947  -0.01304118  1
  O  O195  1  0.65278930  0.44353787  0.49595956  1
  O  O196  1  0.78455459  0.97070592  0.01784641  1
  O  O197  1  0.77034276  0.87186623  0.59520662  1
  O  O198  1  0.18632615  0.47235084  0.37053810  1
  O  O199  1  0.20479440  0.34117994  0.77848217  1
  O  O200  1  0.18685067  1.18135468  0.30541016  1
  O  O201  1  0.11354712  0.97938690  0.73586281  1
  O  O202  1  0.65629206  0.59528747  0.24190864  1
  O  O203  1  0.61023146  0.48202664  0.72614288  1
  O  O204  1  0.50630498  0.94891698  0.28196369  1
  O  O205  1  0.59017140  1.00663090  0.77298091  1
  O  O206  1  0.27130336  0.05964405  0.19887504  1
  O  O207  1  0.38056587  0.00106089  0.72740103  1
  O  O208  1  0.43161569  0.53742543  0.21692477  1
  O  O209  1  0.34615321  0.50461351  0.84366815  1
  O  O210  1  0.89809005  -0.01078420  0.24183337  1
  O  O211  1  0.84012072  -0.00092186  0.78709884  1
  O  O212  1  0.85667938  0.52988330  0.24940456  1
  O  O213  1  0.85193215  0.49242998  0.75087058  1
  O  O214  1  0.03789916  0.35021855  0.38912557  1
  O  O215  1  0.05840045  0.39706637  0.83126557  1
  O  O216  1  0.11861826  1.02408204  0.27645085  1
  O  O217  1  0.19884266  0.75235622  0.89472263  1
  O  O218  1  0.61126836  0.35953364  0.34379431  1
  O  O219  1  0.61965497  0.37795490  0.84877523  1
  O  O220  1  0.70643671  0.93498377  0.36677762  1
  O  O221  1  0.58237926  0.90319771  0.87811412  1
  O  O222  1  0.41247189  0.15716276  0.23641704  1
  O  O223  1  0.39915840  0.12946621  0.64310737  1
  O  O224  1  0.39216155  0.66387349  0.16830189  1
  O  O225  1  0.42499539  0.65899757  0.60262568  1
  O  O226  1  0.88091973  0.17517293  0.08884425  1
  O  O227  1  0.87786840  0.07082074  0.66237210  1
  O  O228  1  0.80553634  0.69163060  0.12778208  1
  O  O229  1  0.91576787  0.47901282  0.59925575  1
  O  O230  1  0.19826210  0.29240766  0.13656457  1
  O  O231  1  0.28451056  0.28820938  0.59977809  1
  O  O232  1  0.26123112  0.74901620  0.19058305  1
  O  O233  1  0.33407493  0.77911392  0.55834718  1
  O  O234  1  0.72193606  0.27487076  0.10179060  1
  O  O235  1  0.71224980  0.20713558  0.58284977  1
  O  O236  1  0.74082317  0.82260618  0.04998388  1
  O  O237  1  0.74257739  0.71696248  0.62375990  1
  O  O238  1  0.22660516  0.22607386  0.40970736  1
  O  O239  1  0.18394142  0.30952568  0.95882067  1
  O  O240  1  0.25154842  0.89467504  0.39197908  1
  O  O241  1  0.26087442  0.67660544  0.76869879  1
  O  O242  1  0.73172523  0.26114746  0.37655462  1
  O  O243  1  0.74216850  0.24896574  0.87178897  1
  O  O244  1  0.75686810  0.80308469  0.44265314  1
  O  O245  1  0.72057696  0.70928606  0.82978789  1
  O  O246  1  -0.00922225  0.14028725  -0.01668641  1
  O  O247  1  -0.02109416  0.08132145  0.52301785  1
  O  O248  1  -0.01480309  0.58587457  -0.05419662  1
  O  O249  1  -0.05399060  0.59535363  0.49985500  1
  O  O250  1  0.65387038  0.11325614  0.09624037  1
  O  O251  1  0.48044471  0.15451013  0.50959517  1
  O  O252  1  0.51780489  0.66397982  0.03330272  1
  O  O253  1  0.46381982  0.54901417  0.50734080  1
  O  O254  1  0.44703649  0.33582386  0.57177888  1
  O  O255  1  0.51108992  0.37856604  0.96303414  1
  O  O256  1  0.53033600  0.89794185  0.46547807  1
  O  O257  1  0.44982583  0.84048554  0.97405883  1
  O  O258  1  0.95625401  0.30683232  0.52341438  1
  O  O259  1  0.97708025  0.42388703  0.99080516  1
  O  O260  1  0.98699336  0.94264248  0.63173423  1
  O  O261  1  0.98228479  0.93596798  0.95645581  1
  O  O262  1  0.53765860  0.50960136  0.34110016  1
  O  O263  1  0.49387188  0.47571810  0.83843100  1
  O  O264  1  0.56590846  1.04631522  0.41416841  1
  O  O265  1  0.44191561  0.96489148  0.87258977  1
  O  O266  1  1.00668275  0.49925760  0.37295259  1
  O  O267  1  1.01118950  0.45922608  0.81285536  1
  O  O268  1  1.04475213  0.95956277  0.45436231  1
  O  O269  1  1.11307217  0.88754923  0.92676968  1
  O  O270  1  -0.04826444  0.02874329  0.08380666  1
  O  O271  1  0.04416896  -0.09059163  0.60461763  1
  O  O272  1  -0.02731697  0.53638577  0.10741511  1
  O  O273  1  0.05359328  0.46210142  0.51997756  1
  O  O274  1  0.54384897  0.07084542  0.14611041  1
  O  O275  1  0.48337077  0.01760394  0.57479553  1
  O  O276  1  0.55759347  0.50603806  0.10481759  1
  O  O277  1  0.46653984  0.51940209  0.66779341  1
  O  O278  1  0.23906886  0.43252823  0.22244000  1
  O  O279  1  0.23455149  0.27722056  0.78668913  1
  O  O280  1  0.30857260  1.00315631  0.21588271  1
  O  O281  1  0.22269767  0.82459738  0.70293267  1
  O  O282  1  0.76188937  0.40805225  0.26005163  1
  O  O283  1  0.72965737  0.39633009  0.74948626  1
  O  O284  1  0.69334636  0.91146597  0.17321003  1
  O  O285  1  0.70703765  0.91354551  0.78670106  1
  O  O286  1  0.24660222  0.21235777  0.29152008  1
  O  O287  1  0.24789668  0.08319020  0.68936925  1
  O  O288  1  0.25158355  0.58453020  0.28315899  1
  O  O289  1  0.15761893  0.48716417  0.71057242  1
  O  O290  1  0.79861948  0.11444877  0.21585864  1
  O  O291  1  0.75058914  0.11873456  0.77421059  1
  O  O292  1  0.72764254  0.62021718  0.27156655  1
  O  O293  1  0.73914541  0.59436261  0.71540602  1
  O  O294  1  0.30707525  0.09472594  0.35817592  1
  O  O295  1  0.34189018  0.14636282  0.80232395  1
  O  O296  1  0.41375141  0.59041357  0.34986400  1
  O  O297  1  0.42313538  0.63247563  0.90271872  1
  O  O298  1  0.88939813  0.10727151  0.35451582  1
  O  O299  1  0.85100254  0.13552384  0.87661967  1
  O  O300  1  0.81538664  0.65433439  0.38855692  1
  O  O301  1  0.84006333  0.62506007  0.86380629  1
  O  O302  1  0.12349496  0.32921966  0.26985018  1
  O  O303  1  0.09008618  0.28232043  0.68533864  1
  O  O304  1  0.12564639  0.87645876  0.17080191  1
  O  O305  1  0.19944933  0.90175020  0.59999264  1
  O  O306  1  0.60562928  0.47453427  0.06032430  1
  O  O307  1  0.64472413  0.35847969  0.62902200  1
  O  O308  1  0.62250078  0.95009051  0.03999894  1
  O  O309  1  0.59404033  0.91809710  0.65902934  1
  O  O310  1  0.08267635  0.27511823  0.25530716  1
  O  O311  1  0.12200594  0.22109870  0.70264953  1
  O  O312  1  0.14210549  0.72712625  0.33136753  1
  O  O313  1  0.10789721  0.72208581  0.76509346  1
  O  O314  1  0.63331350  0.22837891  0.25907328  1
  O  O315  1  0.63641964  0.24971995  0.75326613  1
  O  O316  1  0.75595266  0.80409008  0.28334601  1
  O  O317  1  0.61163491  0.79216369  0.76820689  1
  O  O318  1  0.40998806  0.22593284  0.26889781  1
  O  O319  1  0.40800485  0.26656002  0.71492779  1
  O  O320  1  0.35260529  0.72035313  0.30604380  1
  O  O321  1  0.40901657  0.76860162  0.69872880  1
  O  O322  1  0.85748508  0.27876083  0.20249569  1
  O  O323  1  0.83670283  0.21369611  0.70948249  1
  O  O324  1  0.95424943  0.77324378  0.27520006  1
  O  O325  1  0.88698551  0.72789435  0.71762297  1
  O  O326  1  0.45101061  0.36451000  0.44321053  1
  O  O327  1  0.39052427  0.51780283  1.01110082  1
  O  O328  1  0.41774739  0.99955138  0.42838922  1
  O  O329  1  0.41908607  0.98048771  1.05421236  1
  O  O330  1  0.90052539  0.43083025  0.45112461  1
  O  O331  1  0.83700800  0.50912235  1.01198525  1
  O  O332  1  0.82665664  1.01709765  0.50277556  1
  O  O333  1  1.02977847  0.97522435  0.92365755  1
  O  O334  1  0.07223089  -0.15437635  -0.03530488  1
  O  O335  1  0.11434388  -0.04343377  0.44540218  1
  O  O336  1  0.10599602  0.51608270  0.02284971  1
  O  O337  1  0.26425364  0.57678314  0.61060779  1
  O  O338  1  0.54857655  0.06128182  -0.05306628  1
  O  O339  1  0.65567829  -0.01265249  0.53754988  1
  O  O340  1  0.62058590  0.51193243  -0.00747018  1
  O  O341  1  0.43099261  0.39329299  0.50945718  1
  O  O342  1  0.34980906  0.34457148  0.14180799  1
  O  O343  1  0.34896260  0.40998015  0.68573249  1
  O  O344  1  0.40088731  0.85115355  0.13828672  1
  O  O345  1  0.45534095  0.86275097  0.58812253  1
  O  O346  1  0.87719183  0.39201706  0.10126079  1
  O  O347  1  0.78563111  0.35505419  0.52609024  1
  O  O348  1  0.87927363  0.84386290  0.12036963  1
  O  O349  1  0.91565960  0.90132850  0.62501858  1
  O  O350  1  0.05421580  0.16664976  0.39306303  1
  O  O351  1  0.15827500  0.01932626  0.84707313  1
  O  O352  1  0.14676889  0.60898740  0.46197050  1
  O  O353  1  0.14232732  0.59696731  0.85438655  1
  O  O354  1  0.63654191  0.16124937  0.29934861  1
  O  O355  1  0.63599013  0.15573246  0.87660734  1
  O  O356  1  0.63960210  0.64613943  0.41089818  1
  O  O357  1  0.60527376  0.63735809  0.88261973  1
