# generated using pymatgen
data_V51Zn51O256
_symmetry_space_group_name_H-M   'P 1'
_cell_length_a   17.55895788
_cell_length_b   17.44823369
_cell_length_c   17.71771416
_cell_angle_alpha   90.79458437
_cell_angle_beta   89.76386612
_cell_angle_gamma   89.34013664
_symmetry_Int_Tables_number   1
_chemical_formula_structural   V51Zn51O256
_chemical_formula_sum   'V51 Zn51 O256'
_cell_volume   5427.29402322
_cell_formula_units_Z   1
loop_
 _symmetry_equiv_pos_site_id
 _symmetry_equiv_pos_as_xyz
  1  'x, y, z'
loop_
 _atom_site_type_symbol
 _atom_site_label
 _atom_site_symmetry_multiplicity
 _atom_site_fract_x
 _atom_site_fract_y
 _atom_site_fract_z
 _atom_site_occupancy
  V  V0  1  0.58948455  0.17318358  0.46392440  1
  V  V1  1  0.21110130  0.10269908  0.37015979  1
  V  V2  1  0.12656612  0.33329038  0.72409454  1
  V  V3  1  0.86609376  -0.00681056  0.40364111  1
  V  V4  1  0.63195182  0.05906174  0.56568511  1
  V  V5  1  0.86775423  0.53401702  0.86624873  1
  V  V6  1  0.10108179  0.38850018  0.25328342  1
  V  V7  1  0.88321692  0.09433713  0.20472957  1
  V  V8  1  0.48398580  0.25648659  0.69822921  1
  V  V9  1  0.50483393  0.52627640  0.46502757  1
  V  V10  1  0.61393976  0.68842510  0.89964216  1
  V  V11  1  0.43548635  0.24617312  0.24602621  1
  V  V12  1  0.86999476  0.03571901  0.90230108  1
  V  V13  1  0.01624333  0.76333631  0.24296184  1
  V  V14  1  0.51695636  0.11529537  0.13379894  1
  V  V15  1  0.55653334  0.41181317  0.70320485  1
  V  V16  1  0.29170277  0.13366239  0.88393253  1
  V  V17  1  0.02179464  0.62855322  0.10168378  1
  V  V18  1  0.77938895  0.37797662  0.11668884  1
  V  V19  1  0.89930217  0.64356430  0.28736041  1
  V  V20  1  0.84160269  0.85571783  -0.02024818  1
  V  V21  1  0.74245006  0.64192874  0.37933548  1
  V  V22  1  0.77325224  0.02431066  0.73510320  1
  V  V23  1  0.24043842  0.64215118  0.32675262  1
  V  V24  1  0.64322582  0.86758119  0.24055931  1
  V  V25  1  0.38344321  0.77696241  0.10316699  1
  V  V26  1  0.87164025  0.73929925  0.10074303  1
  V  V27  1  0.29107600  0.33327103  0.48192304  1
  V  V28  1  0.40590072  0.03223001  0.36853215  1
  V  V29  1  0.39636183  0.86263951  0.53479500  1
  V  V30  1  0.77905286  0.51761761  0.24262781  1
  V  V31  1  -0.00849187  0.24155241  0.21642538  1
  V  V32  1  0.40358295  0.54475249  0.94471527  1
  V  V33  1  0.33455804  0.11025300  0.22961703  1
  V  V34  1  0.66896568  0.27692388  0.36714418  1
  V  V35  1  0.52674614  0.33689713  0.94387478  1
  V  V36  1  0.03807953  0.51621394  0.53651222  1
  V  V37  1  0.00864747  0.83496212  0.86446442  1
  V  V38  1  0.26934671  0.74463679  -0.03789322  1
  V  V39  1  0.13198154  0.77764393  0.37698873  1
  V  V40  1  0.12303799  0.14846052  -0.00874077  1
  V  V41  1  0.77312005  0.76670517  0.50507162  1
  V  V42  1  -0.00388128  0.88271755  0.38222464  1
  V  V43  1  0.64469873  0.39833183  0.25499995  1
  V  V44  1  0.29315597  0.24922710  0.02036468  1
  V  V45  1  0.64250281  0.88228948  0.70326222  1
  V  V46  1  0.74694715  -0.00238949  0.23154737  1
  V  V47  1  0.19653504  0.88247692  0.11142733  1
  V  V48  1  0.50325579  0.86693269  0.37319948  1
  V  V49  1  0.11993461  0.02106745  0.63822841  1
  V  V50  1  0.09045854  0.23115920  0.36953701  1
  Zn  Zn51  1  0.39468159  0.36776028  0.63617151  1
  Zn  Zn52  1  0.46945905  0.95871895  0.21539096  1
  Zn  Zn53  1  0.25153641  0.44539153  0.34110857  1
  Zn  Zn54  1  0.50098614  0.94139209  0.65462427  1
  Zn  Zn55  1  0.56659871  0.49425516  0.86103668  1
  Zn  Zn56  1  0.19695545  0.91191958  0.30538790  1
  Zn  Zn57  1  0.25613525  0.05795516  0.06516510  1
  Zn  Zn58  1  0.40331065  0.71197489  0.42825994  1
  Zn  Zn59  1  0.81655091  0.81695936  0.31958486  1
  Zn  Zn60  1  0.70218607  0.47311334  0.42524141  1
  Zn  Zn61  1  0.05046965  0.64312747  0.90142227  1
  Zn  Zn62  1  0.15251526  0.14538496  0.78476815  1
  Zn  Zn63  1  0.71698731  0.39026705  0.92277298  1
  Zn  Zn64  1  0.21385201  0.68489693  0.13231422  1
  Zn  Zn65  1  0.73166597  0.80328220  0.84282403  1
  Zn  Zn66  1  0.16494915  0.32918289  0.08138993  1
  Zn  Zn67  1  0.00034850  0.08727877  0.33625970  1
  Zn  Zn68  1  0.07163878  0.58306280  0.33179796  1
  Zn  Zn69  1  0.94343779  0.95454863  0.74248607  1
  Zn  Zn70  1  0.21758759  0.95856044  0.93736402  1
  Zn  Zn71  1  0.59882621  0.84767831  0.50756210  1
  Zn  Zn72  1  0.87638862  0.34335001  0.81446020  1
  Zn  Zn73  1  0.00867798  0.82777910  0.05421523  1
  Zn  Zn74  1  0.93374621  0.16321208  1.03549091  1
  Zn  Zn75  1  0.58484133  0.75977661  0.09446994  1
  Zn  Zn76  1  0.45811591  0.17736289  0.96616184  1
  Zn  Zn77  1  0.34492854  0.40658287  0.97068329  1
  Zn  Zn78  1  0.81329387  -0.04422159  0.57569906  1
  Zn  Zn79  1  0.58180808  0.29439653  0.12884201  1
  Zn  Zn80  1  0.37827442  0.27087284  0.84310757  1
  Zn  Zn81  1  0.13966126  0.52421188  0.78682716  1
  Zn  Zn82  1  0.81981245  0.17000588  0.33139218  1
  Zn  Zn83  1  0.17478335  0.17337853  0.16795247  1
  Zn  Zn84  1  0.90298662  0.89801751  0.19223635  1
  Zn  Zn85  1  0.59465522  0.58137457  0.29259392  1
  Zn  Zn86  1  0.97270697  0.45939662  0.72223914  1
  Zn  Zn87  1  0.06242629  0.01082746  0.86778467  1
  Zn  Zn88  1  0.29060947  0.02154433  0.51348347  1
  Zn  Zn89  1  0.26161623  0.28839918  0.30482501  1
  Zn  Zn90  1  0.09224676  0.32921962  0.52598618  1
  Zn  Zn91  1  0.98158693  0.42059984  0.13912488  1
  Zn  Zn92  1  0.39884295  0.19796472  0.41482994  1
  Zn  Zn93  1  0.65552846  0.98577927  0.38834709  1
  Zn  Zn94  1  0.66603804  0.70005788  0.69521494  1
  Zn  Zn95  1  0.22982890  0.59095137  0.93460211  1
  Zn  Zn96  1  0.71703405  0.70740331  0.21205795  1
  Zn  Zn97  1  0.08240433  0.84155465  0.53663300  1
  Zn  Zn98  1  0.56005772  0.33720994  0.54220415  1
  Zn  Zn99  1  0.87359424  0.63130005  0.48953368  1
  Zn  Zn100  1  0.79092605  0.03145021  0.05675252  1
  Zn  Zn101  1  0.86921588  0.53638399  0.08389188  1
  O  O102  1  0.15290496  0.10589327  0.08206469  1
  O  O103  1  0.15013362  0.11483052  0.67577830  1
  O  O104  1  0.11181145  0.63281286  0.13633299  1
  O  O105  1  0.25233180  0.56031375  0.75441322  1
  O  O106  1  0.58887324  0.18072008  0.13388880  1
  O  O107  1  0.63205318  0.16118385  0.56170794  1
  O  O108  1  0.61888868  0.67209068  0.16204789  1
  O  O109  1  0.56038029  0.66335819  0.65460597  1
  O  O110  1  0.30558810  0.36351083  0.38447278  1
  O  O111  1  0.43020334  0.35137846  0.90921870  1
  O  O112  1  0.42002170  0.92315699  0.36161688  1
  O  O113  1  0.35646636  0.86575500  0.82042804  1
  O  O114  1  0.79939665  0.42697317  0.46853892  1
  O  O115  1  0.91428995  0.43435271  0.86735237  1
  O  O116  1  0.88629830  0.88873482  0.36851571  1
  O  O117  1  0.81778769  0.84635662  0.88508853  1
  O  O118  1  0.22676040  0.00585533  0.35303401  1
  O  O119  1  0.28824288  0.03494746  0.89143833  1
  O  O120  1  0.22808207  0.54611497  0.34815682  1
  O  O121  1  0.30739499  0.51376759  0.92316664  1
  O  O122  1  0.76922026  -0.00883374  0.38735400  1
  O  O123  1  0.79542665  0.03539445  0.83318906  1
  O  O124  1  0.76021021  0.53752155  0.35643877  1
  O  O125  1  0.77832039  0.48417648  0.87064926  1
  O  O126  1  0.31135117  0.47653310  0.15992246  1
  O  O127  1  0.30663887  0.51453786  0.74216360  1
  O  O128  1  0.24280161  0.94869767  0.04824307  1
  O  O129  1  0.20798476  1.01551279  0.59110708  1
  O  O130  1  0.77197353  0.55146524  0.15238280  1
  O  O131  1  0.76395212  0.41686519  0.59057867  1
  O  O132  1  0.72610411  0.99887819  0.13850458  1
  O  O133  1  0.71745123  1.01572822  0.58027930  1
  O  O134  1  -0.01452738  0.34232219  0.22631719  1
  O  O135  1  0.04209710  0.37987265  0.76550804  1
  O  O136  1  -0.01031411  0.86227663  0.24716062  1
  O  O137  1  -0.04638843  0.85494926  0.78536600  1
  O  O138  1  0.55339215  0.41170643  0.25701450  1
  O  O139  1  0.46252816  0.43769723  0.68523483  1
  O  O140  1  0.53818629  0.88692725  0.27312348  1
  O  O141  1  0.55380591  0.88811690  0.74103126  1
  O  O142  1  0.45109029  0.14788386  0.21328561  1
  O  O143  1  0.50300900  0.16538543  0.70863998  1
  O  O144  1  0.56219410  0.64404663  0.20675595  1
  O  O145  1  0.38365419  0.65877492  0.73703432  1
  O  O146  1  0.97681461  0.07497148  0.22334928  1
  O  O147  1  1.05978930  0.09756730  0.80284893  1
  O  O148  1  1.00147523  0.64513178  0.26484698  1
  O  O149  1  1.04162423  0.54182925  0.74443375  1
  O  O150  1  0.38732463  0.24459690  0.03624038  1
  O  O151  1  0.32745920  0.24280790  0.48535844  1
  O  O152  1  0.35127723  0.78704819  0.00289914  1
  O  O153  1  0.38216778  0.76578542  0.52197028  1
  O  O154  1  0.74180499  0.19861541  -0.15272476  1
  O  O155  1  0.72529375  0.29560591  0.68756294  1
  O  O156  1  0.85940096  0.74721350  0.00380791  1
  O  O157  1  0.85869610  0.73100501  0.53645711  1
  O  O158  1  0.06616166  0.24287196  0.46225681  1
  O  O159  1  0.12737589  0.24527133  1.01089348  1
  O  O160  1  0.14188494  0.77681325  0.47338145  1
  O  O161  1  0.17777391  0.79861650  0.94115195  1
  O  O162  1  0.61450285  0.27889500  0.46459118  1
  O  O163  1  0.73185868  0.20364384  1.00627662  1
  O  O164  1  0.66077383  0.74371409  0.51680032  1
  O  O165  1  0.60729142  0.70466770  0.99806168  1
  O  O166  1  0.48104687  0.30467608  0.18713499  1
  O  O167  1  0.47910328  0.28935226  0.60234155  1
  O  O168  1  0.47978524  0.77833219  0.09055691  1
  O  O169  1  0.51741600  0.71178452  0.62349993  1
  O  O170  1  0.97248056  0.22031891  0.12424504  1
  O  O171  1  0.91041984  0.15515340  0.69855296  1
  O  O172  1  0.99077888  0.73850032  0.13638494  1
  O  O173  1  1.05721509  0.76933458  0.62639540  1
  O  O174  1  0.00065815  0.20501341  0.32364417  1
  O  O175  1  -0.09616451  0.28532071  0.98496038  1
  O  O176  1  0.02222647  0.77127750  0.35334960  1
  O  O177  1  0.04067165  0.74140524  0.85674648  1
  O  O178  1  0.45578019  0.26071994  0.33867945  1
  O  O179  1  0.54150615  0.24169168  0.92339246  1
  O  O180  1  0.47830923  0.77365887  0.37160307  1
  O  O181  1  0.51713105  0.70043993  0.88942292  1
  O  O182  1  0.23254434  0.10508019  0.46350759  1
  O  O183  1  0.27050941  0.14473981  0.99460317  1
  O  O184  1  0.31547921  0.67536740  0.37849577  1
  O  O185  1  0.22894877  0.66985538  1.01875237  1
  O  O186  1  0.84869077  0.18476393  0.51871082  1
  O  O187  1  0.71546853  0.07623780  0.98271627  1
  O  O188  1  0.76326290  0.62419652  0.47511406  1
  O  O189  1  0.62746050  0.54101242  1.08752060  1
  O  O190  1  0.26520604  0.35358235  0.02034544  1
  O  O191  1  0.19473491  0.33640716  0.49488025  1
  O  O192  1  0.23593931  0.84465052  -0.08800939  1
  O  O193  1  0.31502453  0.91208895  0.51003697  1
  O  O194  1  0.74404861  0.39726079  0.02667557  1
  O  O195  1  0.81594567  0.40986260  0.54072397  1
  O  O196  1  0.75931410  0.86646040  0.02299217  1
  O  O197  1  0.77661996  0.86216178  0.52337696  1
  O  O198  1  0.07895509  0.47871827  0.28409326  1
  O  O199  1  0.15594394  0.43599814  0.72147462  1
  O  O200  1  0.05587248  1.01023221  0.11422691  1
  O  O201  1  0.15358146  0.98755966  0.73033794  1
  O  O202  1  0.66621567  0.50461735  0.25222993  1
  O  O203  1  0.59992745  0.48034731  0.75807976  1
  O  O204  1  0.65499928  0.98153889  0.27536281  1
  O  O205  1  0.68962082  0.96608865  0.73438097  1
  O  O206  1  0.37627632  0.01898805  0.25775301  1
  O  O207  1  0.39162688  -0.08013045  0.79492026  1
  O  O208  1  0.38174669  0.56583668  0.27784902  1
  O  O209  1  0.39586011  0.72597054  0.72237553  1
  O  O210  1  0.85710163  -0.01098100  0.22769047  1
  O  O211  1  0.85036267  -0.02228435  0.68255531  1
  O  O212  1  0.88109318  0.54558001  0.25833304  1
  O  O213  1  0.88627476  0.52075746  0.76473884  1
  O  O214  1  0.08620819  0.33031415  0.33861247  1
  O  O215  1  0.18694833  0.32933051  0.80204222  1
  O  O216  1  0.10041981  0.88619408  0.36628019  1
  O  O217  1  0.08205460  0.90076643  0.86204061  1
  O  O218  1  0.67166754  0.38530697  0.36362811  1
  O  O219  1  0.60398715  0.39839146  0.90772285  1
  O  O220  1  0.60421277  0.88591163  0.40530392  1
  O  O221  1  0.62084245  0.79338096  0.88334639  1
  O  O222  1  0.33446607  0.09180882  0.13575919  1
  O  O223  1  0.35471834  0.08190673  0.67839543  1
  O  O224  1  0.36294347  0.69087254  0.13276468  1
  O  O225  1  0.30344041  0.59442285  0.60437377  1
  O  O226  1  0.87084963  0.09584456  0.10564169  1
  O  O227  1  0.78900630  0.26725414  0.68600100  1
  O  O228  1  0.89921776  0.64056895  0.10796443  1
  O  O229  1  0.76889018  0.58546509  0.63751592  1
  O  O230  1  0.24025445  0.24564378  0.11131111  1
  O  O231  1  0.34468767  0.10455202  0.61317984  1
  O  O232  1  0.24706288  0.79550570  0.11073223  1
  O  O233  1  0.24617807  0.75440696  0.65700170  1
  O  O234  1  0.80521439  0.28876532  0.11825118  1
  O  O235  1  0.83987894  0.25425133  0.52655618  1
  O  O236  1  0.78070185  0.74321349  0.13354958  1
  O  O237  1  0.70328550  0.73533332  0.58511937  1
  O  O238  1  0.19556980  0.21887620  0.35664153  1
  O  O239  1  0.28888904  0.25368486  0.91242569  1
  O  O240  1  0.21734522  0.80358569  0.33766676  1
  O  O241  1  0.29132408  0.69346324  0.88460146  1
  O  O242  1  0.76281942  0.25110169  0.37518883  1
  O  O243  1  0.67427258  0.19166536  0.83247309  1
  O  O244  1  0.77168627  0.75195248  0.39982892  1
  O  O245  1  0.71878532  0.70417730  0.90497709  1
  O  O246  1  0.02783656  0.13493390  -0.01550973  1
  O  O247  1  -0.06418756  0.19915900  0.65102062  1
  O  O248  1  0.03075802  0.65031223  0.00902496  1
  O  O249  1  0.06322054  0.59482251  0.59010611  1
  O  O250  1  0.48121638  0.10673229  0.04411415  1
  O  O251  1  0.49469855  0.17581806  0.46961185  1
  O  O252  1  0.44723405  0.55954539  0.12732649  1
  O  O253  1  0.48335511  0.62606015  0.45407273  1
  O  O254  1  0.51688613  0.42565496  0.47846124  1
  O  O255  1  0.53630048  0.34213352  1.03895596  1
  O  O256  1  0.48656095  0.88004034  0.48578838  1
  O  O257  1  0.59796806  0.95154635  0.99148573  1
  O  O258  1  1.02714797  0.41654360  0.49851742  1
  O  O259  1  0.95551883  0.32948544  1.00366818  1
  O  O260  1  0.99435374  0.86519776  0.47679500  1
  O  O261  1  0.96174337  0.84920422  0.95503715  1
  O  O262  1  0.53021817  0.52978238  0.36598512  1
  O  O263  1  0.46799202  0.53758589  0.86861785  1
  O  O264  1  0.49349826  1.06016110  0.35618464  1
  O  O265  1  0.45973763  0.97047507  0.91111244  1
  O  O266  1  1.05880597  0.54938541  0.44357526  1
  O  O267  1  0.95737290  0.57751264  0.87953108  1
  O  O268  1  0.98583969  0.98423248  0.37818415  1
  O  O269  1  0.94883029  1.00817420  0.84855189  1
  O  O270  1  0.01238095  -0.01030912  0.06435706  1
  O  O271  1  0.02824848  0.00085555  0.68557604  1
  O  O272  1  -0.00561194  0.52994980  0.10572821  1
  O  O273  1  -0.01530542  0.47381108  0.61399980  1
  O  O274  1  0.53991301  0.02406238  0.16163805  1
  O  O275  1  0.55765341  0.02433465  0.61799060  1
  O  O276  1  0.47847184  0.50480585  0.15605635  1
  O  O277  1  0.49756579  0.54990352  0.56006813  1
  O  O278  1  0.20297280  0.37998414  0.26178634  1
  O  O279  1  0.19954989  0.30761984  0.66130339  1
  O  O280  1  0.19410786  0.92399398  0.19885725  1
  O  O281  1  0.22175257  0.71310840  0.70703373  1
  O  O282  1  0.78478428  0.41937041  0.22813394  1
  O  O283  1  0.77732400  0.33595426  0.85063794  1
  O  O284  1  0.75522850  0.88511050  0.24782972  1
  O  O285  1  0.69666690  0.80064997  0.73665045  1
  O  O286  1  0.23543688  0.11378260  0.24614951  1
  O  O287  1  0.26287237  0.15221064  0.79063998  1
  O  O288  1  0.24922875  0.65349021  0.23232393  1
  O  O289  1  0.13749927  0.57763137  0.87747081  1
  O  O290  1  0.77462695  0.09572688  0.25138072  1
  O  O291  1  0.75448585  0.10934227  0.70373876  1
  O  O292  1  0.78157032  0.64998736  0.27934387  1
  O  O293  1  0.71639696  0.59356312  0.68631934  1
  O  O294  1  0.34069842  0.12252881  0.34879290  1
  O  O295  1  0.39297432  0.15687542  0.87872431  1
  O  O296  1  0.42554634  0.61993763  0.27148808  1
  O  O297  1  0.40997972  0.63015263  0.98745023  1
  O  O298  1  0.88622557  0.08949751  0.37118841  1
  O  O299  1  0.87897109  0.12281584  0.94246213  1
  O  O300  1  0.90077991  0.64239764  0.38212302  1
  O  O301  1  0.82087492  0.61591798  0.84205795  1
  O  O302  1  0.09730112  0.38902436  0.14858283  1
  O  O303  1  0.07408974  0.32646492  0.63366918  1
  O  O304  1  0.10630377  0.86286315  0.08009635  1
  O  O305  1  0.10910068  0.92820739  0.59502749  1
  O  O306  1  0.66676934  0.36781377  0.15770047  1
  O  O307  1  0.60635626  0.40060108  0.61869167  1
  O  O308  1  0.62862306  0.84804341  0.14749503  1
  O  O309  1  0.62672311  0.87436001  0.60859278  1
  O  O310  1  0.09247409  0.23054694  0.21504968  1
  O  O311  1  0.09452455  0.24439124  0.75461600  1
  O  O312  1  0.10891187  0.76424463  0.23102342  1
  O  O313  1  0.07896641  0.78004439  0.69328067  1
  O  O314  1  0.64157178  0.28367352  0.27457273  1
  O  O315  1  0.55383028  0.31711589  0.74530353  1
  O  O316  1  0.65644175  0.78000048  0.27792096  1
  O  O317  1  0.62278841  0.67097665  0.79954755  1
  O  O318  1  0.33368722  0.23330931  0.23911592  1
  O  O319  1  0.39203857  0.28502977  0.73525388  1
  O  O320  1  0.37297652  0.83063582  0.19974067  1
  O  O321  1  0.27983850  0.63224653  0.55073950  1
  O  O322  1  0.88562183  0.19255450  0.23925198  1
  O  O323  1  0.93872414  0.26131337  0.82677979  1
  O  O324  1  0.88919635  0.74384132  0.25636901  1
  O  O325  1  0.93496010  0.70703495  0.71790815  1
  O  O326  1  0.41209407  0.50087807  0.44630163  1
  O  O327  1  0.42853177  0.47352315  1.00773353  1
  O  O328  1  0.38707531  1.04231621  0.46406754  1
  O  O329  1  0.45112189  0.91782330  0.95519539  1
  O  O330  1  0.94592399  0.55540417  0.51216863  1
  O  O331  1  0.86336227  0.54013903  0.96668355  1
  O  O332  1  0.87820722  0.99600899  0.49852614  1
  O  O333  1  0.85401673  0.97245490  0.98000803  1
  O  O334  1  0.13353853  0.03162823  -0.05424359  1
  O  O335  1  0.06513545  0.07527308  0.57765492  1
  O  O336  1  0.10545134  0.39990655  -0.03893603  1
  O  O337  1  0.13233239  0.48644543  0.55493923  1
  O  O338  1  0.60036300  -0.02535129  -0.07346395  1
  O  O339  1  0.61223935  0.05500456  0.46620138  1
  O  O340  1  0.59477159  0.49628247  0.04519909  1
  O  O341  1  0.61006101  0.52667055  0.47262621  1
  O  O342  1  0.35477740  0.42545461  0.18079258  1
  O  O343  1  0.32929952  0.38830851  0.55564369  1
  O  O344  1  0.39145103  0.89210970  0.15572792  1
  O  O345  1  0.41449558  0.88635820  0.62924164  1
  O  O346  1  0.87395161  0.42712711  0.10571572  1
  O  O347  1  0.89966500  0.37802108  0.71472900  1
  O  O348  1  0.90059950  0.84876222  0.09617842  1
  O  O349  1  0.87053366  0.71202747  0.69131423  1
  O  O350  1  0.10785777  0.11328372  0.36742971  1
  O  O351  1  0.16840885  0.15128213  0.89462583  1
  O  O352  1  0.14166790  0.66991025  0.35748952  1
  O  O353  1  0.07721836  0.46378788  0.97625515  1
  O  O354  1  0.62890691  0.17333447  0.37312301  1
  O  O355  1  0.68557223  0.14964941  0.99409752  1
  O  O356  1  0.64767062  0.65030019  0.36503768  1
  O  O357  1  0.62157646  0.58986074  0.91085933  1
