# generated using pymatgen
data_V51Zn51O256
_symmetry_space_group_name_H-M   'P 1'
_cell_length_a   17.46426348
_cell_length_b   17.61097827
_cell_length_c   17.42694880
_cell_angle_alpha   89.56466473
_cell_angle_beta   89.07563544
_cell_angle_gamma   89.85163718
_symmetry_Int_Tables_number   1
_chemical_formula_structural   V51Zn51O256
_chemical_formula_sum   'V51 Zn51 O256'
_cell_volume   5359.01202901
_cell_formula_units_Z   1
loop_
 _symmetry_equiv_pos_site_id
 _symmetry_equiv_pos_as_xyz
  1  'x, y, z'
loop_
 _atom_site_type_symbol
 _atom_site_label
 _atom_site_symmetry_multiplicity
 _atom_site_fract_x
 _atom_site_fract_y
 _atom_site_fract_z
 _atom_site_occupancy
  V  V0  1  0.71755218  0.15115380  0.85930877  1
  V  V1  1  0.00449646  0.06613295  0.13029123  1
  V  V2  1  0.47613553  0.37768524  0.86679148  1
  V  V3  1  0.18122239  0.12064408  0.37199407  1
  V  V4  1  0.04258721  0.89094167  0.88459530  1
  V  V5  1  0.74670761  0.89862519  0.63538700  1
  V  V6  1  0.02154219  0.88680860  0.42592841  1
  V  V7  1  0.62782882  0.72810894  0.38050362  1
  V  V8  1  0.00810960  0.74363741  0.75357714  1
  V  V9  1  0.60420535  0.59531923  0.50649146  1
  V  V10  1  0.79059561  0.61726596  0.39897818  1
  V  V11  1  0.77616901  0.31372329  0.44286914  1
  V  V12  1  0.13453538  0.73209323  0.40947397  1
  V  V13  1  0.27362987  0.92547402  0.63494819  1
  V  V14  1  0.27772518  0.76745658  0.52688224  1
  V  V15  1  0.48773153  0.85819366  0.39824680  1
  V  V16  1  0.54251217  0.14354100  0.62798389  1
  V  V17  1  0.57260245  0.54894199  0.05512985  1
  V  V18  1  0.21336956  0.26276015  0.49927313  1
  V  V19  1  0.70086050  0.43471958  0.57083354  1
  V  V20  1  0.37530712  0.63444569  0.22597901  1
  V  V21  1  0.62797055  0.29523135  0.35792219  1
  V  V22  1  0.38253801  0.11378776  0.81521798  1
  V  V23  1  0.89610479  0.76799305  0.09770331  1
  V  V24  1  0.38524644  0.90079097  0.01177854  1
  V  V25  1  0.19381967  0.38041312  0.70552795  1
  V  V26  1  0.76386633  0.07631992  0.37008579  1
  V  V27  1  0.18505458  0.01736001  0.15871660  1
  V  V28  1  0.28616201  0.35616345  0.16634220  1
  V  V29  1  0.52523699  0.15552326  0.11027777  1
  V  V30  1  0.12864156  0.94448538  0.72823049  1
  V  V31  1  0.75579210  0.85816089  0.16115770  1
  V  V32  1  0.89992286  -0.04025117  0.88302267  1
  V  V33  1  0.96026612  0.54819727  0.34409366  1
  V  V34  1  0.64013435  0.00396473  0.13616657  1
  V  V35  1  -0.03162250  0.46256220  -0.03107381  1
  V  V36  1  0.85188297  0.75699286  0.62761891  1
  V  V37  1  0.87230734  0.06587920  0.23982102  1
  V  V38  1  0.11166882  0.49800382  0.61694367  1
  V  V39  1  0.26961137  0.50861920  0.26665429  1
  V  V40  1  0.45596332  0.11167505  0.27582532  1
  V  V41  1  0.38071327  0.23961036  0.57850374  1
  V  V42  1  0.49789690  0.74610315  0.24551965  1
  V  V43  1  0.78545479  0.76861983  -0.05042119  1
  V  V44  1  -0.03229092  0.24477760  0.77932611  1
  V  V45  1  0.74578112  0.53627410  0.18245223  1
  V  V46  1  0.13828467  0.84167781  0.25343081  1
  V  V47  1  -0.00502644  0.36824238  0.41328847  1
  V  V48  1  0.52484202  -0.00510352  -0.01322759  1
  V  V49  1  0.27991453  0.61094096  0.41210032  1
  V  V50  1  0.34652073  0.60533482  0.75681338  1
  Zn  Zn51  1  0.80620883  0.37336209  0.79046181  1
  Zn  Zn52  1  0.68048885  0.91841416  0.41929645  1
  Zn  Zn53  1  0.71529568  0.96214487  0.94074178  1
  Zn  Zn54  1  0.94086962  0.42650724  0.70005666  1
  Zn  Zn55  1  0.74255625  0.57855093  -0.01373568  1
  Zn  Zn56  1  0.56325087  0.84315923  0.08954775  1
  Zn  Zn57  1  0.57554708  0.04766670  0.39819548  1
  Zn  Zn58  1  0.58892051  0.60596976  0.22406748  1
  Zn  Zn59  1  0.82855135  0.43947906  0.32282465  1
  Zn  Zn60  1  0.13763088  0.44476801  0.85302574  1
  Zn  Zn61  1  0.92667586  0.47404073  0.16989554  1
  Zn  Zn62  1  0.64762082  0.74448805  0.59070034  1
  Zn  Zn63  1  0.34495771  0.74205156  0.90169154  1
  Zn  Zn64  1  0.17356390  0.67801948  0.67367944  1
  Zn  Zn65  1  0.65219054  0.49850121  0.34882560  1
  Zn  Zn66  1  0.70697900  0.70130799  0.11675184  1
  Zn  Zn67  1  0.28682132  0.16300400  0.20674306  1
  Zn  Zn68  1  0.43526227  0.99037840  0.69091563  1
  Zn  Zn69  1  0.01175273  0.31739508  0.08547688  1
  Zn  Zn70  1  0.54471128  0.18912478  0.92412270  1
  Zn  Zn71  1  0.43648213  0.83143263  0.58321376  1
  Zn  Zn72  1  0.05013395  0.29583681  0.58985217  1
  Zn  Zn73  1  0.65903278  0.14605105  0.24277992  1
  Zn  Zn74  1  0.46874633  0.58300996  0.90249220  1
  Zn  Zn75  1  0.56112907  0.34614504  0.05195861  1
  Zn  Zn76  1  0.31486321  0.91956525  0.82741890  1
  Zn  Zn77  1  0.93250450  0.73221914  0.43535496  1
  Zn  Zn78  1  0.89539680  0.63093154  0.86635985  1
  Zn  Zn79  1  0.20301583  0.93329393  0.36726040  1
  Zn  Zn80  1  0.95182509  0.89949989  0.20218422  1
  Zn  Zn81  1  0.28372865  0.30301495  0.82801906  1
  Zn  Zn82  1  0.44676299  0.68304313  0.46329914  1
  Zn  Zn83  1  0.47029670  0.19869725  0.44117069  1
  Zn  Zn84  1  0.43342172  0.46347710  0.14790574  1
  Zn  Zn85  1  0.52750061  0.94762086  0.24877615  1
  Zn  Zn86  1  0.15706071  0.40292869  1.02339768  1
  Zn  Zn87  1  0.00869695  0.06548656  0.33619547  1
  Zn  Zn88  1  0.91361752  0.19826911  0.40169545  1
  Zn  Zn89  1  0.92348304  0.90833286  0.70892923  1
  Zn  Zn90  1  0.07656064  0.87578641  0.08697701  1
  Zn  Zn91  1  0.38416587  0.02346041  0.12925895  1
  Zn  Zn92  1  0.84278254  -0.01641235  0.07087439  1
  Zn  Zn93  1  0.32059074  0.79283993  0.33407194  1
  Zn  Zn94  1  0.66788171  0.27075166  0.69615057  1
  Zn  Zn95  1  0.76367954  0.60321427  0.61075760  1
  Zn  Zn96  1  0.69514572  0.05365294  0.53874679  1
  Zn  Zn97  1  0.22007557  0.98323961  0.97831864  1
  Zn  Zn98  1  0.38284511  0.40606349  0.68643161  1
  Zn  Zn99  1  0.10104492  0.82110539  0.58560225  1
  Zn  Zn100  1  0.29655077  0.51629726  0.58254870  1
  Zn  Zn101  1  0.16977809  0.44798620  0.43156324  1
  O  O102  1  0.10885672  0.08134259  0.15744238  1
  O  O103  1  0.09899413  0.06190935  0.54387209  1
  O  O104  1  0.09636102  0.65184088  0.05896484  1
  O  O105  1  0.11878908  0.59030971  0.64375107  1
  O  O106  1  0.62999172  0.10605349  0.12908659  1
  O  O107  1  0.62229782  0.12888328  0.57415728  1
  O  O108  1  0.61331818  0.62172038  0.11295082  1
  O  O109  1  0.65429787  0.63076021  0.59281029  1
  O  O110  1  0.41122887  0.41989114  0.44963757  1
  O  O111  1  0.37335538  0.35007044  0.86897086  1
  O  O112  1  0.39227134  0.86420108  0.38552642  1
  O  O113  1  0.45905910  0.86817501  0.80211618  1
  O  O114  1  0.92983560  0.45238145  0.37865461  1
  O  O115  1  0.78709753  0.38863736  0.89530242  1
  O  O116  1  0.94780500  0.83241654  0.39021883  1
  O  O117  1  0.93080188  0.86735314  0.88587462  1
  O  O118  1  0.20081601  0.02943687  0.40677186  1
  O  O119  1  0.15894845  0.05214825  0.91105917  1
  O  O120  1  0.24810228  0.51062281  0.37374719  1
  O  O121  1  0.19553659  0.45753140  0.93921593  1
  O  O122  1  0.76279284  -0.01963200  0.37295055  1
  O  O123  1  0.70351818  0.04544956  0.85903741  1
  O  O124  1  0.76675772  0.52781317  0.36259781  1
  O  O125  1  0.71344741  0.51418034  0.78315847  1
  O  O126  1  0.30294742  0.58058625  0.02239303  1
  O  O127  1  0.21256167  0.45352625  0.62845980  1
  O  O128  1  0.27651793  1.06250711  0.15078603  1
  O  O129  1  0.27713546  1.01281544  0.60558670  1
  O  O130  1  0.75414386  0.52613914  0.08543017  1
  O  O131  1  0.74957275  0.49415830  0.62889983  1
  O  O132  1  0.73161274  0.96045927  0.11589078  1
  O  O133  1  0.74813448  0.99494018  0.61259573  1
  O  O134  1  0.10313331  0.34056472  0.21722916  1
  O  O135  1  -0.01619912  0.35078941  0.77259461  1
  O  O136  1  0.04444283  0.87529276  0.26197470  1
  O  O137  1  0.03255748  0.91555017  0.71796784  1
  O  O138  1  0.43419573  0.33541169  0.29079202  1
  O  O139  1  0.45596704  0.38960309  0.76741236  1
  O  O140  1  0.50657407  0.83945899  0.27596009  1
  O  O141  1  0.61329045  0.76668491  0.72502789  1
  O  O142  1  0.53655115  0.15040623  0.22743203  1
  O  O143  1  0.41423578  0.16718929  0.72290776  1
  O  O144  1  0.47965731  0.62836229  0.23296823  1
  O  O145  1  0.44068984  0.58353018  0.79219146  1
  O  O146  1  0.97574661  0.10049975  0.23542952  1
  O  O147  1  0.94744923  0.15777787  0.74183054  1
  O  O148  1  1.04466187  0.67628621  0.20780901  1
  O  O149  1  0.97479778  0.65948153  0.79249085  1
  O  O150  1  0.28730651  0.23480764  -0.00054327  1
  O  O151  1  0.38616472  0.25915936  0.48003055  1
  O  O152  1  0.36742655  0.80837984  -0.01059475  1
  O  O153  1  0.38209822  0.74821299  0.53098806  1
  O  O154  1  0.85347979  0.24000042  0.05225171  1
  O  O155  1  0.84492888  0.25396701  0.47325541  1
  O  O156  1  0.86143956  0.80174005  0.00634382  1
  O  O157  1  0.88799164  0.74815478  0.53673086  1
  O  O158  1  0.12309950  0.23738190  0.52574102  1
  O  O159  1  0.10136150  0.31081163  1.02407589  1
  O  O160  1  0.16495568  0.76520052  0.50583141  1
  O  O161  1  0.18043651  0.74879380  0.95712773  1
  O  O162  1  0.68849001  0.26331279  0.43773119  1
  O  O163  1  0.59882885  0.27799607  0.96447619  1
  O  O164  1  0.62419800  0.70786322  0.48074097  1
  O  O165  1  0.57243313  0.73773270  0.96170357  1
  O  O166  1  0.52885086  0.25092861  0.10125550  1
  O  O167  1  0.46747427  0.17061935  0.56128379  1
  O  O168  1  0.51090733  0.76176584  0.15069178  1
  O  O169  1  0.53205980  0.77447847  0.62567360  1
  O  O170  1  0.91896966  0.22797330  0.07625077  1
  O  O171  1  0.97830210  0.26141682  0.67109486  1
  O  O172  1  0.98244336  0.81194586  0.12572441  1
  O  O173  1  1.08366246  0.74476700  0.68145741  1
  O  O174  1  -0.02933739  0.28649071  0.36645743  1
  O  O175  1  -0.03905390  0.21965122  0.87494556  1
  O  O176  1  0.04251742  0.71241840  0.43013545  1
  O  O177  1  0.04097168  0.79725143  0.83083920  1
  O  O178  1  0.53888001  0.26361977  0.38382043  1
  O  O179  1  0.49440165  0.27814798  0.86341354  1
  O  O180  1  0.51128721  0.74974065  0.39288928  1
  O  O181  1  0.49758294  0.83006517  0.84690661  1
  O  O182  1  0.25316604  0.16892890  0.44228188  1
  O  O183  1  0.17619528  0.13258701  1.00915441  1
  O  O184  1  0.26590528  0.58662752  0.50720350  1
  O  O185  1  0.23932367  0.71076430  0.96789446  1
  O  O186  1  0.76671973  0.10380239  0.46344035  1
  O  O187  1  0.68542693  0.14392755  0.95679164  1
  O  O188  1  0.78351929  0.61240182  0.49430944  1
  O  O189  1  0.73925394  0.69391875  1.00469024  1
  O  O190  1  0.22612651  0.40223925  0.10446642  1
  O  O191  1  0.21838763  0.35744995  0.48115379  1
  O  O192  1  0.31315534  0.94253314  -0.05992190  1
  O  O193  1  0.28092982  0.86554522  0.54086383  1
  O  O194  1  0.66508815  0.39020664  0.07340581  1
  O  O195  1  0.76806274  0.39721183  0.50051644  1
  O  O196  1  0.73321231  0.85072344  -0.07075017  1
  O  O197  1  0.71684499  0.86936590  0.52044947  1
  O  O198  1  0.19687627  0.52662244  0.21350272  1
  O  O199  1  0.13516215  0.46178414  0.74568488  1
  O  O200  1  0.16754476  0.95961516  0.23610443  1
  O  O201  1  0.12732074  1.03570620  0.71779516  1
  O  O202  1  0.65500164  0.51742802  0.23477895  1
  O  O203  1  0.57710124  0.53432574  0.68417118  1
  O  O204  1  0.63650984  0.99649960  0.23396389  1
  O  O205  1  0.54590760  0.78564581  0.70586255  1
  O  O206  1  0.43794790  0.01986809  0.23944977  1
  O  O207  1  0.37845209  0.01624820  0.78856145  1
  O  O208  1  0.36725246  0.52427552  0.21421709  1
  O  O209  1  0.33887725  0.50066013  0.75531885  1
  O  O210  1  0.88570447  -0.02570774  0.26416032  1
  O  O211  1  0.87367533  -0.02858223  0.79015254  1
  O  O212  1  0.96606163  0.54144467  0.24612840  1
  O  O213  1  0.87265766  0.46463493  0.77783611  1
  O  O214  1  0.08384859  0.39471017  0.38394394  1
  O  O215  1  0.18411873  0.34937881  0.81447630  1
  O  O216  1  0.11741140  0.85833368  0.39722275  1
  O  O217  1  0.12764343  0.92122852  0.83729280  1
  O  O218  1  0.62895561  0.39365977  0.35667485  1
  O  O219  1  0.56780511  0.40098988  0.84023017  1
  O  O220  1  0.64794432  0.82117876  0.37759114  1
  O  O221  1  0.61123179  0.75702405  0.90573601  1
  O  O222  1  0.43153116  0.12984014  0.12825153  1
  O  O223  1  0.35505486  0.17161501  0.67247789  1
  O  O224  1  0.34837182  0.66072208  0.14123042  1
  O  O225  1  0.35238266  0.58817481  0.65356924  1
  O  O226  1  0.88811103  0.06368507  0.13393844  1
  O  O227  1  0.80451611  0.17513690  0.60539008  1
  O  O228  1  0.91716584  0.67893825  0.08279920  1
  O  O229  1  0.84282710  0.66282485  0.65802282  1
  O  O230  1  0.26408902  0.26132226  0.16966667  1
  O  O231  1  0.27522159  0.24360998  0.57953955  1
  O  O232  1  0.15713813  0.62901841  0.08524395  1
  O  O233  1  0.25143988  0.73122509  0.61524359  1
  O  O234  1  0.72703985  0.34530538  0.08544703  1
  O  O235  1  0.76280593  0.23164487  0.61607806  1
  O  O236  1  0.80769495  0.76363316  0.15760131  1
  O  O237  1  0.75210233  0.77447943  0.62529943  1
  O  O238  1  0.22017671  0.22851808  0.39237454  1
  O  O239  1  0.25257017  0.28276145  0.96085858  1
  O  O240  1  0.27922643  0.72875020  0.42302513  1
  O  O241  1  0.31317128  0.80894196  0.82549780  1
  O  O242  1  0.79805544  0.34015063  0.35056585  1
  O  O243  1  0.74492471  0.24012279  0.88717962  1
  O  O244  1  0.73046223  0.68969403  0.36572189  1
  O  O245  1  0.82963681  0.72537459  0.87364247  1
  O  O246  1  0.00876477  0.11072018  0.04832864  1
  O  O247  1  -0.03776558  0.14593104  0.49948469  1
  O  O248  1  -0.03366755  0.55733528  -0.07039310  1
  O  O249  1  -0.03641380  0.59171710  0.54941685  1
  O  O250  1  0.53449193  0.11775574  0.01252440  1
  O  O251  1  0.41096845  0.00919655  0.49843637  1
  O  O252  1  0.43500940  0.68422199  -0.09597134  1
  O  O253  1  0.50957631  0.60724346  0.52202144  1
  O  O254  1  0.48105217  0.42061214  0.44767595  1
  O  O255  1  0.48668878  0.36864463  0.96946324  1
  O  O256  1  0.49817823  0.86764600  0.49506699  1
  O  O257  1  0.49608843  0.88952731  1.00546582  1
  O  O258  1  0.99499598  0.34984273  0.51029235  1
  O  O259  1  0.96625485  0.35928617  0.99060410  1
  O  O260  1  1.02347933  0.87175061  0.52471268  1
  O  O261  1  1.07059575  0.87109056  0.97430159  1
  O  O262  1  0.46617136  0.39683533  0.28167282  1
  O  O263  1  0.45165432  0.47392931  0.89604541  1
  O  O264  1  0.53300988  0.94532609  0.36444695  1
  O  O265  1  0.52565887  0.99361689  0.89367445  1
  O  O266  1  1.04542123  0.56134591  0.37499744  1
  O  O267  1  1.03163594  0.44995474  0.88641867  1
  O  O268  1  1.00770176  0.98170079  0.40397099  1
  O  O269  1  0.99573183  0.98949742  0.89161300  1
  O  O270  1  0.01013892  -0.03278253  0.11849026  1
  O  O271  1  -0.08028095  0.06386069  0.58884772  1
  O  O272  1  -0.06434259  0.49972926  0.05794213  1
  O  O273  1  0.02110960  0.45956453  0.63998029  1
  O  O274  1  0.55159288  -0.05101136  0.13249007  1
  O  O275  1  0.51625209  0.05852975  0.67388955  1
  O  O276  1  0.49408443  0.58479373  0.00978891  1
  O  O277  1  0.53923757  0.48567132  0.65143364  1
  O  O278  1  0.27989754  0.40564499  0.25782643  1
  O  O279  1  0.29132319  0.34843316  0.71759673  1
  O  O280  1  0.24010437  0.85806263  0.29873757  1
  O  O281  1  0.24740149  0.93108574  0.73762821  1
  O  O282  1  0.82197819  0.47589794  0.21691816  1
  O  O283  1  0.70513085  0.33749646  0.77169187  1
  O  O284  1  0.73768687  0.86862615  0.25135658  1
  O  O285  1  0.70940760  0.89457002  0.72254426  1
  O  O286  1  0.20787149  0.12214204  0.27858261  1
  O  O287  1  0.30077889  0.13477784  0.88306072  1
  O  O288  1  0.29109355  0.61806699  0.28967057  1
  O  O289  1  0.24664325  0.62365724  0.74546243  1
  O  O290  1  0.77536313  0.09544750  0.24423448  1
  O  O291  1  0.71756058  0.17759690  0.75899225  1
  O  O292  1  0.75749251  0.63031135  0.19687731  1
  O  O293  1  0.72570613  0.58192564  0.77337576  1
  O  O294  1  0.48383593  0.10739344  0.37547466  1
  O  O295  1  0.45663057  0.13551543  0.86911157  1
  O  O296  1  0.37869825  0.61453897  0.40828940  1
  O  O297  1  0.31206505  0.62967623  0.85118979  1
  O  O298  1  0.87205929  0.11130847  0.34624043  1
  O  O299  1  0.81118544  0.11753091  0.85815878  1
  O  O300  1  0.89442849  0.63246180  0.37932367  1
  O  O301  1  0.81385262  0.57022718  0.90475447  1
  O  O302  1  0.04799787  0.23887038  0.16538905  1
  O  O303  1  0.13687295  0.32156778  0.65711660  1
  O  O304  1  0.14598831  0.82078537  0.15850848  1
  O  O305  1  0.16446504  0.90082494  0.63339075  1
  O  O306  1  0.53334732  0.46075650  0.09905473  1
  O  O307  1  0.66340132  0.36071088  0.62128958  1
  O  O308  1  0.67061612  0.81247033  0.11604644  1
  O  O309  1  0.65552915  0.86623181  0.57339117  1
  O  O310  1  0.08628922  0.27052223  0.22316792  1
  O  O311  1  0.06496156  0.24100242  0.79496390  1
  O  O312  1  0.13651569  0.75128789  0.30287212  1
  O  O313  1  0.12413669  0.65993965  0.84767016  1
  O  O314  1  0.65970008  0.25451225  0.27425749  1
  O  O315  1  0.57233028  0.21963913  0.68449916  1
  O  O316  1  0.59566243  0.70653150  0.27916235  1
  O  O317  1  0.59134118  0.64196240  0.80032191  1
  O  O318  1  0.37636462  0.16593234  0.27526365  1
  O  O319  1  0.29861450  0.18735956  0.82110109  1
  O  O320  1  0.39371595  0.73474991  0.26986675  1
  O  O321  1  0.38566422  0.69022602  0.72915510  1
  O  O322  1  0.71565322  0.28066701  0.11583176  1
  O  O323  1  0.86872321  0.27739779  0.78944001  1
  O  O324  1  0.99003283  0.69852381  0.24546374  1
  O  O325  1  0.92791090  0.78248922  0.70812833  1
  O  O326  1  0.38475241  0.45895721  0.59363107  1
  O  O327  1  0.33374964  0.52022745  1.04035857  1
  O  O328  1  0.35457011  1.02208197  0.45975389  1
  O  O329  1  0.42663879  1.01250911  1.01741336  1
  O  O330  1  0.93039322  0.53194804  0.53782357  1
  O  O331  1  0.88000540  0.44052802  0.93542863  1
  O  O332  1  0.91666598  1.08686680  0.51993678  1
  O  O333  1  0.83148829  0.98168165  0.96055587  1
  O  O334  1  0.17279556  -0.03934936  0.07597331  1
  O  O335  1  0.05481732  0.01802216  0.57528122  1
  O  O336  1  0.05958841  0.46427779  0.02629451  1
  O  O337  1  0.11705788  0.49586560  0.51915327  1
  O  O338  1  0.62812734  -0.01264839  0.01141557  1
  O  O339  1  0.62749906  -0.00396187  0.47615157  1
  O  O340  1  0.63775205  0.53161618  -0.01632331  1
  O  O341  1  0.63082049  0.49437499  0.52344985  1
  O  O342  1  0.37890459  0.37007230  0.13308692  1
  O  O343  1  0.41821996  0.31149149  0.62664477  1
  O  O344  1  0.35488930  0.91316965  0.10381906  1
  O  O345  1  0.38215552  0.90433635  0.64933764  1
  O  O346  1  0.95572885  0.37284854  0.15817323  1
  O  O347  1  0.84152974  0.38180439  0.68230347  1
  O  O348  1  0.85542286  0.89301825  0.13581259  1
  O  O349  1  0.85034363  0.87482666  0.63699077  1
  O  O350  1  0.08363519  0.13349169  0.37763432  1
  O  O351  1  0.14559818  0.12218792  0.94453255  1
  O  O352  1  0.17221568  0.64206759  0.40122555  1
  O  O353  1  0.13633213  0.59484349  0.87246327  1
  O  O354  1  0.66589366  0.10268912  0.34869679  1
  O  O355  1  0.61397908  0.16171148  0.83759328  1
  O  O356  1  0.61631089  0.58935963  0.40346509  1
  O  O357  1  0.58351261  0.59894004  0.85756757  1
