# generated using pymatgen
data_V51Zn51O256
_symmetry_space_group_name_H-M   'P 1'
_cell_length_a   17.88304826
_cell_length_b   17.70822517
_cell_length_c   17.55643713
_cell_angle_alpha   88.30604322
_cell_angle_beta   88.46288503
_cell_angle_gamma   89.17202446
_symmetry_Int_Tables_number   1
_chemical_formula_structural   V51Zn51O256
_chemical_formula_sum   'V51 Zn51 O256'
_cell_volume   5554.77225001
_cell_formula_units_Z   1
loop_
 _symmetry_equiv_pos_site_id
 _symmetry_equiv_pos_as_xyz
  1  'x, y, z'
loop_
 _atom_site_type_symbol
 _atom_site_label
 _atom_site_symmetry_multiplicity
 _atom_site_fract_x
 _atom_site_fract_y
 _atom_site_fract_z
 _atom_site_occupancy
  V  V0  1  0.47816969  0.86186848  0.85386967  1
  V  V1  1  0.01756994  0.39132421  0.41309472  1
  V  V2  1  0.26263601  0.53036645  0.24305988  1
  V  V3  1  0.10632766  0.14030519  0.49422664  1
  V  V4  1  0.38609673  0.36648044  -0.00793199  1
  V  V5  1  0.51227494  0.90449520  0.37830877  1
  V  V6  1  0.71363421  0.57039230  0.37798851  1
  V  V7  1  0.22110471  0.03023997  0.72645983  1
  V  V8  1  0.75862020  0.73728738  -0.00673157  1
  V  V9  1  0.14691403  0.61786308  0.50758593  1
  V  V10  1  0.68927596  0.43072015  0.79807099  1
  V  V11  1  0.37752706  0.79718162  0.14785861  1
  V  V12  1  0.61443046  0.04975788  0.13634170  1
  V  V13  1  0.39224350  0.25272648  0.56276793  1
  V  V14  1  0.71915967  0.74701089  0.52219835  1
  V  V15  1  0.24522807  0.10503187  0.37948786  1
  V  V16  1  0.17798111  0.52457149  0.66184166  1
  V  V17  1  0.13168981  0.86975756  0.76986494  1
  V  V18  1  0.24524877  0.86153392  0.64207852  1
  V  V19  1  0.81636080  0.56229828  0.75992812  1
  V  V20  1  0.00336390  0.29727715  0.23738063  1
  V  V21  1  0.23805218  0.30167380  0.47039925  1
  V  V22  1  0.52199875  -0.00082825  0.51506567  1
  V  V23  1  0.94074825  0.94368288  0.00548140  1
  V  V24  1  0.62078106  0.91273500  0.23200887  1
  V  V25  1  0.84873182  0.45714381  0.36492651  1
  V  V26  1  0.38105329  0.50189002  0.89716523  1
  V  V27  1  -0.03178080  0.22326057  0.82267476  1
  V  V28  1  0.27695838  0.62901610  0.90226942  1
  V  V29  1  0.52530872  0.75421691  0.19750452  1
  V  V30  1  0.42968623  0.12469208  0.17211157  1
  V  V31  1  0.21917530  0.14022774  0.89857987  1
  V  V32  1  0.02852462  0.72730528  0.78207668  1
  V  V33  1  0.04002190  0.14505452  0.15943628  1
  V  V34  1  0.85582754  0.41059843  0.02247682  1
  V  V35  1  0.51068970  0.13257614  0.61343962  1
  V  V36  1  0.35176600  0.89092354  0.49709015  1
  V  V37  1  0.62736568  0.48284481  0.55706078  1
  V  V38  1  0.05000014  0.62355129  0.15833553  1
  V  V39  1  0.39659338  0.77314299  0.63716812  1
  V  V40  1  0.62099215  0.39309252  0.17995342  1
  V  V41  1  0.51599389  0.06981963  -0.02986776  1
  V  V42  1  0.37831282  0.11989601  0.75810710  1
  V  V43  1  0.25929757  0.35040160  0.10774191  1
  V  V44  1  0.15837984  0.74212158  0.89563608  1
  V  V45  1  0.04986023  0.53470854  -0.00454043  1
  V  V46  1  0.39446319  0.59585315  0.68497101  1
  V  V47  1  0.86287841  0.12245895  0.24215895  1
  V  V48  1  0.17664951  0.37594710  0.74673647  1
  V  V49  1  0.12874533  0.28050490  0.89574444  1
  V  V50  1  0.14334811  0.39132660  0.21729571  1
  Zn  Zn51  1  0.31787944  0.82036140  0.81662323  1
  Zn  Zn52  1  0.51705177  0.79761718  0.51326772  1
  Zn  Zn53  1  0.33836813  0.41888194  0.65842424  1
  Zn  Zn54  1  0.69206401  0.18104143  0.60863530  1
  Zn  Zn55  1  0.42585737  0.21181787  0.91109821  1
  Zn  Zn56  1  0.92178537  0.65482243  0.90186731  1
  Zn  Zn57  1  0.80678837  0.88271854  0.59605616  1
  Zn  Zn58  1  0.10524203  0.54228193  0.33135125  1
  Zn  Zn59  1  0.67543654  0.58154005  0.66330125  1
  Zn  Zn60  1  0.80916206  0.00970448  0.12712094  1
  Zn  Zn61  1  0.32532139  0.37613978  0.30126215  1
  Zn  Zn62  1  0.02604842  0.10767148  0.95905772  1
  Zn  Zn63  1  0.77765557  0.56372731  0.07833477  1
  Zn  Zn64  1  0.10589757  0.55709617  0.83106322  1
  Zn  Zn65  1  -0.00224371  0.80316884  0.09435654  1
  Zn  Zn66  1  0.21803007  0.58337153  0.07840209  1
  Zn  Zn67  1  0.13941739  0.19591098  0.29208664  1
  Zn  Zn68  1  0.24673179  0.16249736  0.17363227  1
  Zn  Zn69  1  0.51019990  0.04975278  0.30249464  1
  Zn  Zn70  1  0.31415703  0.31316478  0.83901038  1
  Zn  Zn71  1  0.69731346  0.20018177  0.17328943  1
  Zn  Zn72  1  0.97467410  0.49278919  0.22254887  1
  Zn  Zn73  1  0.80991614  0.30241664  0.72877757  1
  Zn  Zn74  1  0.67532206  0.90894762  0.43893706  1
  Zn  Zn75  1  0.67267580  0.45030050  0.98661182  1
  Zn  Zn76  1  0.34165171  0.06539196  0.03174924  1
  Zn  Zn77  1  0.23221627  0.69521162  0.73242074  1
  Zn  Zn78  1  0.41100487  0.95871563  0.68379977  1
  Zn  Zn79  1  0.19915258  0.45025378  0.94038639  1
  Zn  Zn80  1  0.10694124  0.19633123  0.68929217  1
  Zn  Zn81  1  0.52892470  0.52312768  0.76264803  1
  Zn  Zn82  1  0.88709850  0.82791173  0.87123712  1
  Zn  Zn83  1  0.19787983  0.99647187  0.53339616  1
  Zn  Zn84  1  0.97064626  0.19471276  0.37399508  1
  Zn  Zn85  1  0.36260548  0.21454473  0.32922761  1
  Zn  Zn86  1  0.65986691  0.41304536  0.38117154  1
  Zn  Zn87  1  0.08056952  0.77714060  0.60845979  1
  Zn  Zn88  1  0.82135102  0.46908267  0.60001017  1
  Zn  Zn89  1  0.34146694  0.09818374  0.50970523  1
  Zn  Zn90  1  0.82481656  0.59710989  0.23250656  1
  Zn  Zn91  1  0.62997780  0.59199822  0.21566066  1
  Zn  Zn92  1  0.07713363  0.89533941  0.93283818  1
  Zn  Zn93  1  0.48049176  0.94748201  0.10056202  1
  Zn  Zn94  1  0.95568071  0.97192157  0.19356500  1
  Zn  Zn95  1  0.33070490  0.68527475  0.50796927  1
  Zn  Zn96  1  0.11939016  0.41812423  0.54565944  1
  Zn  Zn97  1  0.40592698  0.78156587  0.34938641  1
  Zn  Zn98  1  0.50883655  0.34197421  0.63815011  1
  Zn  Zn99  1  0.53341638  0.02405202  0.77426714  1
  Zn  Zn100  1  0.43340115  0.31006613  0.17204227  1
  Zn  Zn101  1  0.43837879  0.68777542  0.81709825  1
  O  O102  1  0.13810666  0.15298057  0.18102912  1
  O  O103  1  0.10724671  0.18125733  0.58268362  1
  O  O104  1  0.14053501  0.63876632  0.13773640  1
  O  O105  1  0.17605350  0.61818739  0.67970738  1
  O  O106  1  0.61019019  0.14507952  0.15020350  1
  O  O107  1  0.60234662  0.12964932  0.64113772  1
  O  O108  1  0.73046446  0.59227175  0.17882733  1
  O  O109  1  0.58635623  0.56125662  0.59667281  1
  O  O110  1  0.45382972  0.47159838  0.46323275  1
  O  O111  1  0.35131508  0.40362507  0.88906248  1
  O  O112  1  0.35123414  0.86742632  0.40328325  1
  O  O113  1  0.38632265  0.86100215  0.88494711  1
  O  O114  1  0.83681841  0.36783201  0.35414825  1
  O  O115  1  0.88526770  0.37005934  0.93824923  1
  O  O116  1  0.92899667  0.87896438  0.32862547  1
  O  O117  1  0.88775565  0.91304336  0.92969728  1
  O  O118  1  0.24992112  0.01642158  0.35763080  1
  O  O119  1  0.23145780  0.07214168  0.83249016  1
  O  O120  1  0.38735098  0.45738210  0.45755098  1
  O  O121  1  0.27324547  0.52643899  0.88978657  1
  O  O122  1  0.75524042  -0.01155306  0.39488035  1
  O  O123  1  0.77669596  -0.00863253  0.80611271  1
  O  O124  1  0.74202377  0.47952404  0.34082115  1
  O  O125  1  0.65813385  0.41182538  0.89005829  1
  O  O126  1  0.28870759  0.54138557  0.14679615  1
  O  O127  1  0.26640406  0.50080719  0.63471157  1
  O  O128  1  0.27524194  0.94050492  0.04597430  1
  O  O129  1  0.23235653  0.98021169  0.63966559  1
  O  O130  1  0.86092357  0.60801332  0.12798244  1
  O  O131  1  0.71483907  0.48774451  0.60216365  1
  O  O132  1  0.70710966  1.03194751  0.11995723  1
  O  O133  1  0.77378455  0.99664971  0.59100214  1
  O  O134  1  0.03675454  0.40359459  0.22174362  1
  O  O135  1  -0.11481982  0.26560763  0.79615212  1
  O  O136  1  -0.01291326  0.91637530  0.29443017  1
  O  O137  1  0.03924203  0.86716569  0.78498166  1
  O  O138  1  0.52422237  0.36546288  0.17762289  1
  O  O139  1  0.62717219  0.24365418  0.86982970  1
  O  O140  1  0.47284849  0.92320993  0.29423046  1
  O  O141  1  0.47774498  0.92646333  0.77150096  1
  O  O142  1  0.43712360  0.12684533  0.27184408  1
  O  O143  1  0.47463085  0.10559481  0.71971733  1
  O  O144  1  0.55459501  0.66218987  0.19309309  1
  O  O145  1  0.47640874  0.61939739  0.73598692  1
  O  O146  1  1.02835308  0.19804323  0.27483179  1
  O  O147  1  1.01379308  0.18419726  0.74620739  1
  O  O148  1  1.03446642  0.58413088  0.25279536  1
  O  O149  1  1.03861973  0.63183660  0.78490224  1
  O  O150  1  0.35490969  0.27782284  -0.04024070  1
  O  O151  1  0.42852062  0.27038459  0.47840874  1
  O  O152  1  0.36970226  0.76275372  0.04040293  1
  O  O153  1  0.37424086  0.78550423  0.52682796  1
  O  O154  1  0.87341360  0.33576036  0.08138099  1
  O  O155  1  0.82140416  0.19021434  0.51713339  1
  O  O156  1  0.86057229  0.70717813  -0.01031759  1
  O  O157  1  0.81255765  0.73435844  0.50346806  1
  O  O158  1  0.16198213  0.24774416  0.46148101  1
  O  O159  1  0.12273988  0.30076624  0.98430582  1
  O  O160  1  0.10451121  0.69739443  0.54186462  1
  O  O161  1  0.17148328  0.75273302  0.98658514  1
  O  O162  1  0.66393279  0.28782945  0.48835935  1
  O  O163  1  0.48529532  0.33579560  0.81525460  1
  O  O164  1  0.62250619  0.78101815  0.53682356  1
  O  O165  1  0.67312794  0.75198872  0.95407853  1
  O  O166  1  0.45534118  0.20958033  0.13512711  1
  O  O167  1  0.50064774  0.23219314  0.61259380  1
  O  O168  1  0.50650744  0.78579231  0.10966303  1
  O  O169  1  0.48952398  0.78113229  0.62285818  1
  O  O170  1  1.02730490  0.26268193  0.14798712  1
  O  O171  1  0.91415659  0.10072694  0.60957509  1
  O  O172  1  1.00200882  0.70843608  0.14110875  1
  O  O173  1  1.00946681  0.75323949  0.68967754  1
  O  O174  1  -0.00168546  0.30972888  0.36277661  1
  O  O175  1  0.03367657  0.28807023  0.86440904  1
  O  O176  1  -0.00201857  0.72631617  0.34099797  1
  O  O177  1  0.06272701  0.74072622  0.88975271  1
  O  O178  1  0.60385224  0.20474613  0.34023475  1
  O  O179  1  0.43293678  0.27830433  0.80564953  1
  O  O180  1  0.50440833  0.80325534  0.39821798  1
  O  O181  1  0.50271133  0.77036225  0.83677060  1
  O  O182  1  0.23238373  0.09555665  0.49063454  1
  O  O183  1  0.25855512  0.10953344  0.98261113  1
  O  O184  1  0.24177045  0.63020546  0.50374843  1
  O  O185  1  0.27334448  0.63953232  0.99601409  1
  O  O186  1  0.71468665  0.12572013  0.50939999  1
  O  O187  1  0.81703519  0.18551997  1.03992757  1
  O  O188  1  0.70329637  0.66396996  0.46862957  1
  O  O189  1  0.75241318  0.63467120  0.98652013  1
  O  O190  1  0.25962732  0.39654287  0.01660356  1
  O  O191  1  0.21362430  0.39083757  0.49818707  1
  O  O192  1  0.23767782  0.90746192  -0.00044912  1
  O  O193  1  0.25055917  0.88701233  0.53329646  1
  O  O194  1  0.76112836  0.37846041  0.01215403  1
  O  O195  1  0.70579462  0.32366328  0.43270916  1
  O  O196  1  0.78136176  0.82469075  0.02956419  1
  O  O197  1  0.75142361  0.86267126  0.50529960  1
  O  O198  1  0.16592386  0.48665307  0.25074515  1
  O  O199  1  0.15499011  0.48766862  0.75994864  1
  O  O200  1  0.12657079  0.89402141  0.26362416  1
  O  O201  1  0.14551012  0.97278438  0.76479951  1
  O  O202  1  0.60004142  0.49120761  0.17982544  1
  O  O203  1  0.62849654  0.49461880  0.74702196  1
  O  O204  1  0.60258349  1.02131890  0.24459266  1
  O  O205  1  0.63719371  0.98703079  0.74264586  1
  O  O206  1  0.29253501  -0.04083577  0.22012631  1
  O  O207  1  0.33194578  0.03287381  0.72926973  1
  O  O208  1  0.32967393  0.48329345  0.29876855  1
  O  O209  1  0.41191353  0.50194125  0.66742124  1
  O  O210  1  0.85808755  0.02044312  0.22298647  1
  O  O211  1  0.82157882  -0.10628025  0.70853325  1
  O  O212  1  0.87841387  0.50505024  0.27211338  1
  O  O213  1  0.77645779  0.47573902  0.80239995  1
  O  O214  1  0.09448331  0.43754926  0.37760257  1
  O  O215  1  0.16765771  0.37504122  0.85924662  1
  O  O216  1  0.11005874  0.85222413  0.21248214  1
  O  O217  1  0.16101896  0.85695530  0.87259686  1
  O  O218  1  0.61277119  0.39676925  0.28242607  1
  O  O219  1  0.52603463  0.35461947  0.75330607  1
  O  O220  1  0.61012804  0.90952789  0.35177323  1
  O  O221  1  0.57392738  0.88948702  0.89998759  1
  O  O222  1  0.33725659  0.10459076  0.13774421  1
  O  O223  1  0.39897820  0.14854256  0.58214574  1
  O  O224  1  0.38586403  0.70349979  0.08429941  1
  O  O225  1  0.38751835  0.66444850  0.60657588  1
  O  O226  1  0.92382658  0.15790789  0.17421495  1
  O  O227  1  0.93939532  0.03645084  0.61910908  1
  O  O228  1  0.86645108  0.73068132  0.24408520  1
  O  O229  1  0.85851062  0.53941852  0.67314878  1
  O  O230  1  0.25191797  0.25589874  0.10706310  1
  O  O231  1  0.29367140  0.25843478  0.54737335  1
  O  O232  1  0.28972858  0.79457891  0.17490790  1
  O  O233  1  0.26550030  0.76482431  0.64100100  1
  O  O234  1  0.74967506  0.19937280  0.05606556  1
  O  O235  1  0.69545129  0.28673015  0.55693269  1
  O  O236  1  0.72791485  0.72236751  0.08895023  1
  O  O237  1  0.69955932  0.67757193  0.59697878  1
  O  O238  1  0.28868028  0.30746433  0.38400258  1
  O  O239  1  0.23507118  0.23778072  0.87001152  1
  O  O240  1  0.15669459  0.78578620  0.33109989  1
  O  O241  1  0.26715660  0.72768758  0.85044879  1
  O  O242  1  0.77911935  0.15351756  0.47498831  1
  O  O243  1  0.76335843  0.15730056  0.75924501  1
  O  O244  1  0.69098393  0.78947431  0.42391961  1
  O  O245  1  0.79129666  0.76915065  0.89597054  1
  O  O246  1  0.03897578  0.13579948  0.06342642  1
  O  O247  1  0.01767871  0.16286746  0.46483826  1
  O  O248  1  0.00294770  0.61362928  -0.03481934  1
  O  O249  1  -0.03041157  0.44146605  0.65097488  1
  O  O250  1  0.49926245  0.16487021  -0.02692838  1
  O  O251  1  0.52996481  0.10352614  0.51631825  1
  O  O252  1  0.56497548  0.59960860  -0.04652241  1
  O  O253  1  0.38343557  0.68676212  0.40613064  1
  O  O254  1  0.55731386  0.25148168  0.36423278  1
  O  O255  1  0.47681821  0.35472185  0.98492508  1
  O  O256  1  0.47466242  0.90240370  0.49329343  1
  O  O257  1  0.51811208  0.88312957  0.95273039  1
  O  O258  1  1.03018653  0.37549933  0.50950465  1
  O  O259  1  0.94416547  0.45479374  1.01384207  1
  O  O260  1  1.01874383  0.84696465  0.53396952  1
  O  O261  1  1.00218845  0.84650598  0.99360066  1
  O  O262  1  0.40960567  0.61588649  0.35955365  1
  O  O263  1  0.46032040  0.49394874  0.84127903  1
  O  O264  1  0.50544351  1.00920780  0.40831826  1
  O  O265  1  0.54165490  1.04833560  0.87889677  1
  O  O266  1  0.94471706  0.45959485  0.40158857  1
  O  O267  1  1.06053408  0.48679470  0.91123811  1
  O  O268  1  0.93472851  0.86591711  0.40038965  1
  O  O269  1  1.02061474  0.99403667  0.96342422  1
  O  O270  1  0.02681063  0.05296874  0.19504217  1
  O  O271  1  -0.05136969  -0.16059899  0.55784559  1
  O  O272  1  0.02070190  0.54437393  0.10451481  1
  O  O273  1  -0.06214536  0.38654965  0.68151521  1
  O  O274  1  0.49147332  0.05238875  0.14617300  1
  O  O275  1  0.48463493  0.00709063  0.61123286  1
  O  O276  1  0.54184128  0.60154480  0.02293279  1
  O  O277  1  0.57628733  0.40340342  0.58103766  1
  O  O278  1  0.25610081  0.37889958  0.20737490  1
  O  O279  1  0.27527655  0.36709756  0.74162748  1
  O  O280  1  0.27341428  0.90608251  0.26121320  1
  O  O281  1  0.25406736  0.87431278  0.74437923  1
  O  O282  1  0.71741343  0.40554381  0.18099457  1
  O  O283  1  0.71268394  0.34658802  0.75659553  1
  O  O284  1  0.71058993  0.90684132  0.21876311  1
  O  O285  1  0.84848468  0.83711706  0.74541446  1
  O  O286  1  0.25550230  0.16805406  0.28748346  1
  O  O287  1  0.18476994  0.11218907  0.69688735  1
  O  O288  1  0.24513769  0.61268567  0.28199588  1
  O  O289  1  0.31732508  0.61256308  0.74067132  1
  O  O290  1  0.77447219  0.16057020  0.22847483  1
  O  O291  1  0.76576465  0.03317452  0.65111701  1
  O  O292  1  0.77931152  0.62395875  0.33045427  1
  O  O293  1  0.74033857  0.61952158  0.73994993  1
  O  O294  1  0.34006846  0.13854127  0.40429782  1
  O  O295  1  0.38076504  0.12903032  0.85571456  1
  O  O296  1  0.14059401  0.75263327  0.27362137  1
  O  O297  1  0.37946575  0.61785585  0.88451873  1
  O  O298  1  0.88916789  0.13953954  0.33365143  1
  O  O299  1  0.83879738  0.01900807  0.80992773  1
  O  O300  1  0.81341447  0.53896429  0.44640675  1
  O  O301  1  0.87254021  0.59575651  0.82886118  1
  O  O302  1  0.15199933  0.38131398  0.12053595  1
  O  O303  1  0.14901984  0.40646159  0.65411117  1
  O  O304  1  0.17866082  0.98502707  0.12640287  1
  O  O305  1  0.14331457  0.85631169  0.65459029  1
  O  O306  1  0.61816026  0.39561107  0.07713509  1
  O  O307  1  0.59999108  0.21345905  0.81527616  1
  O  O308  1  0.58382034  0.93173326  0.13793325  1
  O  O309  1  0.63877628  0.91239553  0.72322637  1
  O  O310  1  0.13713476  0.30736629  0.26740385  1
  O  O311  1  0.14158448  0.28637682  0.74645791  1
  O  O312  1  0.02259851  0.75235175  0.39887486  1
  O  O313  1  0.13943375  0.75761778  0.76944036  1
  O  O314  1  0.64548617  0.29483105  0.18376404  1
  O  O315  1  0.76949168  0.20370947  0.68369940  1
  O  O316  1  0.59173130  0.81187954  0.23930772  1
  O  O317  1  0.66935490  0.86531265  0.76963335  1
  O  O318  1  0.39959431  0.30020886  0.27449015  1
  O  O319  1  0.33749605  0.19659685  0.72409697  1
  O  O320  1  0.42824392  0.76429696  0.23983173  1
  O  O321  1  0.38371122  0.75839747  0.73670893  1
  O  O322  1  0.91254520  0.30520707  0.23781675  1
  O  O323  1  0.95332554  0.15592217  0.89365376  1
  O  O324  1  0.82556161  0.78794975  0.24090699  1
  O  O325  1  0.93801408  0.74372594  0.83220597  1
  O  O326  1  0.46982471  0.58823580  0.38104641  1
  O  O327  1  0.40112441  0.48516886  0.98943778  1
  O  O328  1  0.35771697  0.98711236  0.50633844  1
  O  O329  1  0.43540732  1.01722960  1.00612552  1
  O  O330  1  0.81595894  0.46566776  0.47953618  1
  O  O331  1  0.80730471  0.49734837  0.97936569  1
  O  O332  1  0.90663630  0.90430343  0.55132924  1
  O  O333  1  0.87839232  1.01015273  1.04278501  1
  O  O334  1  0.12591260  -0.03849532  0.09094221  1
  O  O335  1  0.10098781  0.04261940  0.51520932  1
  O  O336  1  0.14759519  0.53181132  0.01256416  1
  O  O337  1  0.12427199  0.53200497  0.56984869  1
  O  O338  1  0.58884569  0.04561898  0.03165343  1
  O  O339  1  0.61080443  -0.03584184  0.51576415  1
  O  O340  1  0.67990258  0.52627762  0.05875497  1
  O  O341  1  0.64344868  0.49442508  0.45596455  1
  O  O342  1  0.36649450  0.35866608  0.09875533  1
  O  O343  1  0.40111957  0.33992833  0.61869253  1
  O  O344  1  0.39410949  0.89258093  0.12962992  1
  O  O345  1  0.36177659  0.87642596  0.63200315  1
  O  O346  1  0.84491558  0.46460121  0.11015572  1
  O  O347  1  0.85815144  0.37030018  0.64715658  1
  O  O348  1  0.94891524  0.90138962  0.11114991  1
  O  O349  1  0.74378416  0.79531503  0.61723526  1
  O  O350  1  0.14435613  0.13063064  0.38473374  1
  O  O351  1  0.12202589  0.16256986  0.91224668  1
  O  O352  1  0.11421787  0.60252439  0.41877325  1
  O  O353  1  0.17332252  0.63396340  0.87707731  1
  O  O354  1  0.82088982  -0.01373773  0.41740607  1
  O  O355  1  0.70556198  0.11939001  0.76746328  1
  O  O356  1  0.63545707  0.58957882  0.32762692  1
  O  O357  1  0.59907231  0.53825520  0.92726684  1
