# generated using pymatgen
data_V51Zn51O256
_symmetry_space_group_name_H-M   'P 1'
_cell_length_a   17.43721997
_cell_length_b   17.56418577
_cell_length_c   17.74979461
_cell_angle_alpha   88.12644254
_cell_angle_beta   89.64050549
_cell_angle_gamma   88.72212792
_symmetry_Int_Tables_number   1
_chemical_formula_structural   V51Zn51O256
_chemical_formula_sum   'V51 Zn51 O256'
_cell_volume   5431.89863872
_cell_formula_units_Z   1
loop_
 _symmetry_equiv_pos_site_id
 _symmetry_equiv_pos_as_xyz
  1  'x, y, z'
loop_
 _atom_site_type_symbol
 _atom_site_label
 _atom_site_symmetry_multiplicity
 _atom_site_fract_x
 _atom_site_fract_y
 _atom_site_fract_z
 _atom_site_occupancy
  V  V0  1  0.03375707  0.35464579  0.88311863  1
  V  V1  1  0.01485300  0.03999955  0.03562930  1
  V  V2  1  0.28676183  0.25220904  0.09461765  1
  V  V3  1  0.49792061  0.49615275  0.50886244  1
  V  V4  1  0.29421815  0.10147315  0.87796920  1
  V  V5  1  -0.03698219  0.14821875  0.17159865  1
  V  V6  1  0.90432068  0.89924652  0.03050680  1
  V  V7  1  0.24132938  0.82031630  0.12132602  1
  V  V8  1  0.38456729  0.75895531  0.62413074  1
  V  V9  1  0.14799315  0.67458772  0.46020219  1
  V  V10  1  -0.02815989  -0.03086898  0.53297880  1
  V  V11  1  0.42434357  0.40335577  -0.01323435  1
  V  V12  1  0.17151251  0.03102226  0.66271923  1
  V  V13  1  -0.01374391  0.30484415  0.27362944  1
  V  V14  1  0.04732147  0.59132719  0.13439348  1
  V  V15  1  0.96691424  0.46105663  0.76865322  1
  V  V16  1  0.71496092  0.60920929  0.39069190  1
  V  V17  1  0.74801617  0.93882589  0.09108695  1
  V  V18  1  0.52214065  0.61959444  0.62142461  1
  V  V19  1  0.37312114  0.62343727  0.72971801  1
  V  V20  1  0.02326462  0.86821727  0.88452252  1
  V  V21  1  0.32663909  -0.01461370  0.76571729  1
  V  V22  1  0.26455845  0.81940530  0.49649018  1
  V  V23  1  0.86625321  0.50674114  0.41006205  1
  V  V24  1  0.58272860  0.37671650  0.22854780  1
  V  V25  1  0.29988442  0.17167086  0.52657574  1
  V  V26  1  0.32476189  0.46530671  0.82508540  1
  V  V27  1  0.01812716  0.22268747  0.67756921  1
  V  V28  1  0.18470009  0.11329235  0.32388783  1
  V  V29  1  -0.00943111  0.38792196  0.41278549  1
  V  V30  1  0.90531359  0.03839025  0.89086721  1
  V  V31  1  0.75035741  0.51548502  0.24390653  1
  V  V32  1  0.44988055  0.23720808  0.20466588  1
  V  V33  1  0.52498676  0.26845229  0.76494735  1
  V  V34  1  0.26567160  0.67940991  -0.05689941  1
  V  V35  1  0.74975624  0.23319429  0.50194531  1
  V  V36  1  0.64203552  0.80990870  0.77985559  1
  V  V37  1  0.73563965  0.85659633  0.59821275  1
  V  V38  1  0.87416911  0.64635722  0.28837000  1
  V  V39  1  0.59220871  0.13277061  0.49874036  1
  V  V40  1  0.16978555  0.55061459  -0.01425892  1
  V  V41  1  0.61638148  0.88834725  0.23785210  1
  V  V42  1  0.70844326  0.03401764  0.24665467  1
  V  V43  1  0.89721193  0.73438597  0.64524884  1
  V  V44  1  0.74812769  0.75923926  0.47030432  1
  V  V45  1  0.23391733  0.49386751  0.29374400  1
  V  V46  1  0.12729153  0.21178660  0.89976372  1
  V  V47  1  0.56143887  0.52699605  -0.01309314  1
  V  V48  1  0.74678567  0.27590952  -0.01427205  1
  V  V49  1  0.03876053  0.58692955  0.64005885  1
  V  V50  1  0.53014719  -0.05435916  0.52359911  1
  Zn  Zn51  1  0.55359485  0.08723949  0.26641268  1
  Zn  Zn52  1  0.70008657  0.69368874  0.64787461  1
  Zn  Zn53  1  0.21965147  0.67785528  0.62428115  1
  Zn  Zn54  1  0.33987878  0.60343425  0.52812737  1
  Zn  Zn55  1  0.99947720  0.95219230  0.72662601  1
  Zn  Zn56  1  0.33422281  0.21463428  0.34708228  1
  Zn  Zn57  1  0.86633214  0.29204104  0.81292350  1
  Zn  Zn58  1  0.05747077  0.80327494  0.53452624  1
  Zn  Zn59  1  0.29293759  0.78702498  0.77020931  1
  Zn  Zn60  1  0.41858454  0.86058215  0.21317484  1
  Zn  Zn61  1  0.80373544  0.63366447  0.11942906  1
  Zn  Zn62  1  0.82290261  0.09885766  0.06143090  1
  Zn  Zn63  1  0.12897392  0.51459471  0.80780156  1
  Zn  Zn64  1  0.70502742  0.45482527  1.08309253  1
  Zn  Zn65  1  0.55300455  0.63151542  0.80446514  1
  Zn  Zn66  1  0.76601341  0.91377249  0.89541438  1
  Zn  Zn67  1  0.49280747  0.91396847  0.69726549  1
  Zn  Zn68  1  0.63759768  0.21013539  0.15612624  1
  Zn  Zn69  1  0.94145186  0.45626757  0.57508143  1
  Zn  Zn70  1  0.04751240  0.57127852  0.34861469  1
  Zn  Zn71  1  0.94760445  0.72223046  0.41699227  1
  Zn  Zn72  1  0.00250817  0.16813689  0.36586544  1
  Zn  Zn73  1  0.56657113  0.79571139  0.56028340  1
  Zn  Zn74  1  0.81760035  0.34152285  0.31554675  1
  Zn  Zn75  1  0.16978711  0.68978653  0.25695261  1
  Zn  Zn76  1  0.08596876  0.02596664  0.84349624  1
  Zn  Zn77  1  0.54262847  0.30811273  0.56723855  1
  Zn  Zn78  1  0.92986416  0.46107831  0.22965262  1
  Zn  Zn79  1  0.33942678  -0.01750895  0.58005155  1
  Zn  Zn80  1  0.89047257  0.98094826  0.20691682  1
  Zn  Zn81  1  0.46221519  0.20467210  0.94844632  1
  Zn  Zn82  1  0.65460344  0.41895319  0.40351362  1
  Zn  Zn83  1  0.22028166  0.36793422  0.94551621  1
  Zn  Zn84  1  0.47582927  0.43330744  0.69520886  1
  Zn  Zn85  1  0.94235747  0.19592777  0.96655898  1
  Zn  Zn86  1  0.67313282  0.93852768  0.41594059  1
  Zn  Zn87  1  0.26798841  0.42789368  0.10344327  1
  Zn  Zn88  1  0.18258413  0.30167843  0.24161570  1
  Zn  Zn89  1  0.81569369  0.60221628  0.55065041  1
  Zn  Zn90  1  0.41588031  0.58695501  0.91927710  1
  Zn  Zn91  1  0.08379777  0.73074147  0.01743828  1
  Zn  Zn92  1  0.13048738  0.29160200  0.53133941  1
  Zn  Zn93  1  0.55990100  0.52486761  0.31989241  1
  Zn  Zn94  1  0.19908313  1.00668455  0.48738918  1
  Zn  Zn95  1  0.11849457  0.48196154  0.49459621  1
  Zn  Zn96  1  0.73491254  0.74929949  0.27503620  1
  Zn  Zn97  1  0.17809668  0.17218823  0.75595555  1
  Zn  Zn98  1  0.33186205  0.26706762  0.86634793  1
  Zn  Zn99  1  0.69549262  0.77605954  0.10135897  1
  Zn  Zn100  1  0.14722775  0.11633211  0.13588880  1
  Zn  Zn101  1  0.93281933  0.26527299  0.54040403  1
  O  O102  1  0.05501079  0.18155230  0.15549395  1
  O  O103  1  0.18006450  0.12847199  0.65832495  1
  O  O104  1  0.08340107  0.62654952  0.21854289  1
  O  O105  1  0.11217056  0.64832395  0.62697757  1
  O  O106  1  0.56962402  0.16667820  0.06947885  1
  O  O107  1  0.57354305  0.09663442  0.58269655  1
  O  O108  1  0.48945055  0.69741755  0.19399694  1
  O  O109  1  0.61400463  0.62758109  0.65638633  1
  O  O110  1  0.37678642  0.37937824  0.42842186  1
  O  O111  1  0.29904469  0.37251789  0.86227588  1
  O  O112  1  0.37236083  0.96606959  0.32800600  1
  O  O113  1  0.42696827  0.93203177  0.98878310  1
  O  O114  1  0.86086820  0.40883233  0.39092670  1
  O  O115  1  0.93942862  0.36987454  0.82619183  1
  O  O116  1  0.93125051  0.88145184  0.34118199  1
  O  O117  1  0.93603575  0.91269679  0.92806630  1
  O  O118  1  0.18571118  0.03464501  0.38652411  1
  O  O119  1  0.36156199  0.02134228  0.85376678  1
  O  O120  1  0.22657811  0.49113774  0.39226961  1
  O  O121  1  0.23558952  0.49736990  0.79975053  1
  O  O122  1  0.71027103  0.01509131  0.34093974  1
  O  O123  1  0.81641167  0.00524978  0.86513234  1
  O  O124  1  0.73434168  0.50839012  0.40069030  1
  O  O125  1  0.79038639  0.49789574  0.90267551  1
  O  O126  1  0.23492138  0.47982154  0.19368592  1
  O  O127  1  0.18715641  0.41349230  0.63521984  1
  O  O128  1  0.25801429  0.90595127  0.07678766  1
  O  O129  1  0.26818336  0.98748887  0.66841469  1
  O  O130  1  0.76799028  0.52617562  0.14439229  1
  O  O131  1  0.75232229  0.48226858  0.63405774  1
  O  O132  1  0.73169310  1.03377509  0.07046968  1
  O  O133  1  0.72680141  0.94326943  0.62577168  1
  O  O134  1  -0.00049755  0.40751520  0.30990639  1
  O  O135  1  -0.07795648  0.28147844  0.66686509  1
  O  O136  1  -0.09460326  0.88442829  0.26921531  1
  O  O137  1  0.00636674  0.85862926  0.78977502  1
  O  O138  1  0.51795097  0.44765184  0.24591330  1
  O  O139  1  0.52579925  0.37093451  0.78485119  1
  O  O140  1  0.52465646  0.86385993  0.20965534  1
  O  O141  1  0.56074550  0.86513265  0.77004417  1
  O  O142  1  0.46879966  0.14306587  0.22364092  1
  O  O143  1  0.51671295  0.18526621  0.71798239  1
  O  O144  1  0.45482661  0.58567529  0.29910762  1
  O  O145  1  0.48462972  0.59878336  0.72633832  1
  O  O146  1  0.95665640  0.20143730  0.26594005  1
  O  O147  1  1.01417393  0.12989385  0.67443232  1
  O  O148  1  0.96928094  0.65073057  0.33041647  1
  O  O149  1  1.04775719  0.54301421  0.73177943  1
  O  O150  1  0.42457895  0.31145876  -0.04376271  1
  O  O151  1  0.35716613  0.19595425  0.45094250  1
  O  O152  1  0.36343182  0.67328539  -0.03673356  1
  O  O153  1  0.35493404  0.76669654  0.52764091  1
  O  O154  1  0.85010546  0.25454062  0.00724235  1
  O  O155  1  0.84870560  0.21362505  0.50640807  1
  O  O156  1  0.92381051  0.80922099  0.04453662  1
  O  O157  1  0.84658566  0.74809947  0.46700044  1
  O  O158  1  0.21833333  0.22757848  0.51576569  1
  O  O159  1  0.13939952  0.18288626  0.98588880  1
  O  O160  1  0.17369302  0.77366371  0.51963376  1
  O  O161  1  0.17052826  0.66185070  0.98983062  1
  O  O162  1  0.56642901  0.22880703  0.50600912  1
  O  O163  1  0.66192912  0.29603929  0.94044782  1
  O  O164  1  0.67618958  0.76319170  0.55568258  1
  O  O165  1  0.53254665  0.82988097  1.01147940  1
  O  O166  1  0.53123325  0.22292687  0.03872911  1
  O  O167  1  0.49660281  0.31440976  0.67152205  1
  O  O168  1  0.50285041  0.71538593  0.12782742  1
  O  O169  1  0.49775411  0.72678950  0.61162799  1
  O  O170  1  0.99736501  0.30426977  0.08271946  1
  O  O171  1  1.03849142  0.25260827  0.57677834  1
  O  O172  1  1.01743322  0.66785370  0.08019777  1
  O  O173  1  0.97623670  0.77940362  0.60697650  1
  O  O174  1  -0.02039858  0.28677454  0.37959575  1
  O  O175  1  0.01841633  0.24994818  0.90543983  1
  O  O176  1  -0.02194925  0.82379205  0.35606082  1
  O  O177  1  0.04572124  0.78303972  0.93023783  1
  O  O178  1  0.40133644  0.27238836  0.27883252  1
  O  O179  1  0.53237514  0.23050398  0.85745889  1
  O  O180  1  0.43176683  0.78921083  0.36902006  1
  O  O181  1  0.40308983  0.89355821  0.93782876  1
  O  O182  1  0.28451070  0.07416144  0.52531025  1
  O  O183  1  0.24702915  0.06697523  0.94941399  1
  O  O184  1  0.23571459  0.63763120  0.51730931  1
  O  O185  1  0.25940320  0.57690749  0.93478111  1
  O  O186  1  0.69644605  0.14817349  0.48586834  1
  O  O187  1  0.73783715  0.17441640  0.97701206  1
  O  O188  1  0.72949979  0.64532030  0.48592328  1
  O  O189  1  0.84335483  0.66325422  0.91919690  1
  O  O190  1  0.27296559  0.28159043  0.00276023  1
  O  O191  1  0.31816406  0.34143567  0.43390291  1
  O  O192  1  0.26795701  0.76250989  0.03667168  1
  O  O193  1  0.26643938  0.91463658  0.52284743  1
  O  O194  1  0.75568056  0.36714728  0.02264856  1
  O  O195  1  0.71972853  0.33490940  0.45638052  1
  O  O196  1  0.79633701  0.90308076  0.00025423  1
  O  O197  1  0.73599767  0.86579869  0.48511892  1
  O  O198  1  0.12910477  0.51021820  0.30005518  1
  O  O199  1  0.21680104  0.47740136  0.63919418  1
  O  O200  1  0.07785961  0.94763987  0.30278334  1
  O  O201  1  0.10958034  0.99653190  0.73390559  1
  O  O202  1  0.65368161  0.52597387  0.25546958  1
  O  O203  1  0.67457805  0.54358841  0.80614182  1
  O  O204  1  0.59718944  0.99336174  0.23370557  1
  O  O205  1  0.66610887  1.04371242  0.76911127  1
  O  O206  1  0.36267201  -0.04753700  0.25162740  1
  O  O207  1  0.41177306  -0.01126152  0.71417393  1
  O  O208  1  0.33067241  0.49802475  0.30412825  1
  O  O209  1  0.37697444  0.44454462  0.74631568  1
  O  O210  1  0.80216222  0.05102210  0.22341728  1
  O  O211  1  0.96583885  0.01816860  0.81235479  1
  O  O212  1  0.85877706  0.52625736  0.28899420  1
  O  O213  1  0.92687673  0.44847955  0.68161437  1
  O  O214  1  0.08590627  0.38560704  0.44006171  1
  O  O215  1  0.13809313  0.32037306  0.89241766  1
  O  O216  1  0.10647129  0.89928518  0.34525885  1
  O  O217  1  0.10150556  0.92472545  0.89180744  1
  O  O218  1  0.63084893  0.36199338  0.31262013  1
  O  O219  1  0.74041315  0.40167022  0.76998660  1
  O  O220  1  0.62862082  0.87626772  0.33157857  1
  O  O221  1  0.70122716  0.84918757  0.84553753  1
  O  O222  1  0.24144946  0.17079473  0.11632709  1
  O  O223  1  0.38797577  0.18587516  0.59509792  1
  O  O224  1  0.34369306  0.57399609  0.10077576  1
  O  O225  1  0.39586165  0.63837476  0.61790303  1
  O  O226  1  0.86680945  0.16251803  0.13758166  1
  O  O227  1  0.82466173  0.06975180  0.63026050  1
  O  O228  1  0.88314119  0.64186656  0.19174570  1
  O  O229  1  0.95067086  0.63352656  0.63071400  1
  O  O230  1  0.24060223  0.32342726  0.14761002  1
  O  O231  1  0.32283940  0.18972744  0.63478271  1
  O  O232  1  0.24739339  0.73184512  0.18721960  1
  O  O233  1  0.28170639  0.76606887  0.65597543  1
  O  O234  1  0.70806164  0.25133727  0.07805021  1
  O  O235  1  0.72496491  0.25784708  0.58721793  1
  O  O236  1  0.73928386  0.69216012  0.06141484  1
  O  O237  1  0.80677458  0.67091702  0.62900062  1
  O  O238  1  0.22618910  0.22461333  0.30778384  1
  O  O239  1  0.23449082  0.20383224  0.84914418  1
  O  O240  1  0.27124099  0.82139625  0.40549341  1
  O  O241  1  0.25380231  0.72993204  0.86040507  1
  O  O242  1  0.74984545  0.28677113  0.39794406  1
  O  O243  1  0.79106868  0.29578209  0.89539404  1
  O  O244  1  0.71071084  0.74743444  0.38380316  1
  O  O245  1  0.78937932  0.66403908  0.87580974  1
  O  O246  1  -0.02307659  0.13526890  0.05569239  1
  O  O247  1  -0.00737594  0.07361492  0.49199609  1
  O  O248  1  0.12557757  0.55320708  0.08060352  1
  O  O249  1  0.04931687  0.71622734  0.46581669  1
  O  O250  1  0.51961225  0.10046676  -0.04555366  1
  O  O251  1  0.50723651  0.11436005  0.42594084  1
  O  O252  1  0.38847473  0.58865676  0.15173001  1
  O  O253  1  0.53710676  0.59899199  0.52606667  1
  O  O254  1  0.49363945  0.39912740  0.53065902  1
  O  O255  1  0.52131501  0.43025302  0.99608200  1
  O  O256  1  0.52671345  0.86184726  0.47602575  1
  O  O257  1  0.60390717  0.97814177  0.95403284  1
  O  O258  1  0.94871317  0.37167205  0.50673149  1
  O  O259  1  1.01547403  0.40327250  0.95698255  1
  O  O260  1  1.04234521  0.90575227  0.50005091  1
  O  O261  1  0.98851656  0.94417300  1.07076159  1
  O  O262  1  0.56178152  0.48213773  0.42615906  1
  O  O263  1  0.52883658  0.57746334  0.89994492  1
  O  O264  1  0.44068018  0.97155010  0.35081921  1
  O  O265  1  0.54724570  1.01452588  0.86544043  1
  O  O266  1  0.97146357  0.50079992  0.40909237  1
  O  O267  1  1.06419692  0.42475365  0.80865819  1
  O  O268  1  0.95126621  1.09189661  0.43043217  1
  O  O269  1  1.02230084  1.04780472  0.93984571  1
  O  O270  1  -0.02788443  0.05318413  0.19614394  1
  O  O271  1  -0.04098652  -0.03330724  0.62995448  1
  O  O272  1  -0.01762903  0.52078246  0.15528445  1
  O  O273  1  0.04151173  0.51291350  0.57435972  1
  O  O274  1  0.44712607  0.03113380  0.10399069  1
  O  O275  1  0.56507749  -0.09488712  0.61076241  1
  O  O276  1  0.52283801  0.57355720  0.05639352  1
  O  O277  1  0.49874009  0.50845556  0.61854782  1
  O  O278  1  0.22390668  0.39326452  0.29228653  1
  O  O279  1  0.32999030  0.34245156  0.60312269  1
  O  O280  1  0.19421707  0.86648208  0.19221129  1
  O  O281  1  0.30656918  0.89290144  0.79050693  1
  O  O282  1  0.76253980  0.42006362  0.25784941  1
  O  O283  1  0.78074680  0.34936406  0.74262014  1
  O  O284  1  0.71684840  0.93740196  0.19848953  1
  O  O285  1  0.69160142  1.09057079  0.72340786  1
  O  O286  1  0.15517761  0.08000440  0.24049735  1
  O  O287  1  0.25412387  0.06911468  0.78495702  1
  O  O288  1  0.23485302  0.59515298  0.27208793  1
  O  O289  1  0.28006540  0.61398179  0.70085965  1
  O  O290  1  0.65799765  0.12735759  0.22602465  1
  O  O291  1  0.84661026  0.10888827  0.68093420  1
  O  O292  1  0.75320648  0.62620025  0.28807519  1
  O  O293  1  0.73145563  0.55807546  0.76702068  1
  O  O294  1  0.29084483  0.12209110  0.31091309  1
  O  O295  1  0.36773282  0.16630277  0.90940347  1
  O  O296  1  0.42253410  0.63348638  0.33976054  1
  O  O297  1  0.36617460  0.57471060  0.81891419  1
  O  O298  1  0.80231234  0.16468497  0.33178976  1
  O  O299  1  0.89446996  0.13738069  0.88679377  1
  O  O300  1  0.84409744  0.60814780  0.39709319  1
  O  O301  1  0.91598410  0.52454118  0.81273315  1
  O  O302  1  -0.00829445  0.37286602  0.09234580  1
  O  O303  1  0.16765388  0.39576931  0.55435289  1
  O  O304  1  0.15210547  0.79416265  0.07973487  1
  O  O305  1  0.11383856  0.73527297  0.76651590  1
  O  O306  1  0.64105488  0.39838953  0.15296193  1
  O  O307  1  0.63896835  0.37514044  0.61629185  1
  O  O308  1  0.67069533  0.88089552  0.07385701  1
  O  O309  1  0.69035066  0.80245377  0.68958315  1
  O  O310  1  0.07267591  0.30834584  0.22978497  1
  O  O311  1  0.09218980  0.25128969  0.73276712  1
  O  O312  1  0.10366336  0.77366519  0.24317457  1
  O  O313  1  0.09332043  0.68481125  0.81081322  1
  O  O314  1  0.54575418  0.28002548  0.19475062  1
  O  O315  1  0.62230275  0.26937607  0.75568876  1
  O  O316  1  0.66677042  0.79550333  0.20656047  1
  O  O317  1  0.61744818  0.71713029  0.80515877  1
  O  O318  1  0.38923028  0.24293964  0.12329775  1
  O  O319  1  0.42268286  0.27049603  0.79122175  1
  O  O320  1  0.39785203  0.78247864  0.30820806  1
  O  O321  1  0.38683480  0.72009488  0.74542273  1
  O  O322  1  0.79416923  0.21556438  0.28274278  1
  O  O323  1  0.91354278  0.23198418  0.73267383  1
  O  O324  1  0.84385867  0.73971679  0.29872812  1
  O  O325  1  0.89959184  0.74231090  0.73559888  1
  O  O326  1  0.40652071  0.52759382  0.48559533  1
  O  O327  1  0.38709612  0.47298507  0.91904288  1
  O  O328  1  0.44060826  0.98536657  0.53905126  1
  O  O329  1  0.39906756  1.06917702  1.06808720  1
  O  O330  1  0.86025617  0.51242370  0.51316335  1
  O  O331  1  0.84045350  0.49618609  0.95123379  1
  O  O332  1  0.89015151  0.95223083  0.49247106  1
  O  O333  1  0.88892233  1.03160261  1.00096607  1
  O  O334  1  0.10535890  0.04192076  0.07084400  1
  O  O335  1  0.13526420  0.00717245  0.57784887  1
  O  O336  1  0.21086405  0.45435603  0.01047511  1
  O  O337  1  0.11129975  0.58050273  0.44312411  1
  O  O338  1  0.57000952  0.00545007  0.00732541  1
  O  O339  1  0.60004166  0.00143170  0.47351204  1
  O  O340  1  0.65824410  0.51345867  0.00099574  1
  O  O341  1  0.62275303  0.42795369  0.65971542  1
  O  O342  1  0.37344638  0.41181607  0.06901893  1
  O  O343  1  0.34460880  0.41051238  0.59596470  1
  O  O344  1  0.34187146  0.81942609  0.14987816  1
  O  O345  1  0.41314948  0.84587238  0.64652578  1
  O  O346  1  0.90279558  0.34609805  0.22924041  1
  O  O347  1  0.77050328  0.42105728  0.60640656  1
  O  O348  1  0.84730235  0.92123160  0.12537425  1
  O  O349  1  0.82651349  0.82124523  0.61462026  1
  O  O350  1  0.10954132  0.16886328  0.36464350  1
  O  O351  1  0.10772234  0.13341990  0.84249816  1
  O  O352  1  0.17789778  0.69848491  0.37293268  1
  O  O353  1  0.10728939  0.53980730  0.91588216  1
  O  O354  1  0.56252269  0.12851020  0.37383579  1
  O  O355  1  0.49551984  0.05761696  0.89494483  1
  O  O356  1  0.62157034  0.61626784  0.37258446  1
  O  O357  1  0.50719762  0.79533535  0.95826466  1
