# generated using pymatgen
data_V51Zn51O256
_symmetry_space_group_name_H-M   'P 1'
_cell_length_a   17.41142071
_cell_length_b   17.33706011
_cell_length_c   17.43755579
_cell_angle_alpha   88.85861150
_cell_angle_beta   90.31273672
_cell_angle_gamma   89.79033763
_symmetry_Int_Tables_number   1
_chemical_formula_structural   V51Zn51O256
_chemical_formula_sum   'V51 Zn51 O256'
_cell_volume   5262.59005892
_cell_formula_units_Z   1
loop_
 _symmetry_equiv_pos_site_id
 _symmetry_equiv_pos_as_xyz
  1  'x, y, z'
loop_
 _atom_site_type_symbol
 _atom_site_label
 _atom_site_symmetry_multiplicity
 _atom_site_fract_x
 _atom_site_fract_y
 _atom_site_fract_z
 _atom_site_occupancy
  V  V0  1  0.41387016  0.50210582  0.36521366  1
  V  V1  1  -0.00159347  0.77303017  0.74652700  1
  V  V2  1  0.12653927  0.33814227  0.72991014  1
  V  V3  1  0.02724714  0.59011816  0.57989013  1
  V  V4  1  0.84989968  0.43112986  0.00620025  1
  V  V5  1  0.38277534  0.88443360  -0.02153748  1
  V  V6  1  0.12868700  0.13216613  0.02643910  1
  V  V7  1  0.85953344  0.35531138  0.50604103  1
  V  V8  1  0.86671824  0.00443885  0.32049513  1
  V  V9  1  0.87846218  0.83289821  -0.00419129  1
  V  V10  1  0.51252134  0.60432119  0.11569464  1
  V  V11  1  0.85761022  0.70060031  0.62829824  1
  V  V12  1  0.24006112  0.26485801  0.01667484  1
  V  V13  1  0.73742933  0.61188099  0.35701416  1
  V  V14  1  0.25324531  0.37082184  0.15042041  1
  V  V15  1  0.51445067  0.63809834  0.62343499  1
  V  V16  1  -0.02579487  0.04627696  0.02466428  1
  V  V17  1  0.01117440  0.90781441  0.88609683  1
  V  V18  1  0.00885702  0.51936772  -0.01353279  1
  V  V19  1  0.37959074  0.37459936  0.00013382  1
  V  V20  1  0.74121433  0.27096263  -0.01294427  1
  V  V21  1  0.23635649  0.86912440  0.14406725  1
  V  V22  1  0.88172680  0.23954039  0.66439611  1
  V  V23  1  0.22624617  0.14054372  0.86708669  1
  V  V24  1  0.02091377  0.07565091  0.49699919  1
  V  V25  1  0.78433433  0.88576200  0.64826651  1
  V  V26  1  0.51848589  0.76214247  0.22251745  1
  V  V27  1  0.64870461  -0.00072326  0.61070652  1
  V  V28  1  0.02179269  0.12506977  0.66246832  1
  V  V29  1  0.49612563  0.10389283  0.11954371  1
  V  V30  1  0.49905623  0.85811309  0.37429749  1
  V  V31  1  0.13409061  0.51221153  0.15105295  1
  V  V32  1  0.65153183  0.75796540  0.38641477  1
  V  V33  1  0.01267903  0.46389285  0.47535814  1
  V  V34  1  0.15337579  0.63589536  0.00850664  1
  V  V35  1  0.74667073  0.09920343  0.39167656  1
  V  V36  1  0.62756360  0.61555011  -0.01650241  1
  V  V37  1  -0.03230364  0.85156280  0.40566098  1
  V  V38  1  0.27169935  0.54786212  0.24351501  1
  V  V39  1  0.63843821  0.25118785  0.40773447  1
  V  V40  1  0.75061554  0.83449078  0.13785335  1
  V  V41  1  0.86020123  0.49212795  0.37038537  1
  V  V42  1  0.31137963  0.65138076  0.38637375  1
  V  V43  1  0.00866640  0.74130157  0.25380278  1
  V  V44  1  0.47338254  -0.00852730  0.47174660  1
  V  V45  1  0.12544117  0.00191668  0.14063197  1
  V  V46  1  0.74035642  0.74272121  -0.05779900  1
  V  V47  1  -0.00328288  0.26575020  0.24558626  1
  V  V48  1  0.08601001  0.26944718  0.90389100  1
  V  V49  1  -0.00002086  0.62639149  0.14056915  1
  V  V50  1  0.27238766  0.00630381  0.26161784  1
  Zn  Zn51  1  0.70457441  0.42294466  0.44586628  1
  Zn  Zn52  1  0.83082036  0.52997739  0.57503279  1
  Zn  Zn53  1  0.26956430  0.35015654  0.84696411  1
  Zn  Zn54  1  0.35015207  0.32053128  0.31784429  1
  Zn  Zn55  1  0.18301980  0.96176642  0.94071750  1
  Zn  Zn56  1  0.52304433  0.63706544  0.39681216  1
  Zn  Zn57  1  0.33579882  0.80712315  0.28941212  1
  Zn  Zn58  1  0.17849638  0.45371232  0.94875086  1
  Zn  Zn59  1  0.70462722  0.93063948  0.44843514  1
  Zn  Zn60  1  0.43788161  0.45689293  0.70493468  1
  Zn  Zn61  1  0.92097423  0.92944404  0.15633554  1
  Zn  Zn62  1  0.07223238  0.06489597  0.84224972  1
  Zn  Zn63  1  0.80410303  0.11019997  0.09353555  1
  Zn  Zn64  1  0.65956678  0.42683196  0.98543904  1
  Zn  Zn65  1  0.18614313  0.18376903  0.20573696  1
  Zn  Zn66  1  0.05596032  0.08087179  0.30855376  1
  Zn  Zn67  1  0.13377787  0.95221485  0.37362727  1
  Zn  Zn68  1  0.07277860  0.80627762  0.06862244  1
  Zn  Zn69  1  0.43379794  0.68491987  0.97410383  1
  Zn  Zn70  1  0.58763837  0.82123050  0.03798424  1
  Zn  Zn71  1  0.39113670  0.10178437  0.59664786  1
  Zn  Zn72  1  0.72204325  0.76702210  0.75147892  1
  Zn  Zn73  1  0.55565577  0.13856878  0.53742834  1
  Zn  Zn74  1  0.13772876  0.69968192  0.67193776  1
  Zn  Zn75  1  0.92111389  0.66874354  0.43845443  1
  Zn  Zn76  1  0.38641847  0.17009295  0.96321816  1
  Zn  Zn77  1  0.84339934  0.62103158  0.02743402  1
  Zn  Zn78  1  0.56667749  0.04190437  0.30941225  1
  Zn  Zn79  1  0.46383563  0.94865849  0.65771646  1
  Zn  Zn80  1  0.55902645  -0.13727639  0.74770208  1
  Zn  Zn81  1  0.55215014  0.69714035  0.82220101  1
  Zn  Zn82  1  0.32518661  0.55607760  0.06343435  1
  Zn  Zn83  1  0.37006572  0.58918545  0.53412525  1
  Zn  Zn84  1  0.58063067  0.81402191  0.53749057  1
  Zn  Zn85  1  0.06771470  0.34246005  0.07193071  1
  Zn  Zn86  1  0.71188701  0.17821095  0.57666281  1
  Zn  Zn87  1  0.55478836  0.29938021  0.06708153  1
  Zn  Zn88  1  -0.01360208  0.91607096  0.60302274  1
  Zn  Zn89  1  0.04430787  0.27212265  0.55377073  1
  Zn  Zn90  1  0.45546173  0.18042800  0.38575543  1
  Zn  Zn91  1  0.99378177  0.39031340  0.64007312  1
  Zn  Zn92  1  0.79549212  0.91033951  0.85548633  1
  Zn  Zn93  1  0.41721580  0.45008240  0.17241546  1
  Zn  Zn94  1  0.81560409  0.80811444  0.31067877  1
  Zn  Zn95  1  0.06884400  0.61427594  0.83776983  1
  Zn  Zn96  1  0.88742875  0.29262843  0.86796861  1
  Zn  Zn97  1  0.67001961  0.67180955  0.19255448  1
  Zn  Zn98  1  0.86936971  0.14981207  0.51951078  1
  Zn  Zn99  1  0.82544982  0.27682996  0.35950288  1
  Zn  Zn100  1  0.93093682  0.46115918  0.19057247  1
  Zn  Zn101  1  0.68031809  0.20037501  0.14744801  1
  O  O102  1  0.12521680  0.11343110  0.13306383  1
  O  O103  1  0.11428937  0.13372406  0.64893568  1
  O  O104  1  0.13319771  0.61066256  0.12584200  1
  O  O105  1  0.11710415  0.62978223  0.59533276  1
  O  O106  1  0.59881265  0.12815347  0.11620069  1
  O  O107  1  0.63286522  0.10220450  0.61612211  1
  O  O108  1  0.62070464  0.61268345  0.11260147  1
  O  O109  1  0.60031811  0.59643515  0.60221083  1
  O  O110  1  0.40819429  0.40275110  0.35868591  1
  O  O111  1  0.36723223  0.35234683  0.90436098  1
  O  O112  1  0.40434527  0.84623193  0.37203573  1
  O  O113  1  0.38854777  0.86130232  0.88208079  1
  O  O114  1  0.84210658  0.38471425  0.39669434  1
  O  O115  1  0.88680840  0.38703071  0.92577734  1
  O  O116  1  0.88072158  0.89394721  0.36310660  1
  O  O117  1  0.89670790  0.89932674  0.91230974  1
  O  O118  1  0.23083489  -0.01658794  0.35112857  1
  O  O119  1  0.18428363  0.04061499  0.86041468  1
  O  O120  1  0.26821833  0.56467876  0.34724262  1
  O  O121  1  0.23781914  0.45529798  0.86050610  1
  O  O122  1  0.77698068  -0.00438456  0.39468476  1
  O  O123  1  0.72577446  -0.00514027  0.81687298  1
  O  O124  1  0.74612556  0.50768075  0.38851565  1
  O  O125  1  0.70240488  0.35984039  0.77016522  1
  O  O126  1  0.25825734  0.49318334  0.14263872  1
  O  O127  1  0.30444417  0.51718376  0.61226099  1
  O  O128  1  0.22748711  0.99147768  0.15361336  1
  O  O129  1  0.28557009  1.03381470  0.59711588  1
  O  O130  1  0.66527837  0.45919267  0.15799637  1
  O  O131  1  0.79769758  0.45099048  0.67492703  1
  O  O132  1  0.72833372  1.00709521  0.06352949  1
  O  O133  1  0.74591948  0.98714502  0.63990770  1
  O  O134  1  -0.01727414  0.36906359  0.24417486  1
  O  O135  1  0.02660013  0.40299701  0.75096294  1
  O  O136  1  -0.04316120  0.84198192  0.22871247  1
  O  O137  1  0.03597333  0.95353256  0.80553310  1
  O  O138  1  0.47946727  0.34663128  0.22554907  1
  O  O139  1  0.39166104  0.34991646  0.74239821  1
  O  O140  1  0.52737921  0.85640101  0.27779182  1
  O  O141  1  0.45297699  0.86928424  0.72606833  1
  O  O142  1  0.51637006  0.09495361  0.22024727  1
  O  O143  1  0.48696655  0.15001609  0.83967808  1
  O  O144  1  0.50187938  0.64973058  0.20135398  1
  O  O145  1  0.52814939  0.64789898  0.72134455  1
  O  O146  1  0.99494767  0.16555450  0.23442123  1
  O  O147  1  1.01043086  0.10175380  0.75740204  1
  O  O148  1  0.99791483  0.63813732  0.24868037  1
  O  O149  1  1.06742103  0.69313988  0.75862601  1
  O  O150  1  0.34235540  0.25464071  0.01912576  1
  O  O151  1  0.42448969  0.23882071  0.55116510  1
  O  O152  1  0.37190667  0.78112459  -0.00431343  1
  O  O153  1  0.34487306  0.84298176  0.59151433  1
  O  O154  1  0.80200931  0.32720876  0.03846639  1
  O  O155  1  0.86939509  0.25793765  0.47194887  1
  O  O156  1  0.85155156  0.73394831  -0.01222649  1
  O  O157  1  0.87783373  0.71774234  0.53438561  1
  O  O158  1  0.17903241  0.30310134  0.46300086  1
  O  O159  1  0.11766571  0.25382621  1.02035606  1
  O  O160  1  0.13733384  0.73185078  0.45119473  1
  O  O161  1  0.13330551  0.73209771  1.01879777  1
  O  O162  1  0.63016490  0.22146046  0.50568407  1
  O  O163  1  0.64591738  0.31895523  0.98519523  1
  O  O164  1  0.65657801  0.74906635  0.48399675  1
  O  O165  1  0.64435360  0.76336411  0.96227541  1
  O  O166  1  0.48789502  0.21070343  0.11554286  1
  O  O167  1  0.47385824  0.19601782  0.60115912  1
  O  O168  1  0.53885878  0.78742576  0.13097967  1
  O  O169  1  0.53326186  0.73640263  0.60656497  1
  O  O170  1  0.98364093  0.28114824  0.14190839  1
  O  O171  1  0.99684994  0.23139119  0.65502684  1
  O  O172  1  1.02377893  0.73051166  0.14471876  1
  O  O173  1  0.95997056  0.63223679  0.63425824  1
  O  O174  1  0.02675630  0.26772515  0.34051460  1
  O  O175  1  -0.01009117  0.25848231  0.90902304  1
  O  O176  1  -0.03561323  0.75227657  0.37365882  1
  O  O177  1  -0.00870065  0.81207332  0.83709673  1
  O  O178  1  0.55791023  0.22148205  0.36082701  1
  O  O179  1  0.46850070  0.20546861  0.88082236  1
  O  O180  1  0.53757455  0.75811908  0.39633061  1
  O  O181  1  0.45615613  0.70321098  0.87054172  1
  O  O182  1  0.35859477  0.19863470  0.54007656  1
  O  O183  1  0.22687659  0.15338418  1.02473019  1
  O  O184  1  0.29614347  0.65616221  0.48413052  1
  O  O185  1  0.24976629  0.62450582  1.02142798  1
  O  O186  1  0.76328382  0.11941509  0.49097289  1
  O  O187  1  0.73172334  0.18214888  1.03532192  1
  O  O188  1  0.70105701  0.54172957  0.56502830  1
  O  O189  1  0.73439448  0.64290331  0.99337762  1
  O  O190  1  0.24443432  0.36771511  0.01852246  1
  O  O191  1  0.32469451  0.37242702  0.52974556  1
  O  O192  1  0.28182259  0.90719389  -0.04412489  1
  O  O193  1  0.18615466  0.94163174  0.53085790  1
  O  O194  1  0.76125524  0.46889493  -0.01620910  1
  O  O195  1  0.76521400  0.36598749  0.52864190  1
  O  O196  1  0.77053712  0.84469658  -0.05243314  1
  O  O197  1  0.74187386  0.86615832  0.54604631  1
  O  O198  1  0.16429676  0.51619340  0.24617388  1
  O  O199  1  0.10002565  0.43909863  0.75346950  1
  O  O200  1  0.09638785  1.00128500  0.23341820  1
  O  O201  1  0.28080143  0.85602435  0.74075792  1
  O  O202  1  0.64538424  0.45912565  0.22500202  1
  O  O203  1  0.54760792  0.42389554  0.74773725  1
  O  O204  1  0.63119497  0.96902035  0.23613757  1
  O  O205  1  0.58611550  0.95358727  0.67549923  1
  O  O206  1  0.36501339  -0.00452755  0.27286253  1
  O  O207  1  0.41447992  0.04448420  0.74875050  1
  O  O208  1  0.37085943  0.50905662  0.25624861  1
  O  O209  1  0.32536875  0.48069254  0.67331473  1
  O  O210  1  0.85316326  -0.01338263  0.22524745  1
  O  O211  1  0.84685283  0.08899977  0.78065570  1
  O  O212  1  0.86162635  0.48750744  0.27421217  1
  O  O213  1  0.83402357  0.45155538  0.73657955  1
  O  O214  1  0.21648080  0.31507800  0.40417235  1
  O  O215  1  0.10658202  0.36415735  0.91453795  1
  O  O216  1  0.04932671  0.88746752  0.36707812  1
  O  O217  1  0.09673817  0.88946217  0.93346359  1
  O  O218  1  0.63966840  0.34958977  0.40161512  1
  O  O219  1  0.56719919  0.43583119  0.81590469  1
  O  O220  1  0.66168240  0.85744980  0.37648478  1
  O  O221  1  0.60173897  0.92126956  0.90484634  1
  O  O222  1  0.40278947  0.08747649  0.14617299  1
  O  O223  1  0.38051184  0.10384797  0.72174195  1
  O  O224  1  0.41604474  0.62286304  0.06629725  1
  O  O225  1  0.40614078  0.64761639  0.62408779  1
  O  O226  1  0.76514215  0.14744947  0.18458298  1
  O  O227  1  0.90120627  0.14004388  0.62886695  1
  O  O228  1  0.90424733  0.62107241  0.12515509  1
  O  O229  1  0.81076328  0.61428126  0.63658762  1
  O  O230  1  0.22893078  0.26799455  0.13190752  1
  O  O231  1  0.28379278  0.34377742  0.57977345  1
  O  O232  1  0.25071820  0.77956896  0.12498631  1
  O  O233  1  0.17204629  0.78487612  0.48086480  1
  O  O234  1  0.62197323  0.28874959  0.15062013  1
  O  O235  1  0.78579893  0.23244259  0.63482464  1
  O  O236  1  0.74556468  0.73659101  0.13493016  1
  O  O237  1  0.77895005  0.76493732  0.65185454  1
  O  O238  1  0.21669173  0.15082518  0.48241066  1
  O  O239  1  0.22499443  0.25419770  0.90937885  1
  O  O240  1  0.33920941  0.81462015  0.52782136  1
  O  O241  1  0.28389426  0.68102292  0.83917271  1
  O  O242  1  0.73011542  0.21763297  0.36943636  1
  O  O243  1  0.78284456  0.25818479  0.89970790  1
  O  O244  1  0.75365741  0.72539641  0.36015038  1
  O  O245  1  0.75392366  0.72120563  0.84931111  1
  O  O246  1  0.01471647  0.13521386  0.03077040  1
  O  O247  1  0.04062679  0.17186410  0.50919383  1
  O  O248  1  0.02106643  0.61497124  0.03217229  1
  O  O249  1  -0.00000110  0.59501154  0.48338684  1
  O  O250  1  0.47202883  0.12009643  0.01910398  1
  O  O251  1  0.49312510  0.09878754  0.45368000  1
  O  O252  1  0.53885471  0.66172831  0.01571980  1
  O  O253  1  0.49714334  0.63217715  0.51653033  1
  O  O254  1  0.53655778  0.37991524  0.58696031  1
  O  O255  1  0.47514693  0.35387403  1.01873680  1
  O  O256  1  0.50800553  0.88537690  0.48947985  1
  O  O257  1  0.47791949  0.86497449  1.00846403  1
  O  O258  1  0.99318827  0.36303223  0.49680514  1
  O  O259  1  1.00817087  0.42528292  1.02267650  1
  O  O260  1  0.97459018  0.86487212  0.50178087  1
  O  O261  1  0.97320559  0.83021486  1.01939606  1
  O  O262  1  0.50882282  0.52535055  0.36436460  1
  O  O263  1  0.41998379  0.50279387  0.81368422  1
  O  O264  1  0.51485650  0.96944852  0.37342897  1
  O  O265  1  0.56096065  0.93972690  0.84783392  1
  O  O266  1  0.96229307  0.48469787  0.38450794  1
  O  O267  1  1.02120411  0.52874892  0.88805204  1
  O  O268  1  0.96021715  1.02703487  0.32292843  1
  O  O269  1  0.99635092  1.01175836  0.93186249  1
  O  O270  1  0.00612762  -0.01409697  0.10450144  1
  O  O271  1  0.01901418  0.02739221  0.59278932  1
  O  O272  1  0.02640110  0.51690549  0.16220951  1
  O  O273  1  0.02485210  0.48650201  0.58867267  1
  O  O274  1  0.52328872  0.01248302  0.09429813  1
  O  O275  1  0.46589425  0.02139977  0.57949717  1
  O  O276  1  0.50147838  0.50646644  0.13354744  1
  O  O277  1  0.48228694  0.53571451  0.64044298  1
  O  O278  1  0.26870958  0.36152789  0.24677769  1
  O  O279  1  0.22314516  0.34116939  0.74316682  1
  O  O280  1  0.26540732  0.88064632  0.23923009  1
  O  O281  1  0.21702735  0.82598588  0.72608610  1
  O  O282  1  0.75758337  0.34553697  0.26152589  1
  O  O283  1  0.67885240  0.35904315  0.70394079  1
  O  O284  1  0.75189601  0.85899378  0.23208186  1
  O  O285  1  0.77266138  0.87396828  0.75030470  1
  O  O286  1  0.25797499  0.10680067  0.24558167  1
  O  O287  1  0.23233411  0.16731395  0.77742627  1
  O  O288  1  0.27909678  0.63298812  0.20549778  1
  O  O289  1  0.27392904  0.65996263  0.77292318  1
  O  O290  1  0.68884151  0.00466628  0.21242061  1
  O  O291  1  0.64960572  0.09895413  0.82283376  1
  O  O292  1  0.73291208  0.60382803  0.26165697  1
  O  O293  1  0.68451592  0.53066329  0.72979693  1
  O  O294  1  0.25413356  0.14580708  0.42360363  1
  O  O295  1  0.31926833  0.11875322  0.89770835  1
  O  O296  1  0.40877041  0.63749374  0.36730962  1
  O  O297  1  0.35473117  0.52730514  0.83244844  1
  O  O298  1  0.82725329  0.10586755  0.32856125  1
  O  O299  1  0.85648342  0.10149014  0.84893240  1
  O  O300  1  0.84734811  0.60068119  0.38923212  1
  O  O301  1  0.71420019  0.54407671  0.79192959  1
  O  O302  1  0.14507222  0.40273952  0.13342870  1
  O  O303  1  0.10425421  0.33202047  0.63084540  1
  O  O304  1  0.13501840  0.88910622  0.11669691  1
  O  O305  1  0.19001764  0.90672703  0.59296684  1
  O  O306  1  0.54527110  0.34946321  0.25367383  1
  O  O307  1  0.58116767  0.24731803  0.75412769  1
  O  O308  1  0.67043962  0.87067518  0.09334440  1
  O  O309  1  0.67361122  0.86825399  0.59604094  1
  O  O310  1  0.09729817  0.27289441  0.22341548  1
  O  O311  1  0.09793390  0.26575894  0.79739680  1
  O  O312  1  0.09520394  0.76457188  0.27914549  1
  O  O313  1  0.03012875  0.83494100  0.67600591  1
  O  O314  1  0.76583119  0.33353679  0.19232495  1
  O  O315  1  0.60339854  0.26360651  0.81862607  1
  O  O316  1  0.61150444  0.73135779  0.26937357  1
  O  O317  1  0.61454870  0.77453578  0.77260491  1
  O  O318  1  0.36878022  0.21796738  0.33984714  1
  O  O319  1  0.42325958  0.28536828  0.73466663  1
  O  O320  1  0.41986364  0.76585566  0.23303352  1
  O  O321  1  0.22079002  0.76952443  0.66585610  1
  O  O322  1  0.89861982  0.25912728  0.27190755  1
  O  O323  1  0.88288113  0.25869784  0.75960093  1
  O  O324  1  0.89845140  0.78104516  0.23182187  1
  O  O325  1  0.91022359  0.73799503  0.71941411  1
  O  O326  1  0.38477216  0.51071628  0.46070936  1
  O  O327  1  0.36738458  0.47273110  1.00242382  1
  O  O328  1  0.38232575  0.98337245  0.45645106  1
  O  O329  1  0.41516557  0.97718936  0.96017980  1
  O  O330  1  0.88097860  0.46762608  0.50744136  1
  O  O331  1  0.90152523  0.53247789  0.98887014  1
  O  O332  1  0.92876323  1.07170627  0.46583001  1
  O  O333  1  0.87748392  1.05823366  1.03715448  1
  O  O334  1  0.13564709  0.02746021  0.02282336  1
  O  O335  1  0.08086160  0.04087165  0.42494748  1
  O  O336  1  0.12480306  0.51764136  0.01896502  1
  O  O337  1  0.10164317  0.46344492  0.45017598  1
  O  O338  1  0.70575332  -0.00076427  -0.00313965  1
  O  O339  1  0.63217039  -0.01035403  0.51273174  1
  O  O340  1  0.60612321  0.51929474  -0.00877362  1
  O  O341  1  0.65372981  0.49737171  0.53432767  1
  O  O342  1  0.35359907  0.37382542  0.12089321  1
  O  O343  1  0.46854728  0.37998004  0.60955219  1
  O  O344  1  0.34200199  0.90183281  0.07298717  1
  O  O345  1  0.28646310  0.98075353  0.64727039  1
  O  O346  1  0.87109618  0.43694881  0.10497756  1
  O  O347  1  0.89854277  0.33607514  0.61113403  1
  O  O348  1  0.84304593  0.87227129  0.08689334  1
  O  O349  1  0.87733317  0.90169315  0.63293925  1
  O  O350  1  0.13437672  0.15627364  0.30423982  1
  O  O351  1  0.11557888  0.15414670  0.91434695  1
  O  O352  1  0.27525930  0.73389183  0.34620616  1
  O  O353  1  0.14802336  0.62925826  0.90816658  1
  O  O354  1  0.65422293  0.08491220  0.36032539  1
  O  O355  1  0.69840627  0.05765105  0.85838613  1
  O  O356  1  0.64403152  0.63137240  0.39013695  1
  O  O357  1  0.61397671  0.62883008  0.88680145  1
