# generated using pymatgen
data_V51Zn51O256
_symmetry_space_group_name_H-M   'P 1'
_cell_length_a   17.70161881
_cell_length_b   17.39221127
_cell_length_c   17.75885948
_cell_angle_alpha   89.10608694
_cell_angle_beta   89.83712516
_cell_angle_gamma   90.06037996
_symmetry_Int_Tables_number   1
_chemical_formula_structural   V51Zn51O256
_chemical_formula_sum   'V51 Zn51 O256'
_cell_volume   5466.73449424
_cell_formula_units_Z   1
loop_
 _symmetry_equiv_pos_site_id
 _symmetry_equiv_pos_as_xyz
  1  'x, y, z'
loop_
 _atom_site_type_symbol
 _atom_site_label
 _atom_site_symmetry_multiplicity
 _atom_site_fract_x
 _atom_site_fract_y
 _atom_site_fract_z
 _atom_site_occupancy
  V  V0  1  0.09377466  0.87639306  0.31376772  1
  V  V1  1  0.86735633  0.11111737  0.73496300  1
  V  V2  1  0.24636677  0.23259217  0.50720415  1
  V  V3  1  -0.01320137  0.68870876  0.29733826  1
  V  V4  1  0.87902166  0.76410032  0.63731169  1
  V  V5  1  0.11767771  0.14478718  -0.00786673  1
  V  V6  1  0.37692735  0.12035260  0.77235141  1
  V  V7  1  0.84074408  0.54621147  0.33147041  1
  V  V8  1  0.48720635  0.00240613  0.52747510  1
  V  V9  1  0.35750486  0.09157270  0.23699434  1
  V  V10  1  0.46935984  0.80694227  0.26211920  1
  V  V11  1  0.45011428  0.64665719  0.16092981  1
  V  V12  1  0.72047816  0.39161719  0.12365567  1
  V  V13  1  0.17140971  0.48246679  0.63508459  1
  V  V14  1  0.50745648  0.37683437  0.37314573  1
  V  V15  1  0.89780907  0.58688452  0.72231634  1
  V  V16  1  0.22873348  0.87083696  0.17504003  1
  V  V17  1  0.69061497  0.11526213  0.47134733  1
  V  V18  1  0.14473911  0.47388163  0.11526051  1
  V  V19  1  0.25776240  0.67204455  0.41302494  1
  V  V20  1  0.72283789  -0.02768861  0.74969338  1
  V  V21  1  0.65778881  0.51230400  0.58092287  1
  V  V22  1  0.17077336  0.36664633  0.24002831  1
  V  V23  1  0.16388387  0.25532538  0.83863512  1
  V  V24  1  0.79897368  0.00409337  0.22396106  1
  V  V25  1  0.79094713  0.17125563  0.34368681  1
  V  V26  1  0.24767644  0.63138175  0.90528787  1
  V  V27  1  0.51048670  0.53367611  -0.06714500  1
  V  V28  1  0.02506595  0.43405892  0.57821631  1
  V  V29  1  -0.00454249  0.39292553  0.90146456  1
  V  V30  1  0.78757756  0.32593057  0.49966938  1
  V  V31  1  0.86390825  -0.01221164  0.86286058  1
  V  V32  1  0.86735474  0.25206784  0.13458836  1
  V  V33  1  0.45323100  0.65680352  0.64184067  1
  V  V34  1  0.62132357  0.64960766  0.47061551  1
  V  V35  1  0.37864178  0.34546627  -0.03099269  1
  V  V36  1  0.75144597  0.62350805  0.83086257  1
  V  V37  1  0.86502735  0.86293770  0.48233828  1
  V  V38  1  -0.00524893  -0.00136823  -0.02371975  1
  V  V39  1  0.11793316  0.23711427  0.38296411  1
  V  V40  1  0.34117795  0.38991907  0.45783232  1
  V  V41  1  0.61245677  0.40950168  0.25229160  1
  V  V42  1  0.87650054  0.04208416  0.40760175  1
  V  V43  1  0.78523343  0.27729783  -0.00746447  1
  V  V44  1  0.01709749  0.13430220  0.11986896  1
  V  V45  1  0.72827083  0.85517020  0.61916499  1
  V  V46  1  0.56421935  0.15921983  0.60586885  1
  V  V47  1  0.08816848  0.11897525  0.54057342  1
  V  V48  1  0.22135904  0.00733253  0.28893450  1
  V  V49  1  0.60469279  0.68104502  -0.06554216  1
  V  V50  1  0.53084836  0.15985470  0.21608053  1
  Zn  Zn51  1  0.26499546  0.63981354  0.70669639  1
  Zn  Zn52  1  0.31035317  0.28788991  0.33311018  1
  Zn  Zn53  1  0.53689072  0.13806136  0.40373723  1
  Zn  Zn54  1  0.02383082  0.83416100  0.56785986  1
  Zn  Zn55  1  0.79468921  0.03479113  0.57975090  1
  Zn  Zn56  1  0.08024015  0.30702960  0.06410079  1
  Zn  Zn57  1  0.82568790  0.36134535  0.26219909  1
  Zn  Zn58  1  0.16999757  0.48496843  0.44120971  1
  Zn  Zn59  1  1.00644939  0.72148116  0.72322998  1
  Zn  Zn60  1  0.04286942  0.53832389  0.24597199  1
  Zn  Zn61  1  0.20943005  0.16984256  0.67615521  1
  Zn  Zn62  1  0.97441902  0.97506975  0.17639109  1
  Zn  Zn63  1  0.19780670  0.99241838  0.95283194  1
  Zn  Zn64  1  0.89033298  0.67620658  0.45556310  1
  Zn  Zn65  1  0.29833668  0.16223019  0.93321803  1
  Zn  Zn66  1  0.14908268  0.97517889  0.43616495  1
  Zn  Zn67  1  0.92185866  0.95754287  0.66501515  1
  Zn  Zn68  1  0.11861612  0.30520531  0.65013067  1
  Zn  Zn69  1  0.52661372  0.32907587  0.10206491  1
  Zn  Zn70  1  0.41179170  0.68090197  0.99295354  1
  Zn  Zn71  1  0.34000638  0.51659324  0.03889496  1
  Zn  Zn72  1  0.54126042  0.80928125  0.55863537  1
  Zn  Zn73  1  0.58531705  0.57575044  0.76281518  1
  Zn  Zn74  1  0.34539413  0.55324098  0.56090844  1
  Zn  Zn75  1  0.84017459  0.09089670  0.03787834  1
  Zn  Zn76  1  0.54202687  1.02289096  0.70678136  1
  Zn  Zn77  1  0.83985499  0.50106166  0.51910799  1
  Zn  Zn78  1  0.90870172  0.85864081  0.28579442  1
  Zn  Zn79  1  0.46351117  0.68715424  0.42880302  1
  Zn  Zn80  1  0.74528075  0.64333824  0.63193127  1
  Zn  Zn81  1  0.37521104  0.12357123  0.59976764  1
  Zn  Zn82  1  0.35205847  0.29190414  0.80734140  1
  Zn  Zn83  1  0.68743396  0.54105696  -0.00479630  1
  Zn  Zn84  1  0.05319308  0.51977708  0.76671817  1
  Zn  Zn85  1  0.81677093  0.81103071  0.80661998  1
  Zn  Zn86  1  0.73602493  0.21869328  0.63032656  1
  Zn  Zn87  1  0.03179373  0.06667579  0.31475922  1
  Zn  Zn88  1  0.61552505  0.31531669  0.52310704  1
  Zn  Zn89  1  0.15698367  0.71428051  0.24426393  1
  Zn  Zn90  1  0.52539752  0.55696673  0.31480288  1
  Zn  Zn91  1  0.59640118  0.75317582  0.15799013  1
  Zn  Zn92  1  0.22359682  0.05885690  0.10530392  1
  Zn  Zn93  1  0.79943491  0.43976272  0.88257089  1
  Zn  Zn94  1  0.01684440  0.12214090  0.83470261  1
  Zn  Zn95  1  0.68893382  0.46789026  0.41256996  1
  Zn  Zn96  1  0.40028995  0.82226674  0.10527441  1
  Zn  Zn97  1  0.28246659  0.86695845  0.36925672  1
  Zn  Zn98  1  0.26961843  0.81589820  0.98585768  1
  Zn  Zn99  1  0.20983149  0.42814222  0.93788685  1
  Zn  Zn100  1  0.94653589  0.21253549  0.44643590  1
  Zn  Zn101  1  0.71851743  0.13504895  0.16895505  1
  O  O102  1  0.11936521  0.10755224  0.09390125  1
  O  O103  1  0.11628675  0.12924050  0.63335347  1
  O  O104  1  0.20785714  0.55963397  0.13742489  1
  O  O105  1  0.16455259  0.59526070  0.66965971  1
  O  O106  1  0.60797771  0.02228884  0.04113251  1
  O  O107  1  0.72662966  0.12427395  0.56722674  1
  O  O108  1  0.53929593  0.66262551  0.12701311  1
  O  O109  1  0.65407408  0.64191887  0.56880082  1
  O  O110  1  0.39555806  0.34960410  0.37905858  1
  O  O111  1  0.39467530  0.36445692  0.87503093  1
  O  O112  1  0.33241149  0.89366729  0.51568453  1
  O  O113  1  0.34863529  0.80097582  0.82411403  1
  O  O114  1  0.86767589  0.45625626  0.30424602  1
  O  O115  1  0.90659618  0.43135247  0.90100513  1
  O  O116  1  0.86080128  0.84967313  0.38738355  1
  O  O117  1  0.87146973  0.88772067  0.86851536  1
  O  O118  1  0.24912218  -0.03035410  0.38724792  1
  O  O119  1  0.23783209  -0.10342076  0.90759628  1
  O  O120  1  0.22649759  0.57402143  0.39732226  1
  O  O121  1  0.24099823  0.53064927  0.88467087  1
  O  O122  1  0.83718817  -0.00019200  0.33098942  1
  O  O123  1  0.76080781  -0.02179773  0.84584836  1
  O  O124  1  0.74593224  0.53582511  0.34110527  1
  O  O125  1  0.74994698  0.53944386  0.90140794  1
  O  O126  1  0.25595823  0.49820080  0.12912492  1
  O  O127  1  0.25894047  0.49720738  0.60034803  1
  O  O128  1  0.20002892  0.97644887  0.18720307  1
  O  O129  1  0.17666052  0.95786262  0.73952210  1
  O  O130  1  0.72279337  0.47968534  0.08163528  1
  O  O131  1  0.75737151  0.52943543  0.58888489  1
  O  O132  1  0.78592318  1.05036305  0.13161590  1
  O  O133  1  0.72835659  0.95823425  0.63254061  1
  O  O134  1  0.02453898  0.47253408  0.34886873  1
  O  O135  1  0.02569786  0.31950309  0.82408700  1
  O  O136  1  0.00978804  0.91282135  0.26562230  1
  O  O137  1  0.07794627  0.81049116  0.72614710  1
  O  O138  1  0.52258949  0.35615479  0.27331344  1
  O  O139  1  0.53805117  0.36832475  0.75330927  1
  O  O140  1  0.48022736  0.89226941  0.22474825  1
  O  O141  1  0.49121857  0.90286929  0.72168911  1
  O  O142  1  0.45493442  0.08771197  0.21069807  1
  O  O143  1  0.58068264  0.13299817  0.69651581  1
  O  O144  1  0.45036503  0.58966084  0.23919830  1
  O  O145  1  0.50175400  0.64057693  0.72218590  1
  O  O146  1  1.00832067  0.08492778  0.20843397  1
  O  O147  1  0.96000287  0.14653374  0.74773212  1
  O  O148  1  0.94332744  0.59439069  0.28850511  1
  O  O149  1  0.99603008  0.61422136  0.74354744  1
  O  O150  1  0.34720492  0.25160706  -0.02571151  1
  O  O151  1  0.31953314  0.30678210  0.51365557  1
  O  O152  1  0.36769236  0.77929340  0.01260777  1
  O  O153  1  0.33902071  0.84307819  0.56413564  1
  O  O154  1  0.87278577  0.29536694  0.03732940  1
  O  O155  1  0.87004346  0.28432993  0.46961880  1
  O  O156  1  0.93579717  0.70548311  0.07251769  1
  O  O157  1  0.86685565  0.75909133  0.51806469  1
  O  O158  1  0.14841605  0.17905473  0.48003062  1
  O  O159  1  0.14840035  0.23696982  1.00684576  1
  O  O160  1  0.13939950  0.81788985  0.56925725  1
  O  O161  1  0.02283950  0.71302937  0.91867834  1
  O  O162  1  0.70868482  0.27838894  0.46897209  1
  O  O163  1  0.55319527  0.06448233  1.03158393  1
  O  O164  1  0.55234267  0.73035533  0.48497114  1
  O  O165  1  0.60221208  0.77486629  0.92911864  1
  O  O166  1  0.50677996  0.23520586  0.15841826  1
  O  O167  1  0.62377573  0.24466112  0.61047347  1
  O  O168  1  0.41869747  0.74289065  0.19126040  1
  O  O169  1  0.46129451  0.75211683  0.61985382  1
  O  O170  1  1.03843431  0.22842514  0.13509538  1
  O  O171  1  0.90348017  0.32174969  0.70368906  1
  O  O172  1  1.07611837  0.64353114  0.25952584  1
  O  O173  1  0.97999656  0.74324784  0.61512320  1
  O  O174  1  0.04177271  0.27552681  0.42504449  1
  O  O175  1  -0.03143675  0.28755862  0.86524634  1
  O  O176  1  -0.02482456  0.70554152  0.39110886  1
  O  O177  1  0.07551536  0.61392564  0.88572872  1
  O  O178  1  0.53308513  0.18657359  0.30937102  1
  O  O179  1  0.56239181  0.34921815  0.81505737  1
  O  O180  1  0.44620219  0.80330958  0.36961994  1
  O  O181  1  0.37319773  0.75246496  0.78042835  1
  O  O182  1  0.29846558  0.15365973  0.52321714  1
  O  O183  1  0.22297675  0.10038192  0.98582729  1
  O  O184  1  0.28230847  0.64133904  0.50802311  1
  O  O185  1  0.25812926  0.59798607  1.00182009  1
  O  O186  1  0.79950754  0.11577022  0.44178358  1
  O  O187  1  0.77912568  0.17865208  0.98970132  1
  O  O188  1  0.69520695  0.68151639  0.42454385  1
  O  O189  1  0.66696919  0.65240128  1.00371225  1
  O  O190  1  0.30342316  0.41103552  -0.00161800  1
  O  O191  1  0.25636369  0.42099176  0.42412960  1
  O  O192  1  0.22086603  0.88619778  0.06585133  1
  O  O193  1  0.18126940  0.97219605  0.67185019  1
  O  O194  1  0.71076772  0.32233317  0.04717570  1
  O  O195  1  0.77984203  0.42412523  0.46461364  1
  O  O196  1  0.75575559  0.78510278  0.15933727  1
  O  O197  1  0.76213616  0.86075074  0.52560981  1
  O  O198  1  0.15398312  0.46072309  0.25700838  1
  O  O199  1  0.16497794  0.53669248  0.72898540  1
  O  O200  1  0.12063812  0.99440128  0.31830217  1
  O  O201  1  0.18139696  0.85720915  0.85497247  1
  O  O202  1  0.59113980  0.50345529  0.24220227  1
  O  O203  1  0.61357148  0.52750053  0.66640513  1
  O  O204  1  0.72242933  0.95521644  0.23727885  1
  O  O205  1  0.62719081  0.98097948  0.76098077  1
  O  O206  1  0.33038315  -0.00107262  0.26434959  1
  O  O207  1  0.44361448  0.05515051  0.74548049  1
  O  O208  1  0.38195649  0.44275822  0.21580471  1
  O  O209  1  0.42224032  0.43629815  0.67596182  1
  O  O210  1  0.87253317  -0.06482929  0.20479041  1
  O  O211  1  0.89530149  -0.00863375  0.76500983  1
  O  O212  1  0.82069441  0.63020479  0.25637241  1
  O  O213  1  0.89574505  0.49520566  0.70410439  1
  O  O214  1  0.07342755  0.43986277  0.39079864  1
  O  O215  1  0.16781131  0.34479531  0.87818817  1
  O  O216  1  0.09299035  0.87730638  0.40904844  1
  O  O217  1  0.12303505  0.83334548  0.88749688  1
  O  O218  1  0.62145431  0.40019845  0.35609751  1
  O  O219  1  0.73711389  0.43916553  0.78109716  1
  O  O220  1  0.68474914  0.84240767  0.36717660  1
  O  O221  1  0.54512997  0.85420271  0.74608840  1
  O  O222  1  0.30836815  0.11038485  0.15552146  1
  O  O223  1  0.47079315  0.18324607  0.59792607  1
  O  O224  1  0.39423844  0.61055167  0.08574028  1
  O  O225  1  0.35558951  0.62327377  0.65609526  1
  O  O226  1  0.90932639  0.15872799  0.10832770  1
  O  O227  1  0.88374032  0.05804862  0.63943713  1
  O  O228  1  0.89686478  0.68286920  0.02043700  1
  O  O229  1  0.86383274  0.64269881  0.64328557  1
  O  O230  1  0.29573516  0.29720700  0.11295190  1
  O  O231  1  0.20411827  0.25650245  0.59331963  1
  O  O232  1  0.18641788  0.78202161  0.16289015  1
  O  O233  1  0.18298024  0.87452233  0.55958975  1
  O  O234  1  0.77558546  0.22639731  0.15059334  1
  O  O235  1  0.78200503  0.31794566  0.59659660  1
  O  O236  1  0.68892460  0.80024560  0.11829554  1
  O  O237  1  0.77350845  0.75614122  0.64018533  1
  O  O238  1  0.22720773  0.25877327  0.40410381  1
  O  O239  1  0.25867107  0.22920644  0.84181876  1
  O  O240  1  0.27515261  0.77086875  0.42812137  1
  O  O241  1  0.22837367  0.72724559  0.93149371  1
  O  O242  1  0.79516614  0.26581065  0.31953576  1
  O  O243  1  0.78325031  0.32654077  0.90857274  1
  O  O244  1  0.74302218  0.65342823  0.24533793  1
  O  O245  1  0.77144408  0.71713271  0.85279939  1
  O  O246  1  0.01892379  0.14960852  0.00434633  1
  O  O247  1  -0.00259439  0.14622743  0.52125948  1
  O  O248  1  0.05927536  0.61642060  0.01928434  1
  O  O249  1  0.03746335  0.61310009  0.51170558  1
  O  O250  1  0.54866521  0.03078946  -0.08345467  1
  O  O251  1  0.59652141  0.15904592  0.49315572  1
  O  O252  1  0.50650077  0.64119434  -0.05094816  1
  O  O253  1  0.44038396  0.61577968  0.53259130  1
  O  O254  1  0.53120303  0.32583885  0.45382351  1
  O  O255  1  0.45983589  0.35090258  1.02398996  1
  O  O256  1  0.49870848  0.90475115  0.52415149  1
  O  O257  1  0.48040577  0.87301558  0.89703165  1
  O  O258  1  1.03127329  0.33680630  0.59460206  1
  O  O259  1  1.02815475  0.36724864  0.98910316  1
  O  O260  1  0.95992226  0.88114643  0.49704122  1
  O  O261  1  1.00118600  0.90578948  0.97691277  1
  O  O262  1  0.48850748  0.47085996  0.38311961  1
  O  O263  1  0.52183436  0.51850356  0.83818110  1
  O  O264  1  0.48937690  1.04675076  0.43958294  1
  O  O265  1  0.43112156  0.92049258  0.90952188  1
  O  O266  1  1.04943623  0.57944959  0.45227379  1
  O  O267  1  1.05205304  0.46521805  0.85899375  1
  O  O268  1  0.97178083  1.02565472  0.39770301  1
  O  O269  1  0.97802649  1.02740226  0.87567359  1
  O  O270  1  -0.01465101  0.02349859  0.07832537  1
  O  O271  1  0.02689413  -0.08897979  0.65781942  1
  O  O272  1  0.05832622  0.50707897  0.14310694  1
  O  O273  1  0.04584825  0.47910973  0.66169079  1
  O  O274  1  0.46348228  -0.07412669  0.06201613  1
  O  O275  1  0.55534506  0.04342256  0.59036754  1
  O  O276  1  0.40959967  0.43672727  0.15244577  1
  O  O277  1  0.50446183  0.59176259  0.57642166  1
  O  O278  1  0.26425087  0.34537546  0.25188915  1
  O  O279  1  0.32653246  0.36007822  0.71745319  1
  O  O280  1  0.20017809  0.86876325  0.28287205  1
  O  O281  1  0.24953050  0.81256756  0.69213311  1
  O  O282  1  0.71369573  0.39827985  0.23453141  1
  O  O283  1  0.71667448  0.37794332  0.73947188  1
  O  O284  1  0.70972517  0.80960514  0.31244054  1
  O  O285  1  0.75003526  0.86831268  0.73596112  1
  O  O286  1  0.22600299  0.10167467  0.28645611  1
  O  O287  1  0.30892611  0.12936558  0.69307522  1
  O  O288  1  0.24236624  0.68652253  0.31533926  1
  O  O289  1  0.23336831  0.65386013  0.80847627  1
  O  O290  1  0.78431828  0.11234737  0.26249606  1
  O  O291  1  0.75997794  0.05891510  0.72319924  1
  O  O292  1  0.71003667  0.62275854  0.19071998  1
  O  O293  1  0.72366612  0.61285006  0.73929723  1
  O  O294  1  0.36722279  0.13175340  0.33840068  1
  O  O295  1  0.33845940  0.09130742  0.85747059  1
  O  O296  1  0.35969901  0.65768516  0.39951343  1
  O  O297  1  0.34421548  0.64381415  0.89963591  1
  O  O298  1  0.89707970  0.14826698  0.36310241  1
  O  O299  1  0.84456851  0.09864986  0.83358508  1
  O  O300  1  0.86508083  0.57313781  0.42925647  1
  O  O301  1  0.85181589  0.59824060  0.80955345  1
  O  O302  1  0.14425594  0.36645444  0.13892002  1
  O  O303  1  0.17729502  0.39632496  0.67872259  1
  O  O304  1  0.05816789  0.72740175  -0.02474981  1
  O  O305  1  0.04126826  0.87739985  0.72978992  1
  O  O306  1  0.61161071  0.37299200  0.14966608  1
  O  O307  1  0.64402828  0.41629754  0.56620586  1
  O  O308  1  0.52291999  0.81557025  0.08344762  1
  O  O309  1  0.63609631  0.83052844  0.61314050  1
  O  O310  1  0.12065172  0.30487129  0.29984150  1
  O  O311  1  0.14856315  0.24696152  0.74106376  1
  O  O312  1  0.07713672  0.78005057  0.29631369  1
  O  O313  1  0.21848092  0.75015352  0.67680798  1
  O  O314  1  0.61504315  0.12291592  0.18555282  1
  O  O315  1  0.69798133  0.31622721  0.77382609  1
  O  O316  1  0.55777576  0.76376212  0.26117618  1
  O  O317  1  0.52309755  0.79287842  0.77831468  1
  O  O318  1  0.36071694  0.19426675  0.28755313  1
  O  O319  1  0.41859168  0.20853959  0.78240535  1
  O  O320  1  0.37996698  0.82187328  0.32843005  1
  O  O321  1  0.32050131  0.93429541  0.76473281  1
  O  O322  1  0.90865312  0.28617418  0.21217804  1
  O  O323  1  0.81534056  0.18952727  0.70207515  1
  O  O324  1  0.93150418  0.75479242  0.25050586  1
  O  O325  1  0.89773822  0.76509389  0.73657561  1
  O  O326  1  0.38146159  0.45972082  0.50879204  1
  O  O327  1  0.42573259  0.50290115  0.96890683  1
  O  O328  1  0.40076917  1.02061709  0.56962561  1
  O  O329  1  0.25644175  0.95947152  1.04439842  1
  O  O330  1  0.94295490  0.46337870  0.53769235  1
  O  O331  1  1.01760587  0.58982481  0.97282865  1
  O  O332  1  0.84685607  0.98000044  0.48751424  1
  O  O333  1  0.87857182  1.01472883  0.96814479  1
  O  O334  1  0.09572743  0.03029686  -0.04061406  1
  O  O335  1  0.10494197  0.02413119  0.51725373  1
  O  O336  1  0.14526993  0.47156957  0.02039972  1
  O  O337  1  0.12076360  0.46553498  0.53916937  1
  O  O338  1  0.52957793  -0.10584014  0.06680739  1
  O  O339  1  0.67041233  0.02479645  0.46059953  1
  O  O340  1  0.58602821  0.49720884  -0.01928628  1
  O  O341  1  0.63182745  0.53715172  0.47918949  1
  O  O342  1  0.35068648  0.26573938  0.14100042  1
  O  O343  1  0.39095895  0.37155144  0.67251343  1
  O  O344  1  0.32287177  0.86240755  0.17678092  1
  O  O345  1  0.33621718  0.92947099  0.69791862  1
  O  O346  1  0.81493875  0.37305429  0.14310285  1
  O  O347  1  0.86995701  0.31624983  0.76326455  1
  O  O348  1  0.81544002  0.78880671  0.12073637  1
  O  O349  1  0.87390020  0.86495404  0.62181144  1
  O  O350  1  0.08838911  0.15787656  0.34019347  1
  O  O351  1  0.10742413  0.17376448  0.87764656  1
  O  O352  1  0.16636113  0.69162604  0.44382019  1
  O  O353  1  0.13410391  0.62500957  0.92687352  1
  O  O354  1  0.69225797  0.15926373  0.37307635  1
  O  O355  1  0.60241010  -0.01219152  0.92797556  1
  O  O356  1  0.54740044  0.62660579  0.39124651  1
  O  O357  1  0.63796867  0.63546546  0.84942005  1
