# generated using pymatgen
data_V51Zn51O256
_symmetry_space_group_name_H-M   'P 1'
_cell_length_a   17.37194691
_cell_length_b   17.15687842
_cell_length_c   17.46239671
_cell_angle_alpha   91.01006999
_cell_angle_beta   90.08121906
_cell_angle_gamma   89.86890441
_symmetry_Int_Tables_number   1
_chemical_formula_structural   V51Zn51O256
_chemical_formula_sum   'V51 Zn51 O256'
_cell_volume   5203.81177468
_cell_formula_units_Z   1
loop_
 _symmetry_equiv_pos_site_id
 _symmetry_equiv_pos_as_xyz
  1  'x, y, z'
loop_
 _atom_site_type_symbol
 _atom_site_label
 _atom_site_symmetry_multiplicity
 _atom_site_fract_x
 _atom_site_fract_y
 _atom_site_fract_z
 _atom_site_occupancy
  V  V0  1  0.46100209  0.41956752  -0.03633192  1
  V  V1  1  0.81680305  0.73815188  0.51082015  1
  V  V2  1  0.74751058  0.36994180  0.13989182  1
  V  V3  1  0.84419215  0.66649488  0.21285035  1
  V  V4  1  0.86449112  0.50334297  0.88582755  1
  V  V5  1  0.63593880  0.26580151  0.85742107  1
  V  V6  1  -0.00247930  0.57079993  0.14605037  1
  V  V7  1  0.67840792  0.76087770  0.88877022  1
  V  V8  1  0.49336547  0.15547611  0.63594490  1
  V  V9  1  0.17433386  0.72928179  0.90381089  1
  V  V10  1  -0.00304334  0.00429871  -0.00896862  1
  V  V11  1  0.56748207  0.37127855  0.38874497  1
  V  V12  1  0.28655263  0.75915409  0.05189145  1
  V  V13  1  0.74651814  0.37909382  0.61194993  1
  V  V14  1  0.22953791  0.55420873  0.94397915  1
  V  V15  1  0.92429007  0.75319454  0.65034777  1
  V  V16  1  -0.02950908  0.26557436  0.73603407  1
  V  V17  1  0.02996891  0.52016616  0.47792159  1
  V  V18  1  0.16392739  0.37453019  0.74691102  1
  V  V19  1  0.02340407  0.09740275  0.63723777  1
  V  V20  1  0.01380633  0.74992651  0.79734287  1
  V  V21  1  -0.02020619  0.23821361  0.25064796  1
  V  V22  1  0.59525323  0.00860104  0.62055720  1
  V  V23  1  0.59969440  0.74243000  0.39935980  1
  V  V24  1  0.25762804  0.87157767  0.64043504  1
  V  V25  1  0.47042182  0.02538952  0.49237040  1
  V  V26  1  0.61957788  0.64376863  0.01920852  1
  V  V27  1  0.72074622  0.12670584  0.34532122  1
  V  V28  1  0.60923289  0.87171644  0.73364300  1
  V  V29  1  0.63433163  0.11867866  -0.02201595  1
  V  V30  1  0.17628601  -0.01738274  0.20612855  1
  V  V31  1  0.51956441  0.57179106  0.62766647  1
  V  V32  1  0.46057925  0.20129166  0.16493319  1
  V  V33  1  0.34284723  0.07065092  0.23167745  1
  V  V34  1  0.02138467  0.61056201  0.65043809  1
  V  V35  1  0.87026829  0.90740836  0.44470700  1
  V  V36  1  0.22521907  0.37762470  0.19981435  1
  V  V37  1  0.36627561  0.12884384  0.74877966  1
  V  V38  1  0.30678237  0.61987991  0.36494086  1
  V  V39  1  0.13511882  0.25953047  0.87492511  1
  V  V40  1  0.04893779  0.77618676  0.32664330  1
  V  V41  1  0.86396516  0.62218097  0.75452983  1
  V  V42  1  0.85862041  0.86994737  0.03717033  1
  V  V43  1  0.36012190  0.60575350  0.81129078  1
  V  V44  1  0.40110831  -0.01316996  0.88794257  1
  V  V45  1  0.87543383  -0.00681106  0.84013647  1
  V  V46  1  0.16411391  0.50758724  0.64493965  1
  V  V47  1  0.13191070  0.14972133  0.50084389  1
  V  V48  1  0.73779302  0.00063494  0.72277625  1
  V  V49  1  0.02149459  -0.02114998  0.49885379  1
  V  V50  1  0.76248239  0.13454512  0.84592547  1
  Zn  Zn51  1  0.73773432  0.15729239  0.13914220  1
  Zn  Zn52  1  -0.00332010  0.39485332  0.84083312  1
  Zn  Zn53  1  0.56324079  0.62918603  0.78034517  1
  Zn  Zn54  1  0.52902511  0.84569379  0.54935316  1
  Zn  Zn55  1  0.56069468  0.07437399  0.80850789  1
  Zn  Zn56  1  0.16815451  0.15920360  0.71871336  1
  Zn  Zn57  1  0.05191537  0.05829655  0.33215838  1
  Zn  Zn58  1  0.07235845  0.56118881  0.82676752  1
  Zn  Zn59  1  0.29657607  0.08694782  0.59272924  1
  Zn  Zn60  1  0.20073251  0.50697336  0.45089020  1
  Zn  Zn61  1  0.81924494  0.55542922  0.06782671  1
  Zn  Zn62  1  0.67961874  0.19299872  0.67720858  1
  Zn  Zn63  1  0.19108767  0.69104982  0.72431204  1
  Zn  Zn64  1  0.74417882  0.47285911  0.37218600  1
  Zn  Zn65  1  0.91338188  0.62467769  0.38059735  1
  Zn  Zn66  1  0.89851406  0.87925190  0.24182602  1
  Zn  Zn67  1  0.16537481  0.84730375  0.47859806  1
  Zn  Zn68  1  0.49706911  0.24613866  -0.00593421  1
  Zn  Zn69  1  0.05960776  0.07267931  0.82681003  1
  Zn  Zn70  1  0.65586402  0.46378583  0.89398859  1
  Zn  Zn71  1  0.15940515  0.89183858  0.02711002  1
  Zn  Zn72  1  0.87092607  0.72000368  0.91671861  1
  Zn  Zn73  1  0.57775885  0.29323784  0.55052446  1
  Zn  Zn74  1  0.51999521  0.08413078  0.30483625  1
  Zn  Zn75  1  0.30284702  0.09571583  0.42195025  1
  Zn  Zn76  1  0.45571578  0.54612265  0.20469404  1
  Zn  Zn77  1  0.12361198  0.35706707  0.52702002  1
  Zn  Zn78  1  0.33199252  0.49191744  0.09724111  1
  Zn  Zn79  1  0.33352562  0.60640230  0.64311535  1
  Zn  Zn80  1  0.81015595  0.04436907  0.01445318  1
  Zn  Zn81  1  0.94222538  0.94917342  0.68883087  1
  Zn  Zn82  1  0.43911510  0.67816855  0.50095232  1
  Zn  Zn83  1  0.43512449  0.95085721  0.71517563  1
  Zn  Zn84  1  0.59121382  0.56332455  0.30162903  1
  Zn  Zn85  1  0.32076114  0.32016370  0.85010774  1
  Zn  Zn86  1  0.29681596  0.03841070  0.06178357  1
  Zn  Zn87  1  0.42660218  0.61618872  1.02199782  1
  Zn  Zn88  1  0.70242744  0.94163660  0.91396881  1
  Zn  Zn89  1  0.95419678  0.37572147  0.10255418  1
  Zn  Zn90  1  0.94984079  0.17199169  0.89865648  1
  Zn  Zn91  1  0.79820527  0.33778386  0.81160619  1
  Zn  Zn92  1  0.92660749  0.44646864  0.68227620  1
  Zn  Zn93  1  0.81454721  0.82834621  0.77005838  1
  Zn  Zn94  1  0.02269290  0.72078628  0.49463590  1
  Zn  Zn95  1  0.82311126  0.30954849  0.31201585  1
  Zn  Zn96  1  0.31610949  0.87168209  0.20223531  1
  Zn  Zn97  1  0.10371818  0.60671349  0.30935111  1
  Zn  Zn98  1  0.68917631  0.68789098  0.66690099  1
  Zn  Zn99  1  0.37117517  0.78109770  0.90370315  1
  Zn  Zn100  1  0.40931387  0.38426322  0.25615960  1
  Zn  Zn101  1  0.17337056  0.78131650  0.20003391  1
  O  O102  1  0.15278458  0.11868675  0.00171118  1
  O  O103  1  0.13462705  0.13887255  0.60823064  1
  O  O104  1  0.06335971  0.61180251  0.09301417  1
  O  O105  1  0.12740523  0.61687641  0.66364768  1
  O  O106  1  0.65904850  0.12492150  0.07564210  1
  O  O107  1  0.59399837  0.11477037  0.65521928  1
  O  O108  1  0.60725968  0.64640549  0.11113534  1
  O  O109  1  0.59977714  0.61982389  0.67243756  1
  O  O110  1  0.47202558  0.36659376  0.35597031  1
  O  O111  1  0.40531837  0.37540006  0.89254048  1
  O  O112  1  0.30048355  0.94667526  0.40512138  1
  O  O113  1  0.39513210  0.88709411  0.88427910  1
  O  O114  1  0.82418228  0.40046894  0.37474975  1
  O  O115  1  0.87992106  0.39743546  0.86171874  1
  O  O116  1  0.85659929  0.89870712  0.34566978  1
  O  O117  1  0.86453439  0.89542327  0.84835122  1
  O  O118  1  0.24929597  -0.10264488  0.39126774  1
  O  O119  1  0.15687982  -0.01527304  0.85447110  1
  O  O120  1  0.29569712  0.51438410  0.38848123  1
  O  O121  1  0.22153937  0.46605766  0.90934375  1
  O  O122  1  0.70155254  0.02904834  0.34274743  1
  O  O123  1  0.76058807  0.01163528  0.84140895  1
  O  O124  1  0.69782666  0.53217123  0.29735473  1
  O  O125  1  0.76612668  0.50022538  0.87455465  1
  O  O126  1  0.25989107  0.47986829  0.19027745  1
  O  O127  1  0.25974884  0.52054520  0.64117146  1
  O  O128  1  0.20347858  0.98478732  0.10598968  1
  O  O129  1  0.27235598  0.97052627  0.61187632  1
  O  O130  1  0.76807290  0.47313607  0.13278912  1
  O  O131  1  0.71696642  0.47328208  0.59142700  1
  O  O132  1  0.74135462  0.96352940  0.18175596  1
  O  O133  1  0.70757701  1.01041171  0.62842595  1
  O  O134  1  -0.00136355  0.31369362  0.18311105  1
  O  O135  1  -0.01044468  0.36707659  0.72497113  1
  O  O136  1  0.00190518  0.84143543  0.27300042  1
  O  O137  1  0.01488145  0.84365534  0.77859923  1
  O  O138  1  0.59098752  0.33201193  0.30054802  1
  O  O139  1  0.54065495  0.39432789  0.78385086  1
  O  O140  1  0.42109528  0.87125123  0.33446911  1
  O  O141  1  0.51304173  0.87955495  0.75707037  1
  O  O142  1  0.45163421  0.11077138  0.22232496  1
  O  O143  1  0.47659456  0.12952051  0.74617542  1
  O  O144  1  0.50871064  0.62687812  0.25864677  1
  O  O145  1  0.46248525  0.64462056  0.83972980  1
  O  O146  1  0.97427720  0.15427597  0.30786470  1
  O  O147  1  1.00999923  0.21196327  0.65982662  1
  O  O148  1  0.89654782  0.61400058  0.13228097  1
  O  O149  1  1.00964872  0.63302508  0.75807661  1
  O  O150  1  0.47948057  0.35028800  0.03262833  1
  O  O151  1  0.37770014  0.24555909  0.47756460  1
  O  O152  1  0.37459658  0.72768484  0.00764746  1
  O  O153  1  0.34311446  0.66426539  0.55310278  1
  O  O154  1  0.92541843  0.24376339  0.00484923  1
  O  O155  1  0.91830223  0.25184807  0.49013907  1
  O  O156  1  0.84813218  0.77218748  0.01198491  1
  O  O157  1  0.91600202  0.74720210  0.54531642  1
  O  O158  1  0.11427193  0.24742176  0.49755031  1
  O  O159  1  0.09484279  0.25298165  0.95967513  1
  O  O160  1  0.11945336  0.76028136  0.52399348  1
  O  O161  1  0.21392392  0.70406248  1.01086107  1
  O  O162  1  0.65129414  0.21386104  0.56708597  1
  O  O163  1  0.65659679  0.23319214  0.96405324  1
  O  O164  1  0.59449784  0.76354726  0.50800528  1
  O  O165  1  0.66229314  0.74099580  0.98681390  1
  O  O166  1  0.42450234  0.20687358  0.07318286  1
  O  O167  1  0.50669433  0.25389229  0.62555894  1
  O  O168  1  0.48709022  0.78157778  0.13303998  1
  O  O169  1  0.45495086  0.76654152  0.56731970  1
  O  O170  1  0.99149073  0.18090093  0.16999959  1
  O  O171  1  0.90791125  0.18595908  0.51643100  1
  O  O172  1  1.04605340  0.76638913  0.09987768  1
  O  O173  1  1.02099958  0.74624765  0.65980296  1
  O  O174  1  -0.05793786  0.31542839  0.31727792  1
  O  O175  1  0.00288056  0.24318139  0.83039174  1
  O  O176  1  -0.00451630  0.70860643  0.38507247  1
  O  O177  1  -0.01915364  0.73861225  0.88790644  1
  O  O178  1  0.57272863  0.27476358  0.43358458  1
  O  O179  1  0.54501926  0.28085465  0.89297415  1
  O  O180  1  0.49761968  0.72813897  0.41582471  1
  O  O181  1  0.54795224  0.95997958  1.07229310  1
  O  O182  1  0.23701846  0.12673753  0.50436406  1
  O  O183  1  0.22174285  0.12573175  0.98840384  1
  O  O184  1  0.22770745  0.61946041  0.44442294  1
  O  O185  1  0.24978185  0.54581156  1.03961305  1
  O  O186  1  0.69294582  0.14627527  0.43669388  1
  O  O187  1  0.75199718  0.11959296  0.95011924  1
  O  O188  1  0.82945847  0.66949101  0.44204119  1
  O  O189  1  0.72458484  0.59272741  1.00794342  1
  O  O190  1  0.15094637  0.36928870  0.13488094  1
  O  O191  1  0.35755256  0.41623761  0.51145734  1
  O  O192  1  0.26955306  0.85206613  0.02270850  1
  O  O193  1  0.26246854  0.83749979  0.54023242  1
  O  O194  1  0.75883108  0.34527402  0.04341580  1
  O  O195  1  0.76515452  0.34394698  0.52065922  1
  O  O196  1  0.77954905  0.93107241  0.00471663  1
  O  O197  1  0.80247635  0.83403310  0.47981242  1
  O  O198  1  0.02646120  0.57227858  0.24123222  1
  O  O199  1  0.13557664  0.48925802  0.74908413  1
  O  O200  1  0.08580666  1.00937961  0.23758831  1
  O  O201  1  0.07995955  1.07236602  0.71915012  1
  O  O202  1  0.56010083  0.50184810  0.21444842  1
  O  O203  1  0.59382307  0.51544667  0.80156345  1
  O  O204  1  0.53683482  0.96609816  0.25226887  1
  O  O205  1  0.62230579  0.99081121  0.74733313  1
  O  O206  1  0.36333054  -0.02790071  0.21188772  1
  O  O207  1  0.37122235  0.02391281  0.79009194  1
  O  O208  1  0.41980677  0.48976612  0.29589937  1
  O  O209  1  0.38153945  0.51591245  0.78869006  1
  O  O210  1  0.91660285  -0.00563702  0.25424284  1
  O  O211  1  0.83983736  -0.00629294  0.72365743  1
  O  O212  1  0.99072277  0.47376688  0.11370340  1
  O  O213  1  0.87396600  0.52058467  0.74770426  1
  O  O214  1  0.20541220  0.40064261  0.46362556  1
  O  O215  1  0.10693986  0.36285677  0.83873190  1
  O  O216  1  0.11393176  0.82492831  0.38240669  1
  O  O217  1  0.13118610  0.80869173  0.94043105  1
  O  O218  1  0.66819924  0.39244499  0.39999867  1
  O  O219  1  0.68772423  0.35842275  0.86189893  1
  O  O220  1  0.59943844  0.84311571  0.38712195  1
  O  O221  1  0.64347231  0.85412804  0.86292370  1
  O  O222  1  0.31660379  0.11315768  0.14615564  1
  O  O223  1  0.38534566  0.14920565  0.64444616  1
  O  O224  1  0.39256885  0.59173275  0.12829778  1
  O  O225  1  0.43961613  0.60730947  0.67716856  1
  O  O226  1  0.82456574  0.11073296  0.10158342  1
  O  O227  1  0.93114310  0.09730388  0.66184265  1
  O  O228  1  0.75256945  0.65744822  0.14795136  1
  O  O229  1  0.90949140  0.64029921  0.65272298  1
  O  O230  1  0.23213334  0.27702903  0.21016862  1
  O  O231  1  0.29156251  0.30899108  0.61479276  1
  O  O232  1  0.28283428  0.76876066  0.15643119  1
  O  O233  1  0.24660031  0.76909967  0.65578347  1
  O  O234  1  0.73228446  0.26847929  0.15010906  1
  O  O235  1  0.75567014  0.27889197  0.64571693  1
  O  O236  1  0.63794623  0.82740239  0.11973504  1
  O  O237  1  0.76087458  0.71412010  0.58662215  1
  O  O238  1  0.31662274  0.27270766  0.45363116  1
  O  O239  1  0.22973612  0.27902020  0.89733940  1
  O  O240  1  0.30771172  0.71678592  0.39015702  1
  O  O241  1  0.26222670  0.75603499  0.87217669  1
  O  O242  1  0.75654954  0.23731159  0.35772568  1
  O  O243  1  0.75765642  0.23530280  0.84453641  1
  O  O244  1  0.69520722  0.72803322  0.42537272  1
  O  O245  1  0.77541932  0.76221820  0.86122446  1
  O  O246  1  0.02072308  0.09113184  -0.07145685  1
  O  O247  1  0.03582270  0.09298767  0.52577699  1
  O  O248  1  0.01710824  0.76889080  0.03594152  1
  O  O249  1  0.02217899  0.61678951  0.54398741  1
  O  O250  1  0.53710886  0.14336983  -0.02160696  1
  O  O251  1  0.49329920  0.12742601  0.53902519  1
  O  O252  1  0.52798346  0.63400900  -0.01846912  1
  O  O253  1  0.50828366  0.59420093  0.53172930  1
  O  O254  1  0.54030565  0.38571667  0.49370985  1
  O  O255  1  0.55029001  0.45289833  0.93610055  1
  O  O256  1  0.47158779  0.92363424  0.49892196  1
  O  O257  1  0.52071099  1.01845697  1.10214138  1
  O  O258  1  1.03179282  0.42298122  0.49961949  1
  O  O259  1  0.95309271  0.31350757  1.00728954  1
  O  O260  1  0.96396926  0.88868922  0.48670341  1
  O  O261  1  0.94619066  0.90381677  1.00263859  1
  O  O262  1  0.56248856  0.47362703  0.37900103  1
  O  O263  1  0.53008878  0.46557926  0.77952706  1
  O  O264  1  0.48845217  1.04219762  0.39832259  1
  O  O265  1  0.49411985  1.01562650  0.88333826  1
  O  O266  1  1.09459424  0.53821416  0.39977503  1
  O  O267  1  0.98455917  0.50402121  0.86516719  1
  O  O268  1  0.99044025  1.01245396  0.40945098  1
  O  O269  1  0.96719342  0.99891616  0.79762303  1
  O  O270  1  -0.01700152  0.04087785  0.07616912  1
  O  O271  1  0.00837021  -0.01651715  0.60795164  1
  O  O272  1  0.07967853  0.41926184  -0.01321206  1
  O  O273  1  0.00856596  0.51303464  0.64643433  1
  O  O274  1  0.58061173  -0.08666712  0.22928200  1
  O  O275  1  0.48898308  0.01008021  0.63687660  1
  O  O276  1  0.42445930  0.44353065  0.16056623  1
  O  O277  1  0.51954717  0.47580420  0.63284136  1
  O  O278  1  0.30222075  0.36862398  0.27821492  1
  O  O279  1  0.25792843  0.37946858  0.77050831  1
  O  O280  1  0.20745705  0.88720832  0.23747941  1
  O  O281  1  0.25133414  0.88138007  0.74048535  1
  O  O282  1  0.75227900  0.36778407  0.24609541  1
  O  O283  1  0.76220339  0.39610526  0.71540922  1
  O  O284  1  0.69663855  0.81644624  0.15647720  1
  O  O285  1  0.72632676  0.89282802  0.73519060  1
  O  O286  1  0.23329700  0.04769038  0.25352826  1
  O  O287  1  0.27022509  0.10954314  0.70731363  1
  O  O288  1  0.34635471  0.62481939  0.27552229  1
  O  O289  1  0.28965701  0.64166559  0.74363865  1
  O  O290  1  0.72842447  0.14747123  0.24442497  1
  O  O291  1  0.73494739  0.11378066  0.74129056  1
  O  O292  1  0.73244846  0.66693523  0.22159450  1
  O  O293  1  0.77201049  0.64231480  0.73212049  1
  O  O294  1  0.34089610  0.11287825  0.32487858  1
  O  O295  1  0.22124518  0.01489802  0.86209872  1
  O  O296  1  0.39453963  0.60807047  0.41393514  1
  O  O297  1  0.31578026  0.60012448  0.90320237  1
  O  O298  1  0.81357333  0.09702238  0.35477332  1
  O  O299  1  0.86372317  0.12358938  0.83999773  1
  O  O300  1  0.85929572  0.60540603  0.28693386  1
  O  O301  1  0.86887904  0.61763055  0.86047944  1
  O  O302  1  0.15820699  0.41065906  0.26533258  1
  O  O303  1  0.15315615  0.39871754  0.63786073  1
  O  O304  1  0.11348113  0.82392692  0.11450286  1
  O  O305  1  0.16081591  0.89624123  0.63726778  1
  O  O306  1  0.65369220  0.39798031  0.13481896  1
  O  O307  1  0.64445712  0.36431394  0.61641821  1
  O  O308  1  0.68297715  0.98664445  0.14934003  1
  O  O309  1  0.59528380  0.89641204  0.62884780  1
  O  O310  1  0.06937391  0.24772706  0.29212788  1
  O  O311  1  0.15413124  0.27527929  0.72854273  1
  O  O312  1  0.11000071  0.71744996  0.26429149  1
  O  O313  1  0.12310350  0.72998235  0.80542265  1
  O  O314  1  0.55358272  0.21485089  0.15532303  1
  O  O315  1  0.62508420  0.25013575  0.75943599  1
  O  O316  1  0.60334278  0.74678141  0.30087538  1
  O  O317  1  0.63101626  0.77604590  0.71407834  1
  O  O318  1  0.42957452  0.28036089  0.22273485  1
  O  O319  1  0.35047001  0.20816246  0.80373225  1
  O  O320  1  0.40329283  0.82591363  0.27981991  1
  O  O321  1  0.41769341  0.71209481  0.81845625  1
  O  O322  1  0.87254736  0.23102972  0.24076763  1
  O  O323  1  0.87446865  0.26111932  0.74444852  1
  O  O324  1  0.87011026  0.75752665  0.23511521  1
  O  O325  1  0.89964451  0.73559078  0.75933929  1
  O  O326  1  0.37594613  0.47318127  0.55148493  1
  O  O327  1  0.40627562  0.49771176  1.00707446  1
  O  O328  1  0.37046975  1.04868953  0.50403419  1
  O  O329  1  0.35193148  1.02175512  0.96837900  1
  O  O330  1  0.94194913  0.53343277  0.43725488  1
  O  O331  1  0.87493560  0.50953808  0.98411831  1
  O  O332  1  0.84085357  0.99011042  0.48133967  1
  O  O333  1  0.89400495  1.02123804  0.93812335  1
  O  O334  1  0.08887603  -0.03475092  -0.01288219  1
  O  O335  1  0.11462273  -0.04967296  0.48901651  1
  O  O336  1  0.09253449  0.48880978  -0.00495697  1
  O  O337  1  0.13949444  0.52055210  0.54607080  1
  O  O338  1  0.63622203  0.01882073  -0.04037754  1
  O  O339  1  0.58922851  0.01525715  0.52464588  1
  O  O340  1  0.66202735  0.54087533  -0.00318064  1
  O  O341  1  0.74954864  0.54020733  0.45289572  1
  O  O342  1  0.29084476  0.37898521  0.11404757  1
  O  O343  1  0.35489221  0.31814950  0.64375693  1
  O  O344  1  0.45485950  0.84504759  0.12740204  1
  O  O345  1  0.36209804  0.88044187  0.65414490  1
  O  O346  1  0.85488260  0.36896229  0.14546989  1
  O  O347  1  0.84735679  0.40800924  0.61164495  1
  O  O348  1  0.86299109  0.88002798  0.13461271  1
  O  O349  1  0.88721367  0.84711984  0.66899094  1
  O  O350  1  0.11921304  0.11363230  0.40594779  1
  O  O351  1  0.13900291  0.16118269  0.83218734  1
  O  O352  1  0.21881264  0.61478204  0.30591407  1
  O  O353  1  0.14928050  0.61476428  0.90125758  1
  O  O354  1  0.61612883  0.13848019  0.31353964  1
  O  O355  1  0.63938521  0.14219133  0.86025181  1
  O  O356  1  0.60044566  0.63253118  0.38911174  1
  O  O357  1  0.63337490  0.68520896  0.84432982  1
