# generated using pymatgen
data_V51Zn51O256
_symmetry_space_group_name_H-M   'P 1'
_cell_length_a   18.04680573
_cell_length_b   17.40368063
_cell_length_c   17.57743312
_cell_angle_alpha   89.89960035
_cell_angle_beta   90.04059867
_cell_angle_gamma   89.65385521
_symmetry_Int_Tables_number   1
_chemical_formula_structural   V51Zn51O256
_chemical_formula_sum   'V51 Zn51 O256'
_cell_volume   5520.62436742
_cell_formula_units_Z   1
loop_
 _symmetry_equiv_pos_site_id
 _symmetry_equiv_pos_as_xyz
  1  'x, y, z'
loop_
 _atom_site_type_symbol
 _atom_site_label
 _atom_site_symmetry_multiplicity
 _atom_site_fract_x
 _atom_site_fract_y
 _atom_site_fract_z
 _atom_site_occupancy
  V  V0  1  0.17436389  0.87072777  0.63653278  1
  V  V1  1  0.73818924  0.66918699  0.87831202  1
  V  V2  1  0.42427451  0.12972904  0.64936129  1
  V  V3  1  0.16055269  0.12080257  0.45147598  1
  V  V4  1  0.46225569  0.62592906  0.08121503  1
  V  V5  1  0.88049175  0.40191810  -0.02148062  1
  V  V6  1  0.80652946  0.16755373  0.41554574  1
  V  V7  1  0.14611769  0.26486500  0.33104654  1
  V  V8  1  0.01169867  0.86466549  0.37035380  1
  V  V9  1  0.86756030  0.57140272  0.24600977  1
  V  V10  1  0.00775313  0.39438555  0.37712433  1
  V  V11  1  0.25551214  -0.02999658  0.27127655  1
  V  V12  1  0.41933720  0.66866069  0.26573046  1
  V  V13  1  0.64264721  0.63968982  0.61464572  1
  V  V14  1  0.17303821  -0.01242976  0.75752209  1
  V  V15  1  0.45948285  0.23803107  0.77460954  1
  V  V16  1  0.60629357  0.23771239  0.89817938  1
  V  V17  1  0.49410750  0.88490156  0.87785361  1
  V  V18  1  0.13425476  0.65528377  -0.00490782  1
  V  V19  1  0.25679648  0.32624174  0.59456921  1
  V  V20  1  0.04639831  0.36669023  0.86623115  1
  V  V21  1  0.33958460  0.76192715  0.63874514  1
  V  V22  1  0.60215703  0.66322611  0.42688206  1
  V  V23  1  0.62601752  0.33647865  0.74493011  1
  V  V24  1  0.89588287  0.45164735  0.82111237  1
  V  V25  1  0.34494259  0.00322142  0.85960157  1
  V  V26  1  0.36708765  0.36882251  -0.05007128  1
  V  V27  1  0.57192181  0.48358950  0.63801955  1
  V  V28  1  0.78512313  0.86699172  0.66435600  1
  V  V29  1  0.30540237  0.52978526  0.26580833  1
  V  V30  1  0.87623901  0.14054908  0.23180527  1
  V  V31  1  0.02619477  0.26428233  0.17702299  1
  V  V32  1  0.86304962  0.25429257  0.08914835  1
  V  V33  1  0.49727880  0.39128596  0.86130778  1
  V  V34  1  -0.03321361  0.64521681  0.57659888  1
  V  V35  1  0.34803523  0.88988076  0.00869294  1
  V  V36  1  0.36692249  0.76620322  0.13168683  1
  V  V37  1  0.22345562  0.64988285  0.82930261  1
  V  V38  1  0.48085531  0.00601274  0.37010208  1
  V  V39  1  0.10790778  0.55586943  0.53600647  1
  V  V40  1  0.45222441  0.86286937  0.51138085  1
  V  V41  1  0.84050643  0.89477706  0.02098184  1
  V  V42  1  0.11428118  0.29607083  0.69062129  1
  V  V43  1  0.14424019  0.74597178  0.32447541  1
  V  V44  1  0.13863657  0.87568766  0.19949752  1
  V  V45  1  0.00584790  0.76504912  0.20916895  1
  V  V46  1  0.48198211  0.01319726  0.01804341  1
  V  V47  1  0.54840351  0.29451605  0.24196468  1
  V  V48  1  0.60723540  0.54158882  0.09877154  1
  V  V49  1  0.00099696  0.61158737  0.11996220  1
  V  V50  1  0.57029785  0.03349512  0.65722740  1
  Zn  Zn51  1  0.78196294  0.00507197  0.51447705  1
  Zn  Zn52  1  0.40799193  0.18039313  0.93485967  1
  Zn  Zn53  1  0.18830218  0.91493174  0.43384226  1
  Zn  Zn54  1  0.35683754  0.11281955  0.46631774  1
  Zn  Zn55  1  0.94123285  0.06804078  0.06211781  1
  Zn  Zn56  1  0.48490960  0.49835177  0.22041367  1
  Zn  Zn57  1  0.04158275  0.01989472  0.91156913  1
  Zn  Zn58  1  1.01446404  0.20471291  0.97919035  1
  Zn  Zn59  1  0.05229289  0.84441456  0.02568376  1
  Zn  Zn60  1  0.67171894  0.56592272  0.26838481  1
  Zn  Zn61  1  0.91470526  0.72697499  0.33680076  1
  Zn  Zn62  1  0.12976356  0.69359546  0.65633488  1
  Zn  Zn63  1  0.30169525  0.84662759  0.80077923  1
  Zn  Zn64  1  0.89654497  0.70661931  0.98788462  1
  Zn  Zn65  1  0.04121158  0.48592448  0.00287856  1
  Zn  Zn66  1  0.65537767  0.13450935  0.78425678  1
  Zn  Zn67  1  0.96927665  0.97093804  0.22905320  1
  Zn  Zn68  1  0.02705126  0.81070905  0.54893890  1
  Zn  Zn69  1  0.27667749  0.15154702  0.24166262  1
  Zn  Zn70  1  0.57112065  0.22148173  0.62881300  1
  Zn  Zn71  1  0.42073259  0.92531480  0.69323762  1
  Zn  Zn72  1  0.19818121  0.14424013  0.63784841  1
  Zn  Zn73  1  1.03211653  0.59003730  0.32495522  1
  Zn  Zn74  1  0.42153553  0.71394189  0.45446214  1
  Zn  Zn75  1  0.81582632  0.55333181  0.66394727  1
  Zn  Zn76  1  0.43805327  0.35348082  0.65665246  1
  Zn  Zn77  1  0.54165348  0.34234104  0.04478657  1
  Zn  Zn78  1  0.51726909  0.80109603  0.02040311  1
  Zn  Zn79  1  0.42814349  0.93676172  0.19332665  1
  Zn  Zn80  1  0.11403294  0.31599055  0.50531889  1
  Zn  Zn81  1  0.63861068  0.91417506  0.99025631  1
  Zn  Zn82  1  0.52036297  0.06861064  0.83704064  1
  Zn  Zn83  1  0.67016501  0.36804570  0.55641136  1
  Zn  Zn84  1  0.35840493  0.05967171  0.11414432  1
  Zn  Zn85  1  0.18314831  0.93891827  0.94015524  1
  Zn  Zn86  1  0.62221164  0.83753332  0.61315863  1
  Zn  Zn87  1  0.82653175  0.34164548  0.36831275  1
  Zn  Zn88  1  0.99205656  0.18970283  0.34483958  1
  Zn  Zn89  1  0.72391533  0.49034141  0.97981839  1
  Zn  Zn90  1  0.74174597  0.27964890  0.21133789  1
  Zn  Zn91  1  0.20964491  0.43657063  0.41389800  1
  Zn  Zn92  1  0.63900578  0.11589183  0.31904595  1
  Zn  Zn93  1  0.60444879  0.95810883  0.48674081  1
  Zn  Zn94  1  0.94498687  0.42578140  0.16113114  1
  Zn  Zn95  1  0.84898357  0.81717161  0.84197556  1
  Zn  Zn96  1  0.39533253  0.71500860  0.93603184  1
  Zn  Zn97  1  0.19669627  0.66516435  0.15383371  1
  Zn  Zn98  1  0.33512744  0.80866204  0.33632393  1
  Zn  Zn99  1  0.76622821  0.32688981  0.86834560  1
  Zn  Zn100  1  0.20433877  0.48591375  0.92279858  1
  Zn  Zn101  1  0.09141065  0.02868322  0.32917624  1
  O  O102  1  0.21251581  0.10689124  0.13625332  1
  O  O103  1  0.13734981  0.12271503  0.54465598  1
  O  O104  1  0.10257400  0.63215348  0.09909886  1
  O  O105  1  0.15542997  0.63476560  0.56472919  1
  O  O106  1  0.62188818  0.11562822  0.09977980  1
  O  O107  1  0.59305212  0.11566818  0.60903628  1
  O  O108  1  0.56494806  0.62998139  0.06665950  1
  O  O109  1  0.56266778  0.58612597  0.64490209  1
  O  O110  1  0.34760687  0.34322724  0.33136016  1
  O  O111  1  0.39263649  0.38992714  0.85493040  1
  O  O112  1  0.40931898  0.83067365  0.42429002  1
  O  O113  1  0.35653925  0.89557406  0.89523159  1
  O  O114  1  0.91364505  0.39481624  0.38991945  1
  O  O115  1  0.86656009  0.35775491  0.83562641  1
  O  O116  1  0.92151217  0.83390184  0.37613596  1
  O  O117  1  0.82956748  0.89793378  0.91179933  1
  O  O118  1  0.27750426  -0.08492686  0.35462663  1
  O  O119  1  0.24090409  -0.01609612  0.85799929  1
  O  O120  1  0.27591311  0.49512082  0.35313968  1
  O  O121  1  0.24637449  0.55533617  0.84718944  1
  O  O122  1  0.70171871  -0.03510238  0.46122191  1
  O  O123  1  0.72780238  0.06729504  0.90620465  1
  O  O124  1  0.76076950  0.47845265  0.42543583  1
  O  O125  1  0.71960842  0.56998568  0.89632578  1
  O  O126  1  0.17940414  0.45941413  0.10563954  1
  O  O127  1  0.13885996  0.49007365  0.62223931  1
  O  O128  1  0.32824080  0.98747257  0.20771363  1
  O  O129  1  0.11958987  0.95006454  0.67461459  1
  O  O130  1  0.69885305  0.55627047  0.08765240  1
  O  O131  1  0.81221399  0.42896873  0.59971723  1
  O  O132  1  0.68139162  1.14544664  0.08285244  1
  O  O133  1  0.78236132  0.96323021  0.61984557  1
  O  O134  1  0.03370109  0.36281981  0.17568187  1
  O  O135  1  0.06194984  0.33366882  0.76657074  1
  O  O136  1  0.03440362  0.86954147  0.23506778  1
  O  O137  1  0.07153856  0.82041238  0.81638399  1
  O  O138  1  0.50277390  0.38665825  0.23036325  1
  O  O139  1  0.49354922  0.34230379  0.75698663  1
  O  O140  1  0.62714552  0.98783495  0.22772339  1
  O  O141  1  0.48604462  0.88848257  0.78062423  1
  O  O142  1  0.59850813  0.20649037  0.26412586  1
  O  O143  1  0.47339696  0.13594371  0.75801257  1
  O  O144  1  0.50882855  0.67560162  0.26936543  1
  O  O145  1  0.43421620  0.57362583  0.76198902  1
  O  O146  1  0.96885816  0.18609422  0.22996722  1
  O  O147  1  0.89723658  0.02510594  0.79724386  1
  O  O148  1  1.02344339  0.65705966  0.21375867  1
  O  O149  1  1.02507661  0.65204047  0.65245460  1
  O  O150  1  0.34955594  0.27250072  -0.04302722  1
  O  O151  1  0.38053315  0.25283478  0.44846049  1
  O  O152  1  0.35440982  0.78489294  0.01330174  1
  O  O153  1  0.39656913  0.76377513  0.55296802  1
  O  O154  1  0.88869503  0.29147122  -0.00280662  1
  O  O155  1  0.94686229  0.11962179  0.64505063  1
  O  O156  1  0.83301212  0.78999119  0.03049478  1
  O  O157  1  0.80062822  0.72135075  0.40298674  1
  O  O158  1  0.14334428  0.23564213  0.43324565  1
  O  O159  1  0.14034691  0.09748142  1.12160804  1
  O  O160  1  0.22013147  0.74217417  0.47997521  1
  O  O161  1  0.09198198  0.74484712  0.99050130  1
  O  O162  1  0.59413672  0.23920097  0.48875695  1
  O  O163  1  0.59076563  0.25875653  0.99031347  1
  O  O164  1  0.62542455  0.72970732  0.64619673  1
  O  O165  1  0.61663972  0.82344578  1.04189308  1
  O  O166  1  0.53066275  0.28585902  0.14014299  1
  O  O167  1  0.46405446  0.23426641  0.65429952  1
  O  O168  1  0.46643305  0.73698492  0.09161038  1
  O  O169  1  0.51842355  0.70073813  0.78798229  1
  O  O170  1  1.03825066  0.22967808  0.08605818  1
  O  O171  1  0.98217688  0.06399183  0.66856671  1
  O  O172  1  1.00988972  0.78008658  0.11357276  1
  O  O173  1  0.95293788  0.73600105  0.53723164  1
  O  O174  1  0.02993745  0.29770662  0.34079651  1
  O  O175  1  0.03826497  0.27430559  0.90093380  1
  O  O176  1  0.02824929  0.76087749  0.32805001  1
  O  O177  1  -0.07582017  0.77364047  0.90772634  1
  O  O178  1  0.57106710  0.33695970  0.32835670  1
  O  O179  1  0.48962368  0.23922341  0.87313993  1
  O  O180  1  0.51183738  0.65453228  0.45317427  1
  O  O181  1  0.47958941  0.78455737  0.90869738  1
  O  O182  1  0.25510775  0.12852599  0.45172215  1
  O  O183  1  0.24422251  0.14558374  1.01648751  1
  O  O184  1  0.26349853  0.68834095  0.47429724  1
  O  O185  1  0.22197029  0.66406709  1.02022262  1
  O  O186  1  0.80977701  0.11017272  0.49598276  1
  O  O187  1  0.78939615  0.09821541  0.91063662  1
  O  O188  1  0.71882570  0.59389116  0.65053872  1
  O  O189  1  0.80648346  0.65554910  0.95793188  1
  O  O190  1  0.28857643  0.42305978  -0.03627840  1
  O  O191  1  0.21659277  0.36808423  0.51132185  1
  O  O192  1  0.25415048  0.89774681  0.01045600  1
  O  O193  1  0.19453949  0.90476849  0.54787954  1
  O  O194  1  0.77678504  0.39607828  -0.03970178  1
  O  O195  1  0.78292273  0.38638090  0.54948653  1
  O  O196  1  0.74290449  0.91274612  0.00797460  1
  O  O197  1  0.73199935  0.84144710  0.57517192  1
  O  O198  1  0.18499888  0.41041882  0.15485629  1
  O  O199  1  0.06529741  0.48265538  0.61059125  1
  O  O200  1  0.14708420  0.97138584  0.24978551  1
  O  O201  1  0.10193425  1.01602658  0.81665442  1
  O  O202  1  0.59645556  0.52948388  0.20227600  1
  O  O203  1  0.60776407  0.44083747  0.72140432  1
  O  O204  1  0.67974463  1.04313460  0.24014904  1
  O  O205  1  0.60871969  1.03914050  0.74900993  1
  O  O206  1  0.47174692  -0.05011167  0.29026736  1
  O  O207  1  0.35962469  -0.00724428  0.76624276  1
  O  O208  1  0.40873127  0.55834332  0.27539758  1
  O  O209  1  0.38029116  0.53192233  0.76569180  1
  O  O210  1  0.87863816  0.04360922  0.23300562  1
  O  O211  1  0.94719054  -0.01644746  0.82506209  1
  O  O212  1  0.88834705  0.47601161  0.23978957  1
  O  O213  1  0.85038376  0.49797591  0.74870532  1
  O  O214  1  0.16803618  0.35844878  0.34301415  1
  O  O215  1  0.12802859  0.40329078  0.89340131  1
  O  O216  1  0.12838604  0.84124063  0.37098433  1
  O  O217  1  0.08081875  0.92544668  0.95253335  1
  O  O218  1  0.64308569  0.28866895  0.47150261  1
  O  O219  1  0.59414893  0.34385514  0.85719105  1
  O  O220  1  0.59599828  0.75364136  0.36431489  1
  O  O221  1  0.58738942  0.89724885  0.89122751  1
  O  O222  1  0.34478012  0.15284220  0.16243080  1
  O  O223  1  0.33894376  0.13030956  0.67690566  1
  O  O224  1  0.39209822  0.65091976  0.15861108  1
  O  O225  1  0.34353627  0.67487037  0.67177967  1
  O  O226  1  0.88163260  0.15294829  0.11081889  1
  O  O227  1  0.79698077  0.11898373  0.69654537  1
  O  O228  1  0.90004854  0.61123742  0.16105700  1
  O  O229  1  0.88410657  0.60397743  0.60085438  1
  O  O230  1  0.21054026  0.28394600  0.08166415  1
  O  O231  1  0.25498993  0.22894245  0.58841474  1
  O  O232  1  0.27730082  0.74156764  0.13622486  1
  O  O233  1  0.24324002  0.78689146  0.63075613  1
  O  O234  1  0.77351177  0.27900578  0.10414219  1
  O  O235  1  0.84771447  0.25531497  0.62277677  1
  O  O236  1  0.74149308  0.82641157  0.29258396  1
  O  O237  1  0.79284442  0.76903172  0.66415851  1
  O  O238  1  0.22906905  0.22519333  0.30492310  1
  O  O239  1  0.21434811  0.25045623  0.85885026  1
  O  O240  1  0.23806430  0.75116943  0.32979297  1
  O  O241  1  0.26605084  0.75320494  0.85861138  1
  O  O242  1  0.80860555  0.26254329  0.44371152  1
  O  O243  1  0.70213004  0.24124764  0.88640617  1
  O  O244  1  0.64881525  0.76379914  0.41850195  1
  O  O245  1  0.74809206  0.77490658  0.86923499  1
  O  O246  1  0.12401716  0.04728360  0.07071296  1
  O  O247  1  -0.03209443  0.05917104  0.48901183  1
  O  O248  1  -0.03190346  0.64474257  0.03317172  1
  O  O249  1  -0.19600536  0.69707058  0.46922995  1
  O  O250  1  0.46547953  0.10996351  -0.00328756  1
  O  O251  1  0.41973385  0.12355655  0.55131352  1
  O  O252  1  0.42074121  0.62122609  -0.00562457  1
  O  O253  1  0.39744170  0.46944994  0.48986746  1
  O  O254  1  0.43306588  0.29293739  0.46921415  1
  O  O255  1  0.47289668  0.38144954  0.96789311  1
  O  O256  1  0.53686770  0.82746672  0.54200976  1
  O  O257  1  0.46548108  0.90222096  0.99455544  1
  O  O258  1  1.04753929  0.39449962  0.46543625  1
  O  O259  1  0.98664884  0.40230394  0.95921530  1
  O  O260  1  1.03192828  0.87925605  0.46620154  1
  O  O261  1  0.93692610  0.87723134  1.00870415  1
  O  O262  1  0.45026078  0.50088755  0.45974478  1
  O  O263  1  0.51671588  0.48077180  0.84905967  1
  O  O264  1  0.55613338  1.06590600  0.36463768  1
  O  O265  1  0.45969072  0.99555992  0.88931356  1
  O  O266  1  1.03350483  0.47879538  0.33003522  1
  O  O267  1  0.99192176  0.44685133  0.81529379  1
  O  O268  1  1.00101272  0.96427399  0.33562344  1
  O  O269  1  0.99029923  1.09791599  0.96771786  1
  O  O270  1  -0.01169899  -0.00161411  0.12850352  1
  O  O271  1  -0.05754645  -0.00531043  0.50875805  1
  O  O272  1  0.00764840  0.51121229  0.10900235  1
  O  O273  1  0.01689402  0.59009587  0.50507494  1
  O  O274  1  0.46880220  0.01213636  0.11864373  1
  O  O275  1  0.47207770  0.02853781  0.66193829  1
  O  O276  1  0.47742032  0.52938114  0.11328256  1
  O  O277  1  0.48954773  0.44161574  0.61759867  1
  O  O278  1  0.31416950  0.45660253  0.20806475  1
  O  O279  1  0.20092447  0.34688050  0.67713427  1
  O  O280  1  0.23451108  0.87373450  0.21377955  1
  O  O281  1  0.22202089  0.89122560  0.73714966  1
  O  O282  1  0.75980221  0.34777401  0.28952135  1
  O  O283  1  0.71576661  0.34227715  0.76585495  1
  O  O284  1  0.73196301  0.89528012  0.30299235  1
  O  O285  1  0.80012874  0.89001828  0.76160618  1
  O  O286  1  0.24289502  0.06288866  0.30179570  1
  O  O287  1  0.21272700  0.06205594  0.71214606  1
  O  O288  1  0.24596621  0.59838437  0.22544946  1
  O  O289  1  0.19112334  0.66422065  0.73920756  1
  O  O290  1  0.78831333  0.17823502  0.22842032  1
  O  O291  1  0.76725901  0.14342393  0.75659178  1
  O  O292  1  0.77357579  0.58566929  0.26013028  1
  O  O293  1  0.69041843  0.66238093  0.79574850  1
  O  O294  1  0.40180835  0.05951214  0.38408264  1
  O  O295  1  0.34971806  0.09854952  0.88339582  1
  O  O296  1  0.37912231  0.69025242  0.35595145  1
  O  O297  1  0.32359375  0.69305320  0.85184844  1
  O  O298  1  0.88441622  0.15731789  0.34507013  1
  O  O299  1  0.91368613  0.16930895  0.81868381  1
  O  O300  1  0.91986254  0.61505226  0.32447686  1
  O  O301  1  0.82518137  0.66179352  0.82778032  1
  O  O302  1  0.17712979  0.30253895  0.02347641  1
  O  O303  1  0.07112958  0.29912288  0.60423637  1
  O  O304  1  0.12443792  0.88822050  0.10709455  1
  O  O305  1  0.09905161  0.80320992  0.62889896  1
  O  O306  1  0.60569609  0.43322486  0.06798948  1
  O  O307  1  0.62645278  0.31385185  0.63978500  1
  O  O308  1  0.64075575  0.93834855  0.17667104  1
  O  O309  1  0.68934817  0.87906667  0.70293087  1
  O  O310  1  0.10636687  0.24233669  0.23020379  1
  O  O311  1  0.13429109  0.20305593  0.70900351  1
  O  O312  1  0.13184803  0.76345887  0.21998684  1
  O  O313  1  0.05486286  0.75261878  0.82005912  1
  O  O314  1  0.63989387  0.31750814  0.19846458  1
  O  O315  1  0.60348904  0.23262376  0.75744540  1
  O  O316  1  0.63111791  0.59408058  0.36501334  1
  O  O317  1  0.49762907  0.71995583  0.72481268  1
  O  O318  1  0.47250829  0.24194550  0.26593161  1
  O  O319  1  0.37051761  0.24989865  0.78097670  1
  O  O320  1  0.39018920  0.77610004  0.23470578  1
  O  O321  1  0.36869548  0.82471881  0.71340432  1
  O  O322  1  0.91174810  0.30327525  0.15855320  1
  O  O323  1  0.91630318  0.20494713  0.75853461  1
  O  O324  1  0.91307256  0.76860279  0.22872433  1
  O  O325  1  0.90902542  0.78996468  0.76428866  1
  O  O326  1  0.38964918  0.38978153  0.36023472  1
  O  O327  1  0.37828025  0.37323240  1.08450642  1
  O  O328  1  0.50262153  0.94867496  0.45652269  1
  O  O329  1  0.36205163  0.99616317  1.02028741  1
  O  O330  1  0.78505356  0.53387110  0.46048883  1
  O  O331  1  0.87732752  0.49017826  0.91295545  1
  O  O332  1  0.88224607  0.96513035  0.47130962  1
  O  O333  1  0.86526830  0.99190379  1.02423560  1
  O  O334  1  0.18815640  0.13252058  -0.02114200  1
  O  O335  1  0.14912392  0.01953848  0.42776158  1
  O  O336  1  0.12310789  0.54459924  -0.02589932  1
  O  O337  1  0.15338306  0.51699503  0.46247649  1
  O  O338  1  0.57698750  0.00195150  0.00932533  1
  O  O339  1  0.59841014  -0.04578540  0.60367635  1
  O  O340  1  0.61299875  0.47998096  -0.00160779  1
  O  O341  1  0.63106739  0.46915233  0.56248641  1
  O  O342  1  0.35890067  0.31483721  0.11962869  1
  O  O343  1  0.34449476  0.35835357  0.60991524  1
  O  O344  1  0.37817254  0.87037243  0.11757454  1
  O  O345  1  0.40816816  0.91565174  0.57928632  1
  O  O346  1  0.87817774  0.43897207  0.06509231  1
  O  O347  1  0.90566575  0.29184373  0.62377922  1
  O  O348  1  0.83130122  0.89334002  0.11892016  1
  O  O349  1  0.87674033  0.87890167  0.63848732  1
  O  O350  1  0.08467606  0.13460738  0.36179405  1
  O  O351  1  0.23070826  0.18594658  0.83679472  1
  O  O352  1  0.11886297  0.65353001  0.35055480  1
  O  O353  1  0.14548157  0.65999245  0.88502335  1
  O  O354  1  0.72355955  0.15074970  0.37211937  1
  O  O355  1  0.59760709  0.13468404  0.88083887  1
  O  O356  1  0.65281401  0.64489450  0.51489846  1
  O  O357  1  0.66955964  0.69754567  0.94156695  1
