# generated using pymatgen
data_V51Zn51O256
_symmetry_space_group_name_H-M   'P 1'
_cell_length_a   17.72138815
_cell_length_b   17.98187558
_cell_length_c   17.62157251
_cell_angle_alpha   90.08416744
_cell_angle_beta   89.49928313
_cell_angle_gamma   89.83816671
_symmetry_Int_Tables_number   1
_chemical_formula_structural   V51Zn51O256
_chemical_formula_sum   'V51 Zn51 O256'
_cell_volume   5615.11410910
_cell_formula_units_Z   1
loop_
 _symmetry_equiv_pos_site_id
 _symmetry_equiv_pos_as_xyz
  1  'x, y, z'
loop_
 _atom_site_type_symbol
 _atom_site_label
 _atom_site_symmetry_multiplicity
 _atom_site_fract_x
 _atom_site_fract_y
 _atom_site_fract_z
 _atom_site_occupancy
  V  V0  1  0.29618954  0.52525823  0.71539799  1
  V  V1  1  0.11615658  0.65826165  0.57860700  1
  V  V2  1  0.28965672  -0.01578676  0.37805934  1
  V  V3  1  -0.00132877  0.49251203  0.03377800  1
  V  V4  1  0.10737106  0.12632073  0.01766724  1
  V  V5  1  0.42340788  0.51489942  0.86846111  1
  V  V6  1  0.76608251  0.62511321  0.90338439  1
  V  V7  1  0.83305003  0.11029871  0.27071133  1
  V  V8  1  -0.01329140  0.13539730  0.62263870  1
  V  V9  1  0.63842415  0.65688198  0.41651985  1
  V  V10  1  0.18874054  0.07104990  0.70768704  1
  V  V11  1  -0.00357259  0.37563378  0.89665650  1
  V  V12  1  0.37219665  0.63488961  0.22955476  1
  V  V13  1  0.52248258  0.23382728  0.25722726  1
  V  V14  1  0.12946513  0.61590886  -0.05722246  1
  V  V15  1  0.53103500  0.39158761  0.92007556  1
  V  V16  1  0.18413580  0.84768028  0.77609062  1
  V  V17  1  0.21540114  0.15189012  0.36403577  1
  V  V18  1  0.45619470  0.79280625  0.25690992  1
  V  V19  1  0.12802556  0.83108408  0.27379193  1
  V  V20  1  0.88720418  0.39028882  0.50986497  1
  V  V21  1  0.37169155  0.18135951  0.16575732  1
  V  V22  1  0.31820453  0.38723930  0.57377851  1
  V  V23  1  0.78191453  -0.04986705  0.76985073  1
  V  V24  1  0.70531296  0.20316231  0.52008508  1
  V  V25  1  0.78667409  0.83311086  0.13451088  1
  V  V26  1  0.44657666  0.39811692  0.28219832  1
  V  V27  1  0.58386002  0.89023574  0.30600541  1
  V  V28  1  0.90087083  0.52025303  0.86870725  1
  V  V29  1  0.27690837  0.62953974  0.46667396  1
  V  V30  1  0.38955294  0.78299128  0.02622356  1
  V  V31  1  0.52085707  0.73619378  0.70166970  1
  V  V32  1  0.36091040  0.21197293  0.52467254  1
  V  V33  1  0.87518721  0.28904325  0.17566715  1
  V  V34  1  0.50413436  0.66001059  0.04732498  1
  V  V35  1  0.40252586  0.02587289  0.87655120  1
  V  V36  1  0.74971400  0.70625806  0.54890458  1
  V  V37  1  0.54538408  0.25083620  0.79815513  1
  V  V38  1  0.85823140  0.16074900  0.77157167  1
  V  V39  1  0.42603758  0.88532290  0.41555267  1
  V  V40  1  -0.02510922  0.88899039  0.86808976  1
  V  V41  1  0.76924156  0.07047950  0.92343222  1
  V  V42  1  -0.00390615  0.25510664  0.77536144  1
  V  V43  1  0.30571675  0.80574052  0.61814634  1
  V  V44  1  0.90814351  0.63408203  0.28953264  1
  V  V45  1  0.65681969  0.44586237  0.12856518  1
  V  V46  1  0.36531572  0.04344563  0.52068075  1
  V  V47  1  0.00567862  0.14368695  0.17007252  1
  V  V48  1  0.14686955  0.43862797  0.64467156  1
  V  V49  1  0.17555468  -0.07859180  0.09167600  1
  V  V50  1  0.77944825  0.25762311  0.01289596  1
  Zn  Zn51  1  0.06291732  0.78735289  0.01956119  1
  Zn  Zn52  1  0.49037605  0.51098666  0.15033176  1
  Zn  Zn53  1  0.32836741  0.63474411  -0.01885117  1
  Zn  Zn54  1  0.72692024  0.44307749  0.94880513  1
  Zn  Zn55  1  0.71070027  0.75012100  0.74721990  1
  Zn  Zn56  1  0.51958049  0.15487234  0.52207731  1
  Zn  Zn57  1  0.45568051  0.69701869  0.86852651  1
  Zn  Zn58  1  0.82396865  0.33919725  0.85132183  1
  Zn  Zn59  1  0.17294031  0.66481326  0.76442139  1
  Zn  Zn60  1  0.22950732  0.75277688  0.15768501  1
  Zn  Zn61  1  0.59617140  0.49852808  0.29952824  1
  Zn  Zn62  1  0.59807969  0.55128312  0.97277728  1
  Zn  Zn63  1  0.93976555  0.65639277  0.54546375  1
  Zn  Zn64  1  0.80526400  0.56066650  0.46848425  1
  Zn  Zn65  1  0.94699878  0.69477307  0.93515944  1
  Zn  Zn66  1  0.71573453  0.26531724  0.69939195  1
  Zn  Zn67  1  0.19766950  0.47058805  0.47114012  1
  Zn  Zn68  1  0.50826817  0.33573284  0.11357666  1
  Zn  Zn69  1  0.87151746  0.18854915  0.46993754  1
  Zn  Zn70  1  0.15346625  0.83327583  0.60456497  1
  Zn  Zn71  1  0.71419299  0.81755997  0.43738504  1
  Zn  Zn72  1  0.09979634  0.96159761  0.92575571  1
  Zn  Zn73  1  0.29474980  0.04384816  0.04692322  1
  Zn  Zn74  1  0.71102884  0.20819079  0.18308274  1
  Zn  Zn75  1  0.82520507  0.79693070  0.84642131  1
  Zn  Zn76  1  0.78172981  0.74799950  0.30531786  1
  Zn  Zn77  1  0.15714206  0.11306977  0.54466170  1
  Zn  Zn78  1  0.78575259  0.09307101  0.64265596  1
  Zn  Zn79  1  0.54802739  0.76719981  0.52399538  1
  Zn  Zn80  1  0.85429943  0.01908621  0.10491710  1
  Zn  Zn81  1  0.78791166  0.26328992  0.34991264  1
  Zn  Zn82  1  0.39943893  0.14734064  0.36430339  1
  Zn  Zn83  1  0.03113809  0.08315251  0.84297458  1
  Zn  Zn84  1  0.38304559  0.36456370  0.77685774  1
  Zn  Zn85  1  0.45612435  0.30510959  0.64625436  1
  Zn  Zn86  1  0.01506468  -0.03882466  0.19660463  1
  Zn  Zn87  1  0.38446610  0.84576847  0.78204560  1
  Zn  Zn88  1  0.40618231  0.63399758  0.59981369  1
  Zn  Zn89  1  0.58318328  0.78644693  0.12905545  1
  Zn  Zn90  1  0.32672151  0.92928941  0.20104932  1
  Zn  Zn91  1  0.57965103  0.09131152  0.88885615  1
  Zn  Zn92  1  1.05402524  0.96372644  0.71400856  1
  Zn  Zn93  1  0.96816657  0.45616083  0.21576304  1
  Zn  Zn94  1  0.95629193  0.43007578  0.69622338  1
  Zn  Zn95  1  0.34971566  0.97641133  0.70140751  1
  Zn  Zn96  1  0.13880989  0.24189040  0.67147620  1
  Zn  Zn97  1  0.43911739  0.67099120  0.40501522  1
  Zn  Zn98  1  0.23886143  0.81031968  0.42885494  1
  Zn  Zn99  1  0.19707714  0.17386272  0.15446748  1
  Zn  Zn100  1  0.29794741  0.32538194  0.39420402  1
  Zn  Zn101  1  0.11053202  0.49053571  0.79928134  1
  O  O102  1  0.09127266  0.18893655  0.17760655  1
  O  O103  1  0.08136113  0.17278307  0.60146405  1
  O  O104  1  0.14316587  0.55058932  0.24186176  1
  O  O105  1  0.11434402  0.64104422  0.67310995  1
  O  O106  1  0.58562170  0.10703830  0.12512939  1
  O  O107  1  0.53387866  0.07460974  0.65539905  1
  O  O108  1  0.58160736  0.68260299  0.10769775  1
  O  O109  1  0.62961931  0.56378561  0.67204019  1
  O  O110  1  0.35933933  0.37698282  0.31748813  1
  O  O111  1  0.44926398  0.40811870  0.85245645  1
  O  O112  1  0.32390470  0.88050487  0.40062187  1
  O  O113  1  0.40255792  0.95509261  0.80513183  1
  O  O114  1  0.79286796  0.38198320  0.34868744  1
  O  O115  1  0.89776158  0.41113882  0.88627648  1
  O  O116  1  0.80087164  0.82554093  0.37106236  1
  O  O117  1  0.87506872  0.88288270  0.89684701  1
  O  O118  1  0.20070033  -0.02554458  0.36074719  1
  O  O119  1  0.34291340  0.11379810  0.85021403  1
  O  O120  1  0.25052640  0.55081382  0.42017086  1
  O  O121  1  0.34838442  0.48120962  0.78942384  1
  O  O122  1  0.76036680  -0.06559507  0.48724912  1
  O  O123  1  0.75196582  -0.01123915  0.86309716  1
  O  O124  1  0.62448930  0.57837138  0.36428684  1
  O  O125  1  0.79693568  0.51582580  0.89875820  1
  O  O126  1  0.28140545  0.38927014  -0.00633822  1
  O  O127  1  0.26234171  0.46170202  0.61355811  1
  O  O128  1  0.27219910  0.95778436  0.11368421  1
  O  O129  1  0.17608151  1.03782588  0.61566476  1
  O  O130  1  0.73865613  0.43307512  0.16920831  1
  O  O131  1  0.73493032  0.42807376  0.72595060  1
  O  O132  1  0.78563939  0.93402863  0.14102561  1
  O  O133  1  0.74816168  1.00320945  0.69343738  1
  O  O134  1  0.04520633  0.41983634  0.29100016  1
  O  O135  1  -0.02625602  0.35192800  0.77161264  1
  O  O136  1  0.04316710  0.87831839  0.26016389  1
  O  O137  1  0.00371814  0.88394134  0.77401511  1
  O  O138  1  0.45192832  0.40694138  0.18150838  1
  O  O139  1  0.54337772  0.43233630  0.70411333  1
  O  O140  1  0.48777275  0.90976643  0.33628934  1
  O  O141  1  0.55386531  0.93431716  0.74906045  1
  O  O142  1  0.50290379  0.16826553  0.32284868  1
  O  O143  1  0.55853886  0.15632396  0.80762353  1
  O  O144  1  0.44557335  0.70652806  0.21295747  1
  O  O145  1  0.49716373  0.65361922  0.65822726  1
  O  O146  1  1.01195126  0.06937663  0.22895182  1
  O  O147  1  0.96476409  0.15858544  0.80982463  1
  O  O148  1  0.99047781  0.63767186  0.33941232  1
  O  O149  1  0.94836122  0.75744121  0.62956086  1
  O  O150  1  0.36711004  0.26136343  -0.08353539  1
  O  O151  1  0.36628431  0.24014732  0.42910385  1
  O  O152  1  0.37264645  0.73005680  -0.06343846  1
  O  O153  1  0.24899566  0.83637729  0.53929155  1
  O  O154  1  0.85693596  0.28041397  0.07649958  1
  O  O155  1  0.86496262  0.29758625  0.47700354  1
  O  O156  1  0.97003400  0.73321642  0.03382788  1
  O  O157  1  0.83823544  0.64179542  0.53794587  1
  O  O158  1  0.07490661  0.29244738  0.36122097  1
  O  O159  1  0.11124560  0.21388423  0.99734088  1
  O  O160  1  0.10225714  0.75161556  0.56189393  1
  O  O161  1  0.07569387  0.69640072  0.94309175  1
  O  O162  1  0.62154594  0.15195484  0.52536263  1
  O  O163  1  0.54275047  0.11751692  1.07176668  1
  O  O164  1  0.65770641  0.74846916  0.50659190  1
  O  O165  1  0.63317013  0.80605700  0.92115867  1
  O  O166  1  0.46435963  0.23986255  0.16773858  1
  O  O167  1  0.45017123  0.22538189  0.57238905  1
  O  O168  1  0.48508095  0.77064308  0.06431041  1
  O  O169  1  0.53110732  0.79860819  0.62884163  1
  O  O170  1  0.94859469  0.22859780  0.19928192  1
  O  O171  1  0.97539304  0.22673143  0.67999565  1
  O  O172  1  1.14060129  0.57853460  0.17850899  1
  O  O173  1  0.89097595  0.90030046  0.59245715  1
  O  O174  1  0.06244617  0.30765413  0.42773742  1
  O  O175  1  -0.00493605  0.28142485  0.89240333  1
  O  O176  1  -0.03149098  0.77593875  0.47214981  1
  O  O177  1  -0.06858662  0.77879209  0.86578718  1
  O  O178  1  0.50896906  0.32118450  0.30405643  1
  O  O179  1  0.53772076  0.29153743  0.88854339  1
  O  O180  1  0.42768215  0.77780158  0.35040874  1
  O  O181  1  0.45532028  0.76504008  0.77897139  1
  O  O182  1  0.16064586  0.14612271  0.44497799  1
  O  O183  1  0.19660313  0.10608389  1.06370060  1
  O  O184  1  0.37592165  0.62675859  0.49042609  1
  O  O185  1  0.21848707  0.63962710  0.96981969  1
  O  O186  1  0.78074440  0.13891645  0.53947766  1
  O  O187  1  0.80572098  0.03812857  1.00596197  1
  O  O188  1  0.71072061  0.62209782  0.48125748  1
  O  O189  1  0.77955348  0.65896804  0.98723521  1
  O  O190  1  0.30093443  0.26988867  -0.10957105  1
  O  O191  1  0.25897302  0.38166186  0.48031060  1
  O  O192  1  0.25974478  0.84493032  -0.05490020  1
  O  O193  1  0.05299413  0.91936787  0.52536558  1
  O  O194  1  0.76468757  0.33525861  -0.05102031  1
  O  O195  1  0.74089291  0.43217286  0.33495664  1
  O  O196  1  0.80145653  0.84773008  0.03803088  1
  O  O197  1  0.79621823  0.78283508  0.51971535  1
  O  O198  1  0.26910107  0.45247422  0.14917547  1
  O  O199  1  0.19935733  0.47880054  0.72982284  1
  O  O200  1  0.18458342  0.89811209  0.21502327  1
  O  O201  1  0.10471872  1.05142755  0.76259218  1
  O  O202  1  0.59540969  0.50274465  0.19044478  1
  O  O203  1  0.63730809  0.56153942  0.74063442  1
  O  O204  1  0.61808086  0.95990215  0.25919457  1
  O  O205  1  0.60017557  1.06963001  0.67526451  1
  O  O206  1  0.33869863  -0.01521517  0.29316005  1
  O  O207  1  0.26582485  0.02526230  0.74479660  1
  O  O208  1  0.39610089  0.55328367  0.18489921  1
  O  O209  1  0.36464027  0.55037080  0.65078748  1
  O  O210  1  0.83768881  0.02572797  0.30456816  1
  O  O211  1  0.87334933  -0.04076195  0.76212446  1
  O  O212  1  0.91569811  0.53819640  0.26361416  1
  O  O213  1  0.91840416  0.50780983  0.77377489  1
  O  O214  1  0.13827522  0.45972074  0.36461379  1
  O  O215  1  0.08105444  0.40989075  0.86264300  1
  O  O216  1  0.14786736  0.81997049  0.36956610  1
  O  O217  1  0.15101537  0.91070263  0.83983162  1
  O  O218  1  0.68011043  0.40795335  0.49805415  1
  O  O219  1  0.62455250  0.41104763  0.90718455  1
  O  O220  1  0.63570285  0.87083278  0.38440152  1
  O  O221  1  0.57093632  0.83623015  0.92170264  1
  O  O222  1  0.36850058  0.11068572  0.10096051  1
  O  O223  1  0.30828030  0.13093012  0.54681197  1
  O  O224  1  0.40324747  0.65582853  0.06220123  1
  O  O225  1  0.36439998  0.73496845  0.59632916  1
  O  O226  1  0.87672525  0.10414552  0.17410328  1
  O  O227  1  0.89076108  0.11518098  0.68446216  1
  O  O228  1  0.94164905  0.64541731  0.19680091  1
  O  O229  1  0.85294035  0.61362546  0.69433356  1
  O  O230  1  0.28878195  0.23110568  0.15553516  1
  O  O231  1  0.30470129  0.27773973  0.56550319  1
  O  O232  1  0.30839310  0.78027352  0.08350941  1
  O  O233  1  0.23636851  0.77433342  0.67839534  1
  O  O234  1  0.70929583  0.23439894  0.07586687  1
  O  O235  1  0.70509363  0.27003879  0.58976469  1
  O  O236  1  0.81520804  0.74301358  0.11558765  1
  O  O237  1  0.73565102  0.71123039  0.64402535  1
  O  O238  1  0.23528474  0.24307096  0.35007217  1
  O  O239  1  0.29150288  0.31527735  0.83045084  1
  O  O240  1  0.26440224  0.70603574  0.41194964  1
  O  O241  1  0.21421582  0.79529091  0.94126618  1
  O  O242  1  0.71632770  0.24266296  0.43163272  1
  O  O243  1  0.79836776  0.18154058  0.96051636  1
  O  O244  1  0.68474024  0.71570831  0.35468989  1
  O  O245  1  0.76271641  0.70731213  0.83792942  1
  O  O246  1  0.01750906  0.11324455  0.07406244  1
  O  O247  1  -0.05575868  0.13951518  0.53597901  1
  O  O248  1  0.07218526  0.57991355  0.03298929  1
  O  O249  1  0.03562734  0.61962079  0.53702838  1
  O  O250  1  0.64354052  -0.00181292  0.04058212  1
  O  O251  1  0.43188833  0.11478885  0.47440320  1
  O  O252  1  0.52751681  0.66837313  -0.04867903  1
  O  O253  1  0.58256371  0.52263442  0.53316083  1
  O  O254  1  0.62731042  0.38124645  0.46351873  1
  O  O255  1  0.50108984  0.37415455  1.01112647  1
  O  O256  1  0.46621405  0.83330954  0.48311519  1
  O  O257  1  0.54222850  0.89910646  1.08460550  1
  O  O258  1  0.96353043  0.41679268  0.46247858  1
  O  O259  1  1.00149355  0.39673042  0.99652565  1
  O  O260  1  0.93423752  0.83232438  0.45213558  1
  O  O261  1  1.03869430  0.86201738  0.94100583  1
  O  O262  1  0.48929189  0.47196056  0.32417956  1
  O  O263  1  0.51187336  0.50004537  0.92125536  1
  O  O264  1  0.42256541  0.97462612  0.45567652  1
  O  O265  1  0.49287536  1.03511280  0.91197089  1
  O  O266  1  1.06634739  0.46224889  0.35029824  1
  O  O267  1  0.98642726  0.51959518  0.91593815  1
  O  O268  1  0.96053427  0.96371565  0.38070871  1
  O  O269  1  0.99232263  0.98582820  0.88201221  1
  O  O270  1  0.10385749  -0.02732014  0.12798839  1
  O  O271  1  0.01029771  0.04344197  0.64025559  1
  O  O272  1  0.02672936  0.47536715  0.12725010  1
  O  O273  1  0.06273183  0.46341500  0.69563404  1
  O  O274  1  0.54792901  -0.03970662  0.11545495  1
  O  O275  1  0.39316965  0.01993346  0.60855486  1
  O  O276  1  0.52076943  0.56059748  0.05761056  1
  O  O277  1  0.55033805  0.35392933  0.60448290  1
  O  O278  1  0.18148278  0.37047402  0.22347316  1
  O  O279  1  0.36230007  0.36007443  0.66763218  1
  O  O280  1  0.24584189  0.84781492  0.23328155  1
  O  O281  1  0.27877399  0.84677619  0.80132395  1
  O  O282  1  0.66923994  0.40869956  0.32618800  1
  O  O283  1  0.77003369  0.35520152  0.74971728  1
  O  O284  1  0.73822092  0.81099877  0.22842681  1
  O  O285  1  0.75965537  0.85056744  0.76932648  1
  O  O286  1  0.20692320  0.11206691  0.25792849  1
  O  O287  1  0.20960365  0.16411773  0.70111924  1
  O  O288  1  0.28491289  0.66786149  0.20532868  1
  O  O289  1  0.26721603  0.60944995  0.74921884  1
  O  O290  1  0.73991473  0.12285486  0.24466690  1
  O  O291  1  0.76566255  0.17275854  0.72516633  1
  O  O292  1  0.80606167  0.64883620  0.26260885  1
  O  O293  1  0.80212595  0.56775312  0.69181545  1
  O  O294  1  0.29799067  0.09501123  0.38438112  1
  O  O295  1  0.40781988  0.11569129  0.81018429  1
  O  O296  1  0.38317474  0.62246859  0.32529637  1
  O  O297  1  0.44632489  0.59500595  0.82328642  1
  O  O298  1  0.85370181  0.17334378  0.35442544  1
  O  O299  1  0.83230873  0.10273732  0.84594857  1
  O  O300  1  0.85870424  0.60191644  0.37517246  1
  O  O301  1  0.88415383  0.62128626  0.88197717  1
  O  O302  1  0.21919177  0.45623192  0.10170307  1
  O  O303  1  0.15125120  0.34352582  0.64006283  1
  O  O304  1  0.14821456  0.82501223  0.08021286  1
  O  O305  1  0.14081177  0.89367365  0.69034770  1
  O  O306  1  0.61360035  0.35869980  0.12478603  1
  O  O307  1  0.58270229  0.40628006  0.64931961  1
  O  O308  1  0.68491338  0.82533907  0.11820594  1
  O  O309  1  0.59822306  0.92438718  0.69607181  1
  O  O310  1  0.14207600  0.37066270  0.16686671  1
  O  O311  1  0.09092964  0.24864422  0.77440577  1
  O  O312  1  0.13210222  0.75010203  0.22249999  1
  O  O313  1  0.14663557  0.76171143  0.80082561  1
  O  O314  1  0.61312149  0.22831940  0.23056366  1
  O  O315  1  0.61933735  0.28700130  0.74789676  1
  O  O316  1  0.55811361  0.81214001  0.23869455  1
  O  O317  1  0.60537514  0.72564768  0.74711400  1
  O  O318  1  0.36988248  0.14502112  0.25374004  1
  O  O319  1  0.46042209  0.27293382  0.75171261  1
  O  O320  1  0.40589908  0.85537272  0.20760282  1
  O  O321  1  0.35925717  0.87379933  0.66664524  1
  O  O322  1  0.79493132  0.26923513  0.23307295  1
  O  O323  1  0.86380170  0.25439597  0.79724154  1
  O  O324  1  0.90410736  0.73368333  0.30586457  1
  O  O325  1  0.90117841  0.77452233  0.67904990  1
  O  O326  1  0.53599286  0.48587701  0.49854420  1
  O  O327  1  0.36058404  0.53747750  0.93857828  1
  O  O328  1  0.28604463  0.99653185  0.49202393  1
  O  O329  1  0.34312787  1.01289310  0.95177754  1
  O  O330  1  0.81824751  0.46031506  0.48671810  1
  O  O331  1  0.91129952  0.52060447  1.04401136  1
  O  O332  1  0.81002461  0.95893964  0.44500269  1
  O  O333  1  0.94361907  0.96127707  1.11500015  1
  O  O334  1  0.17873385  -0.04808355  -0.00067060  1
  O  O335  1  -0.05065727  0.01591961  0.42378711  1
  O  O336  1  0.11655170  0.52113439  -0.00398659  1
  O  O337  1  0.12863293  0.47547563  0.55613676  1
  O  O338  1  0.63798644  -0.05062906  -0.00762987  1
  O  O339  1  0.65335340  0.01778336  0.44435922  1
  O  O340  1  0.67117596  0.48622142  0.03526714  1
  O  O341  1  0.73335171  0.43579617  0.65583382  1
  O  O342  1  0.34269654  0.37923196  0.02329273  1
  O  O343  1  0.39588308  0.41725619  0.53418127  1
  O  O344  1  0.40129536  0.86917753  -0.00336594  1
  O  O345  1  0.07236850  0.92371921  0.45837582  1
  O  O346  1  0.90348819  0.37536664  0.19753659  1
  O  O347  1  0.90626076  0.39924127  0.60738577  1
  O  O348  1  0.87341490  0.84401036  0.18236603  1
  O  O349  1  0.90209623  0.95981639  0.56080842  1
  O  O350  1  0.14030585  0.11610491  0.30029826  1
  O  O351  1  0.10003312  0.07729763  0.93184783  1
  O  O352  1  0.21142969  0.63363002  0.54516123  1
  O  O353  1  0.12940710  0.58862184  0.84570425  1
  O  O354  1  0.68656572  0.04848586  0.39214443  1
  O  O355  1  0.67550615  0.09753613  0.93326569  1
  O  O356  1  0.54080825  0.68465351  0.44441983  1
  O  O357  1  0.67295917  0.59348461  0.90585362  1
