# generated using pymatgen
data_V51Zn51O256
_symmetry_space_group_name_H-M   'P 1'
_cell_length_a   17.23562823
_cell_length_b   17.34995992
_cell_length_c   17.29562689
_cell_angle_alpha   90.85298090
_cell_angle_beta   89.71750967
_cell_angle_gamma   90.26075068
_symmetry_Int_Tables_number   1
_chemical_formula_structural   V51Zn51O256
_chemical_formula_sum   'V51 Zn51 O256'
_cell_volume   5171.35247221
_cell_formula_units_Z   1
loop_
 _symmetry_equiv_pos_site_id
 _symmetry_equiv_pos_as_xyz
  1  'x, y, z'
loop_
 _atom_site_type_symbol
 _atom_site_label
 _atom_site_symmetry_multiplicity
 _atom_site_fract_x
 _atom_site_fract_y
 _atom_site_fract_z
 _atom_site_occupancy
  V  V0  1  0.46643037  0.28138496  0.76254985  1
  V  V1  1  0.29256255  0.36735613  0.12487252  1
  V  V2  1  0.00290223  0.03958582  0.00785523  1
  V  V3  1  0.21330752  0.39728623  0.61784177  1
  V  V4  1  0.62973049  0.85053466  0.25639131  1
  V  V5  1  0.16509459  0.74892927  0.36718798  1
  V  V6  1  0.13621267  0.61486918  0.47455797  1
  V  V7  1  0.21201480  0.17981630  0.85629089  1
  V  V8  1  -0.01908913  0.23805884  0.24899515  1
  V  V9  1  0.26666126  0.52544893  0.78737237  1
  V  V10  1  0.74393222  0.12197557  0.41009291  1
  V  V11  1  0.08520782  0.37764224  0.24835997  1
  V  V12  1  0.37205698  0.86517968  0.52984553  1
  V  V13  1  0.88402543  0.76396888  0.64635057  1
  V  V14  1  0.87202689  0.11605030  0.26304019  1
  V  V15  1  0.73132441  0.85123256  0.59397177  1
  V  V16  1  0.23044291  0.12046106  0.40533449  1
  V  V17  1  0.36480880  0.26467042  0.62077588  1
  V  V18  1  0.89534052  0.01276521  0.41023598  1
  V  V19  1  0.22470444  0.27601699  -0.00865296  1
  V  V20  1  0.65072395  0.62937921  0.48608923  1
  V  V21  1  0.76187534  0.38418320  0.65403287  1
  V  V22  1  0.04112835  0.11694888  0.60498479  1
  V  V23  1  0.10501673  0.25158722  0.37601619  1
  V  V24  1  0.71961947  0.54858757  0.74022962  1
  V  V25  1  0.88998331  0.87737583  0.00316633  1
  V  V26  1  0.83656958  0.12352719  0.77625843  1
  V  V27  1  0.59873402  0.48523338  0.62183662  1
  V  V28  1  0.27352292  0.53299360  0.24417777  1
  V  V29  1  0.58792376  0.14411123  0.50049557  1
  V  V30  1  0.48573461  0.34917109  0.34499446  1
  V  V31  1  0.86453740  0.39969625  0.48981287  1
  V  V32  1  0.22509097  0.25979561  0.50152603  1
  V  V33  1  0.49428792  0.48282031  0.48071806  1
  V  V34  1  0.61415858  0.75980473  0.89221957  1
  V  V35  1  0.77193448  0.86704439  0.14657818  1
  V  V36  1  0.04679188  0.89745529  0.89486711  1
  V  V37  1  0.25706826  0.63584386  0.92994559  1
  V  V38  1  0.06269285  0.84453857  0.27794244  1
  V  V39  1  0.88832701  0.61730959  0.22028246  1
  V  V40  1  0.35434516  0.38336710  0.48423571  1
  V  V41  1  0.38415597  0.75380905  0.10636462  1
  V  V42  1  0.47511665  0.12813907  0.08668047  1
  V  V43  1  0.90120137  0.86424345  0.49124195  1
  V  V44  1  0.12804952  0.06962863  0.12329097  1
  V  V45  1  0.44795514  0.65487269  0.21666576  1
  V  V46  1  0.09569567  0.60825089  0.00045196  1
  V  V47  1  0.42239578  -0.03078305  0.88486591  1
  V  V48  1  -0.00558831  0.63047198  0.62984749  1
  V  V49  1  0.72530486  0.01322749  0.26957312  1
  V  V50  1  0.74633605  0.25983662  0.51482936  1
  Zn  Zn51  1  0.86452371  0.16234691  0.95141264  1
  Zn  Zn52  1  0.03850854  0.08398029  0.83208224  1
  Zn  Zn53  1  0.18457631  0.92508925  0.43788383  1
  Zn  Zn54  1  0.62053724  0.03047619  0.86740547  1
  Zn  Zn55  1  0.23542496  0.14669909  0.66369333  1
  Zn  Zn56  1  0.36601731  0.78922373  0.35074547  1
  Zn  Zn57  1  0.06665468  0.05686584  0.31364636  1
  Zn  Zn58  1  0.93228525  0.19702651  0.45780766  1
  Zn  Zn59  1  0.61405798  0.00940721  0.65217725  1
  Zn  Zn60  1  0.91393727  0.43753245  0.30523579  1
  Zn  Zn61  1  0.09616628  0.59179072  0.80080326  1
  Zn  Zn62  1  0.06068899  0.78892600  0.54051492  1
  Zn  Zn63  1  0.54840820  0.76028555  0.61159752  1
  Zn  Zn64  1  0.67953424  0.10818393  0.12556513  1
  Zn  Zn65  1  0.30676741  0.55842408  0.55055800  1
  Zn  Zn66  1  0.65442941  0.40043122  0.41449982  1
  Zn  Zn67  1  0.53545884  0.61960288  0.75708345  1
  Zn  Zn68  1  0.48293183  0.92058895  0.14425026  1
  Zn  Zn69  1  0.81927015  0.28732060  0.35724889  1
  Zn  Zn70  1  0.18721499  0.24528656  0.18644396  1
  Zn  Zn71  1  0.89194255  0.75287240  0.35560947  1
  Zn  Zn72  1  0.03106250  0.80487105  0.07098091  1
  Zn  Zn73  1  0.06083452  0.25963300  0.08412703  1
  Zn  Zn74  1  0.84004650  0.02100192  0.10768230  1
  Zn  Zn75  1  0.40437328  0.19139074  0.42668464  1
  Zn  Zn76  1  0.71149314  0.69513376  0.30922793  1
  Zn  Zn77  1  0.31272760  0.29384551  0.31712764  1
  Zn  Zn78  1  0.89993261  0.67311309  0.01668192  1
  Zn  Zn79  1  0.27529262  0.35451578  0.80429043  1
  Zn  Zn80  1  0.78622101  0.31780341  0.84502870  1
  Zn  Zn81  1  0.57899821  0.78190791  0.10056093  1
  Zn  Zn82  1  0.41577553  0.43353894  0.67574947  1
  Zn  Zn83  1  0.53255032  0.19845964  -0.07381304  1
  Zn  Zn84  1  0.28221331  0.07122125  0.00715154  1
  Zn  Zn85  1  0.97460043  0.94407954  0.18687706  1
  Zn  Zn86  1  0.81392058  0.57662087  0.57608622  1
  Zn  Zn87  1  0.19197706  0.46544548  0.96805986  1
  Zn  Zn88  1  0.75299873  0.87116447  0.38723209  1
  Zn  Zn89  1  0.43271764  0.67644389  0.92545507  1
  Zn  Zn90  1  0.04460502  0.45845667  0.54699522  1
  Zn  Zn91  1  0.44693938  0.89325129  0.70309797  1
  Zn  Zn92  1  0.71258685  0.93095537  0.96725283  1
  Zn  Zn93  1  0.78348130  0.63225655  0.85887311  1
  Zn  Zn94  1  0.33138182  0.56134707  0.06899121  1
  Zn  Zn95  1  0.20015401  0.70712476  0.17921023  1
  Zn  Zn96  1  0.09662078  0.58575846  0.27223844  1
  Zn  Zn97  1  0.58391114  0.54413864  0.32295709  1
  Zn  Zn98  1  0.89055463  0.98284049  0.62344223  1
  Zn  Zn99  1  0.91711782  0.76296038  0.85255837  1
  Zn  Zn100  1  0.54664534  0.31433288  0.53346044  1
  Zn  Zn101  1  0.18520971  0.43744557  0.40940421  1
  O  O102  1  0.12757764  0.17203648  0.12411011  1
  O  O103  1  0.13392819  0.11586606  0.63985348  1
  O  O104  1  0.11702977  0.66859529  0.09512840  1
  O  O105  1  0.07383127  0.64260220  0.55357471  1
  O  O106  1  0.57256915  0.13151247  0.11860844  1
  O  O107  1  0.60246356  0.08452704  0.57556476  1
  O  O108  1  0.66277230  0.56046049  0.14769320  1
  O  O109  1  0.64525394  0.55338965  0.57006610  1
  O  O110  1  0.34389848  0.38538542  0.38626698  1
  O  O111  1  0.41771149  0.42841112  0.88757514  1
  O  O112  1  0.41316864  0.84111894  0.43985196  1
  O  O113  1  0.38262281  0.87575750  0.88308348  1
  O  O114  1  0.85034964  0.38993999  0.38053066  1
  O  O115  1  0.90161352  0.38751418  0.83890395  1
  O  O116  1  0.87563345  0.90600591  0.39486895  1
  O  O117  1  0.87208506  0.86195720  0.90941792  1
  O  O118  1  0.20033635  0.02622752  0.39828731  1
  O  O119  1  0.33326020  0.00475916  0.92921554  1
  O  O120  1  0.24072551  0.48591280  0.32351030  1
  O  O121  1  0.25508243  0.45856212  0.86491908  1
  O  O122  1  0.75589594  0.01385084  0.37980573  1
  O  O123  1  0.71575764  -0.03102404  0.86488368  1
  O  O124  1  0.66218860  0.47290490  0.33738673  1
  O  O125  1  0.74944217  0.52690005  0.83287564  1
  O  O126  1  0.28646973  0.47289378  0.15295867  1
  O  O127  1  0.23888139  0.49143140  0.60437521  1
  O  O128  1  0.21851324  1.03838255  0.08817107  1
  O  O129  1  0.13252035  0.95748085  0.53901617  1
  O  O130  1  0.78514433  0.36523191  0.11831581  1
  O  O131  1  0.77276997  0.50009497  0.66394897  1
  O  O132  1  0.73623053  1.02428463  0.15985363  1
  O  O133  1  0.72043866  0.96276479  0.62700539  1
  O  O134  1  -0.01732626  0.35756417  0.26014786  1
  O  O135  1  0.07168498  0.43155318  0.83765617  1
  O  O136  1  0.04111421  0.94427370  0.28282747  1
  O  O137  1  0.04056970  0.93062821  0.76950103  1
  O  O138  1  0.49878681  0.36926364  0.25422974  1
  O  O139  1  0.49070742  0.37484362  0.74348191  1
  O  O140  1  0.53982818  0.88904635  0.23449197  1
  O  O141  1  0.49471049  0.79849992  0.71134949  1
  O  O142  1  0.44920142  0.17779213  0.16828082  1
  O  O143  1  0.50311246  0.17784715  0.72087970  1
  O  O144  1  0.52008882  0.59963558  0.25497775  1
  O  O145  1  0.46303040  0.61728689  0.83743972  1
  O  O146  1  0.98508758  0.13622131  0.27020368  1
  O  O147  1  0.94092639  0.12015837  0.78882629  1
  O  O148  1  0.99270907  0.59917715  0.22145807  1
  O  O149  1  1.02882364  0.63256362  0.72237456  1
  O  O150  1  0.41813328  0.40340566  -0.04664255  1
  O  O151  1  0.34117645  0.26725136  0.50204960  1
  O  O152  1  0.40695240  0.74542904  0.01065212  1
  O  O153  1  0.30704626  0.79036911  0.54754166  1
  O  O154  1  0.80940296  0.26295808  -0.00448144  1
  O  O155  1  0.85181504  0.27261395  0.48915873  1
  O  O156  1  0.91820021  0.78505676  0.04197121  1
  O  O157  1  0.89144487  0.76819112  0.47182578  1
  O  O158  1  0.12402462  0.27301953  0.47795549  1
  O  O159  1  0.12758704  0.27488497  0.99701641  1
  O  O160  1  0.13493147  0.74773732  0.46672408  1
  O  O161  1  0.10963087  0.72778696  1.03826039  1
  O  O162  1  0.62850849  0.23869561  0.52143904  1
  O  O163  1  0.63524524  0.28353109  0.94433500  1
  O  O164  1  0.60463016  0.70701173  0.52105825  1
  O  O165  1  0.59784869  0.72879337  0.99250461  1
  O  O166  1  0.47659610  0.22130970  0.03542361  1
  O  O167  1  0.46311236  0.27089480  0.60959114  1
  O  O168  1  0.49309064  0.72462512  0.14798263  1
  O  O169  1  0.53160049  0.66637266  0.66193562  1
  O  O170  1  0.97443948  0.24308797  0.15122376  1
  O  O171  1  1.01036233  0.21965357  0.65472934  1
  O  O172  1  1.04144251  0.84115965  0.17574814  1
  O  O173  1  0.98676770  0.74783176  0.61548078  1
  O  O174  1  0.00453629  0.25119262  0.38176757  1
  O  O175  1  -0.03137680  0.26492877  0.92063045  1
  O  O176  1  -0.00916756  0.79790645  0.32536839  1
  O  O177  1  0.01847728  0.80868277  0.85655507  1
  O  O178  1  0.42034837  0.26390688  0.34191768  1
  O  O179  1  0.47473763  0.26332458  0.85923902  1
  O  O180  1  0.53301046  0.75469647  0.38808333  1
  O  O181  1  0.51074489  0.76722166  0.89223828  1
  O  O182  1  0.22496604  0.15285354  0.50419321  1
  O  O183  1  0.24632246  0.16031600  0.95271556  1
  O  O184  1  0.23180963  0.61944667  0.49689251  1
  O  O185  1  0.22750991  0.57316745  1.01361893  1
  O  O186  1  0.75635031  0.14583427  0.50873791  1
  O  O187  1  0.78447512  0.10437047  1.01475787  1
  O  O188  1  0.74676033  0.63809695  0.50890467  1
  O  O189  1  0.74655221  0.56831529  1.00838872  1
  O  O190  1  0.24833147  0.37897624  0.01900992  1
  O  O191  1  0.23928218  0.37650960  0.49410255  1
  O  O192  1  0.26401987  0.87120027  0.03777191  1
  O  O193  1  0.28613134  0.90058208  0.48025553  1
  O  O194  1  0.75037022  0.49799170  0.01734725  1
  O  O195  1  0.73201467  0.35509991  0.48162504  1
  O  O196  1  0.78221246  0.88469280  0.03552700  1
  O  O197  1  0.76564661  0.86814232  0.50076756  1
  O  O198  1  0.08946423  0.47450813  0.25230279  1
  O  O199  1  0.17902830  0.53851966  0.74444078  1
  O  O200  1  0.13556097  1.05289790  0.21999307  1
  O  O201  1  0.07502903  0.99431567  0.75549608  1
  O  O202  1  0.69103340  0.49575016  0.14272890  1
  O  O203  1  0.61341522  0.53406348  0.72300107  1
  O  O204  1  0.63240623  1.02581149  0.27503842  1
  O  O205  1  0.61292491  1.02870823  0.75775327  1
  O  O206  1  0.37627826  -0.04126774  0.31173008  1
  O  O207  1  0.39671569  -0.04625797  0.77974993  1
  O  O208  1  0.35910057  0.57538106  0.26369143  1
  O  O209  1  0.34546273  0.49901850  0.73173878  1
  O  O210  1  0.88462803  0.01969843  0.28713232  1
  O  O211  1  0.83981476  0.04255713  0.71627586  1
  O  O212  1  0.88149320  0.51498105  0.23376360  1
  O  O213  1  0.94308135  0.36057527  0.78600753  1
  O  O214  1  0.13083372  0.35757881  0.34512786  1
  O  O215  1  0.09990212  0.39803602  0.89850273  1
  O  O216  1  0.14225427  0.85460933  0.36074652  1
  O  O217  1  0.14079604  0.90289207  0.89554480  1
  O  O218  1  0.57340909  0.32037186  0.38233322  1
  O  O219  1  0.66598143  0.30211567  0.87993662  1
  O  O220  1  0.64385062  0.86880919  0.35421002  1
  O  O221  1  0.63983132  0.84787174  0.93628709  1
  O  O222  1  0.37891713  0.10944961  0.05654880  1
  O  O223  1  0.33850476  0.16926945  0.62713563  1
  O  O224  1  0.38302895  0.63933245  0.13420913  1
  O  O225  1  0.37319625  0.63498938  0.62413028  1
  O  O226  1  0.86838772  0.11517306  0.16573207  1
  O  O227  1  0.84810501  0.19174917  0.70635384  1
  O  O228  1  0.87684240  0.61096486  0.11911991  1
  O  O229  1  0.88638096  0.65075642  0.62835254  1
  O  O230  1  0.26357315  0.25609002  0.08220306  1
  O  O231  1  0.22799703  0.27347048  0.60314221  1
  O  O232  1  0.28313450  0.74860788  0.12307815  1
  O  O233  1  0.18482706  0.72703534  0.69489998  1
  O  O234  1  0.71570118  0.13718521  0.01949805  1
  O  O235  1  0.74515439  0.28003940  0.61308332  1
  O  O236  1  0.78961161  0.77591997  0.14858939  1
  O  O237  1  0.78022165  0.76469923  0.62537442  1
  O  O238  1  0.23489487  0.24231585  0.38549692  1
  O  O239  1  0.24048731  0.28153239  0.87855406  1
  O  O240  1  0.26287648  0.74613917  0.36621877  1
  O  O241  1  0.25321608  0.72753795  0.94740323  1
  O  O242  1  0.73521855  0.22337289  0.38997595  1
  O  O243  1  0.81002329  0.32814349  0.95984592  1
  O  O244  1  0.78539263  0.77161270  0.34082641  1
  O  O245  1  0.71038737  0.72424990  0.89593850  1
  O  O246  1  -0.04443130  0.12769376  0.00252815  1
  O  O247  1  0.01216725  0.14959963  0.51820676  1
  O  O248  1  -0.00039253  0.62511471  -0.00858873  1
  O  O249  1  -0.03394194  0.55387230  0.42653128  1
  O  O250  1  0.52096410  0.10451110  -0.00877878  1
  O  O251  1  0.49196139  0.15506786  0.48117821  1
  O  O252  1  0.49059304  0.54503814  0.01869923  1
  O  O253  1  0.53580649  0.57036670  0.47456348  1
  O  O254  1  0.45480346  0.36095982  0.48404134  1
  O  O255  1  0.56681289  0.45180568  0.89914900  1
  O  O256  1  0.46161292  0.81983826  0.55820338  1
  O  O257  1  0.54052579  0.87839853  1.06187957  1
  O  O258  1  0.96256706  0.39988088  0.49423564  1
  O  O259  1  0.97038463  0.30879369  0.97814426  1
  O  O260  1  0.99932743  0.87408300  0.49411943  1
  O  O261  1  1.01174262  0.89133397  0.99748240  1
  O  O262  1  0.49211319  0.45990070  0.38096817  1
  O  O263  1  0.62719349  0.47357764  0.92957368  1
  O  O264  1  0.53393062  0.97481619  0.41855344  1
  O  O265  1  0.52179575  0.95876110  0.85371127  1
  O  O266  1  0.99070226  0.50988388  0.37332898  1
  O  O267  1  1.03337479  0.49821973  0.84926049  1
  O  O268  1  0.99108609  1.02809989  0.40252394  1
  O  O269  1  1.00782822  1.00313824  0.90320390  1
  O  O270  1  0.02605933  0.01792291  0.11479168  1
  O  O271  1  -0.01413186  0.04216381  0.63552527  1
  O  O272  1  -0.04725945  0.43865112  0.07495553  1
  O  O273  1  -0.01554732  0.53557066  0.60369110  1
  O  O274  1  0.47108891  0.03103517  0.11878668  1
  O  O275  1  0.52141306  -0.04670461  0.65673360  1
  O  O276  1  0.56162386  0.55098043  0.04030440  1
  O  O277  1  0.49657258  0.48709647  0.61356675  1
  O  O278  1  0.26956211  0.32000115  0.21791508  1
  O  O279  1  0.21984069  0.38111644  0.71549769  1
  O  O280  1  0.34895958  0.89460247  0.28988193  1
  O  O281  1  0.21833881  0.83850336  0.75029735  1
  O  O282  1  0.66270832  0.25444260  0.21500400  1
  O  O283  1  0.77056581  0.36237743  0.74876181  1
  O  O284  1  0.73882017  0.90555173  0.25148074  1
  O  O285  1  0.75167844  0.91455962  0.68289345  1
  O  O286  1  0.28879473  0.15184913  0.22678285  1
  O  O287  1  0.25722650  0.14159259  0.77789966  1
  O  O288  1  0.20102275  0.60305894  0.22314011  1
  O  O289  1  0.28367796  0.61866064  0.82729774  1
  O  O290  1  0.76444095  0.11773678  0.28440820  1
  O  O291  1  0.73537288  0.11881522  0.77677854  1
  O  O292  1  0.78851197  0.63106095  0.23732334  1
  O  O293  1  0.74234965  0.64225217  0.73819944  1
  O  O294  1  0.32787384  0.11748307  0.38687171  1
  O  O295  1  0.42572353  0.07023991  0.86543940  1
  O  O296  1  0.49001525  0.70216104  0.40849633  1
  O  O297  1  0.35473870  0.60583824  0.96087188  1
  O  O298  1  0.86439246  0.11918977  0.40115785  1
  O  O299  1  0.84072028  0.07356302  0.87017281  1
  O  O300  1  0.89610239  0.64003876  0.32332138  1
  O  O301  1  0.86548019  0.68201115  0.90872509  1
  O  O302  1  0.11758620  0.34777015  0.15596035  1
  O  O303  1  0.11544822  0.39450109  0.60002583  1
  O  O304  1  0.19526649  0.88672240  0.03836084  1
  O  O305  1  0.11858903  0.85818590  0.62396819  1
  O  O306  1  0.61393207  0.35745795  0.10364874  1
  O  O307  1  0.65560822  0.40238559  0.64101456  1
  O  O308  1  0.66331533  0.85342723  0.14211990  1
  O  O309  1  0.63603670  0.83179446  0.59952807  1
  O  O310  1  0.09056991  0.25164441  0.26217112  1
  O  O311  1  0.04804771  0.24661218  0.71169420  1
  O  O312  1  0.13330229  0.75217966  0.26259314  1
  O  O313  1  0.21440556  0.76422049  0.75242073  1
  O  O314  1  0.70276433  0.22236453  0.16329024  1
  O  O315  1  0.56140332  0.22722870  0.72860467  1
  O  O316  1  0.63134538  0.75045316  0.25061981  1
  O  O317  1  0.62234998  0.80649508  0.80493652  1
  O  O318  1  0.30478093  0.08237829  0.22069466  1
  O  O319  1  0.36254136  0.28487656  0.73323809  1
  O  O320  1  0.41025360  0.72425435  0.27693750  1
  O  O321  1  0.34396515  0.67520475  0.67755370  1
  O  O322  1  0.87844290  0.23301470  0.27916212  1
  O  O323  1  0.82965493  0.21064108  0.84485272  1
  O  O324  1  0.91533686  0.71482179  0.20525303  1
  O  O325  1  0.88597761  0.77355815  0.74226901  1
  O  O326  1  0.38335005  0.48934744  0.50211898  1
  O  O327  1  0.44251671  0.50271029  1.06281958  1
  O  O328  1  0.39115498  0.96444748  0.53765512  1
  O  O329  1  0.46294886  0.95578826  0.97280042  1
  O  O330  1  0.83623280  0.49306335  0.50108961  1
  O  O331  1  0.90806937  0.45882882  1.02386056  1
  O  O332  1  0.87952672  0.99713815  0.50985821  1
  O  O333  1  0.90103483  0.98407875  1.01983100  1
  O  O334  1  0.09809338  0.07013489  0.00774263  1
  O  O335  1  0.14760786  -0.07344520  0.60903107  1
  O  O336  1  0.09537182  0.51162078  0.01847146  1
  O  O337  1  0.11780521  0.51316847  0.46827521  1
  O  O338  1  0.63617452  0.00701925  -0.02366501  1
  O  O339  1  0.57538014  -0.05313257  0.46847523  1
  O  O340  1  0.57384490  0.39962743  0.06400409  1
  O  O341  1  0.58119544  0.42631983  0.51244468  1
  O  O342  1  0.38423205  0.36060404  0.11100327  1
  O  O343  1  0.34198276  0.37418467  0.60449547  1
  O  O344  1  0.39757449  0.85128714  0.13339712  1
  O  O345  1  0.35695247  0.88041002  0.63992915  1
  O  O346  1  0.77384901  0.37493711  0.18818284  1
  O  O347  1  0.84727928  0.38353498  0.60223396  1
  O  O348  1  0.86869954  0.91587334  0.15681347  1
  O  O349  1  0.88688033  0.86815867  0.60506615  1
  O  O350  1  0.12816184  0.14974182  0.36380893  1
  O  O351  1  0.11513457  0.16046002  0.84848594  1
  O  O352  1  0.12379455  0.64054321  0.37072782  1
  O  O353  1  0.14029451  0.61908051  0.90327421  1
  O  O354  1  0.63887197  0.10764970  0.41725013  1
  O  O355  1  0.60540188  0.13806248  0.87209381  1
  O  O356  1  0.65044178  0.63217878  0.38148869  1
  O  O357  1  0.59913384  0.66418376  0.85050292  1
