# generated using pymatgen
data_V51Zn51O256
_symmetry_space_group_name_H-M   'P 1'
_cell_length_a   17.37846775
_cell_length_b   17.45258382
_cell_length_c   17.89300761
_cell_angle_alpha   88.72274419
_cell_angle_beta   89.10528385
_cell_angle_gamma   89.35658624
_symmetry_Int_Tables_number   1
_chemical_formula_structural   V51Zn51O256
_chemical_formula_sum   'V51 Zn51 O256'
_cell_volume   5424.60295412
_cell_formula_units_Z   1
loop_
 _symmetry_equiv_pos_site_id
 _symmetry_equiv_pos_as_xyz
  1  'x, y, z'
loop_
 _atom_site_type_symbol
 _atom_site_label
 _atom_site_symmetry_multiplicity
 _atom_site_fract_x
 _atom_site_fract_y
 _atom_site_fract_z
 _atom_site_occupancy
  V  V0  1  0.73989109  0.00444658  0.27866156  1
  V  V1  1  0.52620887  0.74697091  0.29027725  1
  V  V2  1  -0.03085059  0.74494353  0.73107789  1
  V  V3  1  0.52663833  0.90660208  0.90329319  1
  V  V4  1  0.72560346  0.48228082  0.23051837  1
  V  V5  1  0.86095475  0.16968551  0.80364746  1
  V  V6  1  0.27259318  0.52120721  0.72804255  1
  V  V7  1  0.35056462  0.33835438  0.06961092  1
  V  V8  1  0.25010103  0.62016106  0.36991876  1
  V  V9  1  0.37808511  0.24199664  0.65362700  1
  V  V10  1  0.61797246  0.34672278  0.21751486  1
  V  V11  1  0.87084996  0.71127796  0.61600313  1
  V  V12  1  0.74924607  0.72203217  0.47301461  1
  V  V13  1  0.36158340  0.60948769  0.22808887  1
  V  V14  1  0.25198218  0.14318277  0.40399093  1
  V  V15  1  0.23830514  0.74718843  -0.00728400  1
  V  V16  1  0.12912257  0.55499574  0.61574693  1
  V  V17  1  -0.00955410  -0.01619501  -0.04668477  1
  V  V18  1  0.87976583  0.50071646  0.34418276  1
  V  V19  1  0.37570185  0.74170071  0.11259966  1
  V  V20  1  0.47933952  0.38737127  0.92498054  1
  V  V21  1  0.89194735  0.07265084  0.31131791  1
  V  V22  1  0.02593250  0.08979584  0.10309932  1
  V  V23  1  0.37677898  0.47103757  0.39197541  1
  V  V24  1  0.24942666  0.90129555  0.14577500  1
  V  V25  1  0.72024952  0.59317579  0.35725846  1
  V  V26  1  0.94491064  0.35562558  -0.00163492  1
  V  V27  1  0.25549121  -0.00822670  0.30291472  1
  V  V28  1  0.09668013  -0.01137794  0.62140054  1
  V  V29  1  0.20797672  -0.01162744  0.74238057  1
  V  V30  1  0.60544301  0.46745492  0.61006646  1
  V  V31  1  0.49805513  0.76037548  0.66718607  1
  V  V32  1  0.01014484  0.83133763  0.39771711  1
  V  V33  1  0.09797115  0.29051687  0.84288571  1
  V  V34  1  0.49092081  0.25675327  0.81641698  1
  V  V35  1  0.77006118  0.38682850  0.59706210  1
  V  V36  1  0.35880771  0.51270005  0.87774848  1
  V  V37  1  0.03995518  0.74893444  0.22787624  1
  V  V38  1  0.09723895  0.75534132  0.84026989  1
  V  V39  1  0.30681451  0.68189289  0.82587458  1
  V  V40  1  0.60884194  0.59869970  0.49617424  1
  V  V41  1  -0.03157882  0.43189503  0.81905087  1
  V  V42  1  0.09187064  0.50918066  0.13846653  1
  V  V43  1  0.71427144  0.86895415  0.13284969  1
  V  V44  1  -0.01861762  0.63827011  0.11097607  1
  V  V45  1  0.64223084  0.12656458  0.02108368  1
  V  V46  1  0.54935421  0.12933790  0.64142598  1
  V  V47  1  -0.00447254  0.23402935  0.22518895  1
  V  V48  1  0.11817282  0.13834328  0.52063301  1
  V  V49  1  -0.04827245  0.13461994  0.64015075  1
  V  V50  1  0.90775762  0.39480289  0.47705202  1
  Zn  Zn51  1  0.37464496  0.38205841  0.76148528  1
  Zn  Zn52  1  0.42999854  0.72550775  0.90893519  1
  Zn  Zn53  1  0.96905241  0.68407957  0.91411677  1
  Zn  Zn54  1  0.07360291  0.82539077  0.05914134  1
  Zn  Zn55  1  1.07991365  0.94016566  0.20149016  1
  Zn  Zn56  1  0.65541978  0.34034428  1.01851550  1
  Zn  Zn57  1  0.39011360  0.03331683  0.10086713  1
  Zn  Zn58  1  0.26060132  0.09895276  0.60453858  1
  Zn  Zn59  1  -0.00620418  -0.04672770  0.75782014  1
  Zn  Zn60  1  0.15362874  0.11887814  0.23133231  1
  Zn  Zn61  1  0.52864562  0.94051908  0.70964668  1
  Zn  Zn62  1  0.17727863  0.49088424  0.43357108  1
  Zn  Zn63  1  0.82340962  0.30895569  0.90457133  1
  Zn  Zn64  1  0.29564978  0.53767017  0.53747232  1
  Zn  Zn65  1  0.15555263  0.36231170  1.01088161  1
  Zn  Zn66  1  0.28650393  0.78567366  0.28659958  1
  Zn  Zn67  1  0.81004772  0.87696896  0.39181031  1
  Zn  Zn68  1  0.83191241  0.58107163  0.50745806  1
  Zn  Zn69  1  0.06857422  0.56791891  0.29494573  1
  Zn  Zn70  1  0.57722723  0.08142650  0.82423071  1
  Zn  Zn71  1  0.96289970  0.17182896  0.93908081  1
  Zn  Zn72  1  0.69043454  0.15590218  0.22590750  1
  Zn  Zn73  1  0.18380238  0.17618545  0.71490651  1
  Zn  Zn74  1  0.76014648  0.18082550  0.65947768  1
  Zn  Zn75  1  0.92444972  0.51040956  0.64384502  1
  Zn  Zn76  1  0.07789135  0.58953933  0.79205416  1
  Zn  Zn77  1  0.42962327  0.92532323  0.24637961  1
  Zn  Zn78  1  0.91697536  0.43380022  0.17015813  1
  Zn  Zn79  1  0.42009862  0.13201756  0.50566840  1
  Zn  Zn80  1  0.41705430  0.40083299  0.23979964  1
  Zn  Zn81  1  0.90719718  0.88016513  0.26962285  1
  Zn  Zn82  1  0.54507953  0.77328750  0.47952533  1
  Zn  Zn83  1  0.66253946  0.69432552  0.62203879  1
  Zn  Zn84  1  0.45475348  0.57039397  0.70840080  1
  Zn  Zn85  1  0.80291938  -0.00703369  0.00601382  1
  Zn  Zn86  1  0.34587074  0.60973158  0.03361117  1
  Zn  Zn87  1  0.54828879  0.54454463  0.29396708  1
  Zn  Zn88  1  0.17137734  0.71064444  0.68134759  1
  Zn  Zn89  1  0.08510520  0.03599316  0.36064293  1
  Zn  Zn90  1  0.51547147  0.87851159  0.10516689  1
  Zn  Zn91  1  0.44265985  0.19091192  0.99426217  1
  Zn  Zn92  1  0.22940116  0.89651910  0.89080741  1
  Zn  Zn93  1  -0.01900214  0.24302869  0.53088945  1
  Zn  Zn94  1  0.88641233  0.70591200  0.34881571  1
  Zn  Zn95  1  0.19233642  0.66408020  0.16379853  1
  Zn  Zn96  1  0.45185378  0.63520876  0.39371614  1
  Zn  Zn97  1  0.62932393  0.28497835  0.67679453  1
  Zn  Zn98  1  0.37161997  0.86896843  0.77482332  1
  Zn  Zn99  1  0.73371292  0.76185518  0.26865674  1
  Zn  Zn100  1  0.78822202  0.34437403  0.33273233  1
  Zn  Zn101  1  0.67355480  0.43599234  0.43477562  1
  O  O102  1  0.11923973  0.10277890  0.12241829  1
  O  O103  1  0.13933122  0.13439017  0.62278292  1
  O  O104  1  0.11484820  0.60486240  0.11485432  1
  O  O105  1  0.14151912  0.65112937  0.59826308  1
  O  O106  1  0.67600184  0.13081925  0.11407648  1
  O  O107  1  0.64255460  0.17382781  0.64534355  1
  O  O108  1  0.55205631  0.55732884  0.11363793  1
  O  O109  1  0.63113557  0.58998452  0.59319273  1
  O  O110  1  0.38965902  0.38612202  0.34846067  1
  O  O111  1  0.32720559  0.42277376  0.86517216  1
  O  O112  1  0.34728766  0.80793579  0.37913693  1
  O  O113  1  0.43199179  0.91350292  0.85967136  1
  O  O114  1  0.87925364  0.38801824  0.37478779  1
  O  O115  1  0.91886092  0.40612185  0.90703066  1
  O  O116  1  0.92283181  0.88409744  0.39083171  1
  O  O117  1  0.83553420  0.89080666  0.83461651  1
  O  O118  1  0.24310374  -0.03371488  0.39024113  1
  O  O119  1  0.27674003  -0.07149374  0.79351803  1
  O  O120  1  0.28178126  0.50495635  0.36745611  1
  O  O121  1  0.27131541  0.56751619  0.82055294  1
  O  O122  1  0.73521161  -0.04238490  0.36421694  1
  O  O123  1  0.81711496  -0.05003301  0.79574809  1
  O  O124  1  0.74412487  0.48590770  0.36056219  1
  O  O125  1  0.67942201  0.69943367  0.90713557  1
  O  O126  1  0.15581288  0.55493079  -0.02957599  1
  O  O127  1  0.29712401  0.56081254  0.64054499  1
  O  O128  1  0.28376683  0.99026067  0.12409687  1
  O  O129  1  0.21193962  0.99682645  0.64174190  1
  O  O130  1  0.73941559  0.48937721  0.14083227  1
  O  O131  1  0.71071634  0.45904378  0.63780944  1
  O  O132  1  0.86028471  1.07098668  0.07751228  1
  O  O133  1  0.79477339  0.90779166  0.62592259  1
  O  O134  1  -0.02627755  0.32624761  0.20084029  1
  O  O135  1  -0.08452479  0.46255395  0.74400529  1
  O  O136  1  0.01065996  0.85440104  0.23272450  1
  O  O137  1  -0.03580960  0.84304619  0.74256449  1
  O  O138  1  0.52056398  0.35906033  0.23164314  1
  O  O139  1  0.47832823  0.37288028  0.82553629  1
  O  O140  1  0.47029147  0.82521802  0.26224046  1
  O  O141  1  0.57223267  0.90556233  0.81161053  1
  O  O142  1  0.50033171  0.09014844  0.23112161  1
  O  O143  1  0.50247404  0.15702028  0.83070143  1
  O  O144  1  0.50386116  0.65142899  0.26276286  1
  O  O145  1  0.45452200  0.67877314  0.70205508  1
  O  O146  1  0.99213547  0.05825837  0.30610434  1
  O  O147  1  0.93703570  0.13312385  0.74718036  1
  O  O148  1  1.01481912  0.64872671  0.23044870  1
  O  O149  1  0.97496573  0.66689089  0.80185623  1
  O  O150  1  0.39377950  0.24952050  0.07187828  1
  O  O151  1  0.39234583  0.22485913  0.56010691  1
  O  O152  1  0.37959921  0.71895901  0.00691619  1
  O  O153  1  0.33144769  0.76816168  0.49778269  1
  O  O154  1  0.90687460  0.26455557  -0.01957952  1
  O  O155  1  0.89214579  0.29869849  0.50270611  1
  O  O156  1  0.83674176  0.75301554  0.01738016  1
  O  O157  1  0.84614726  0.69399581  0.45662779  1
  O  O158  1  0.08894841  0.23169920  0.50258356  1
  O  O159  1  0.14838412  0.34376908  0.90393942  1
  O  O160  1  0.05373847  0.64908643  0.47902286  1
  O  O161  1  0.14133315  0.75587857  1.00442669  1
  O  O162  1  0.66077285  0.20267877  0.44889020  1
  O  O163  1  0.67366292  0.22578082  1.01442746  1
  O  O164  1  0.63717954  0.70675130  0.49740312  1
  O  O165  1  0.55588160  0.67402772  1.01332389  1
  O  O166  1  0.38905868  0.12553341  0.17770530  1
  O  O167  1  0.48291459  0.19644890  0.67011741  1
  O  O168  1  0.46411333  0.77866088  0.11349941  1
  O  O169  1  0.48778583  0.76697365  0.57312375  1
  O  O170  1  0.97591227  0.16832326  0.14552892  1
  O  O171  1  0.97788464  0.22848293  0.64413624  1
  O  O172  1  1.01699624  0.74679034  0.12692438  1
  O  O173  1  0.98181336  0.70704835  0.64323904  1
  O  O174  1  -0.03714866  0.22272645  0.32516713  1
  O  O175  1  0.05008539  0.21762591  0.88793776  1
  O  O176  1  -0.00404805  0.74657786  0.33331352  1
  O  O177  1  0.01953352  0.78534921  0.89274599  1
  O  O178  1  0.55984116  0.31878646  0.39831881  1
  O  O179  1  0.47147331  0.27135893  0.92050786  1
  O  O180  1  0.50387528  0.73679021  0.38836366  1
  O  O181  1  0.51009795  0.80574804  0.89960900  1
  O  O182  1  0.22654330  0.14557779  0.51012892  1
  O  O183  1  0.33975513  0.10820993  0.84530367  1
  O  O184  1  0.26970392  0.62393204  0.46267514  1
  O  O185  1  0.25537257  0.68729006  0.91376247  1
  O  O186  1  0.72765151  0.07171974  0.50213850  1
  O  O187  1  0.73127627  0.08354765  0.99489075  1
  O  O188  1  0.72714069  0.59412567  0.46952336  1
  O  O189  1  0.68801848  0.71983064  0.97171863  1
  O  O190  1  0.25675192  0.32898711  0.04129359  1
  O  O191  1  0.25785038  0.32938775  0.51310421  1
  O  O192  1  0.27163934  0.83778927  -0.02561570  1
  O  O193  1  0.29889896  0.79718629  0.44127666  1
  O  O194  1  0.79440520  0.55138974  -0.07478211  1
  O  O195  1  0.74073496  0.38062298  0.50743377  1
  O  O196  1  0.75951444  0.90782191  0.05469341  1
  O  O197  1  0.74594279  0.81831864  0.46290643  1
  O  O198  1  0.11232706  0.48897836  0.22944814  1
  O  O199  1  0.15535689  0.55093648  0.71497444  1
  O  O200  1  0.14674188  1.00454453  0.26216940  1
  O  O201  1  0.11736438  0.95259543  0.74468794  1
  O  O202  1  0.62047865  0.47506540  0.24270901  1
  O  O203  1  0.61297246  0.59488869  0.81237876  1
  O  O204  1  0.65529194  1.05570955  0.26844867  1
  O  O205  1  0.66477788  1.02531215  0.81042684  1
  O  O206  1  0.35500587  -0.00943102  0.28882740  1
  O  O207  1  0.39544763  -0.00144909  0.62699810  1
  O  O208  1  0.40358884  0.52056484  0.23194042  1
  O  O209  1  0.38196945  0.50280474  0.75403014  1
  O  O210  1  0.85866017  -0.01881465  0.27096318  1
  O  O211  1  0.87073821  -0.01203446  0.75773941  1
  O  O212  1  0.84613947  0.47188112  0.24948085  1
  O  O213  1  0.72815811  0.49014094  0.80191529  1
  O  O214  1  0.14668099  0.37758996  0.39720338  1
  O  O215  1  0.02614955  0.35266582  0.79470802  1
  O  O216  1  0.11110877  0.86362213  0.36387631  1
  O  O217  1  0.17277378  0.81450321  0.84980235  1
  O  O218  1  0.61863518  0.36708613  0.36480732  1
  O  O219  1  0.56931358  0.38655112  0.96032508  1
  O  O220  1  0.55922555  0.92482735  0.37466052  1
  O  O221  1  0.62015292  0.90018471  0.93545698  1
  O  O222  1  0.26533154  0.15196063  0.06934284  1
  O  O223  1  0.36067025  0.04970091  0.57459051  1
  O  O224  1  0.39523370  0.63147483  0.12796325  1
  O  O225  1  0.31007343  0.83350917  0.63250795  1
  O  O226  1  0.82749724  0.23361884  0.10624281  1
  O  O227  1  0.85529868  0.13780755  0.61672238  1
  O  O228  1  0.89192734  0.64883675  0.13497883  1
  O  O229  1  0.87887511  0.60341345  0.59961917  1
  O  O230  1  0.25354900  0.17933459  0.13077961  1
  O  O231  1  0.29317669  0.18642983  0.67103638  1
  O  O232  1  0.26079257  0.69637603  0.08117381  1
  O  O233  1  0.24021735  0.82549898  0.62266556  1
  O  O234  1  0.78769849  0.24350614  0.16315259  1
  O  O235  1  0.74818280  0.30048886  0.64699643  1
  O  O236  1  0.75397046  0.78385327  0.16315663  1
  O  O237  1  0.76280028  0.70799114  0.57959917  1
  O  O238  1  0.24751137  0.23358864  0.38244542  1
  O  O239  1  0.16013046  0.25864274  0.77499744  1
  O  O240  1  0.22306516  0.71005490  0.34044121  1
  O  O241  1  0.35592461  0.77156009  0.83062640  1
  O  O242  1  0.77016961  0.25296790  0.39985103  1
  O  O243  1  0.74519955  0.35148017  0.95993193  1
  O  O244  1  0.72596946  0.69782806  0.36757397  1
  O  O245  1  0.83493306  0.77742114  0.95050217  1
  O  O246  1  0.00528635  0.08126561  0.00136723  1
  O  O247  1  -0.00131970  0.12489079  0.54769904  1
  O  O248  1  -0.01623921  0.64356530  0.01392353  1
  O  O249  1  0.00269751  0.60847908  0.45648502  1
  O  O250  1  0.54901026  0.16880647  0.03798678  1
  O  O251  1  0.51996711  0.10501716  0.55389384  1
  O  O252  1  0.53361121  0.65188597  -0.04799453  1
  O  O253  1  0.51294222  0.61676551  0.48963559  1
  O  O254  1  0.56089867  0.31272624  0.46826559  1
  O  O255  1  0.41195881  0.38983289  1.00273389  1
  O  O256  1  0.56703690  0.88588092  0.49556794  1
  O  O257  1  0.49248146  0.90644347  0.99553239  1
  O  O258  1  1.00113905  0.40472623  0.47895315  1
  O  O259  1  1.03858154  0.34512412  1.01650425  1
  O  O260  1  1.01825997  0.79204883  0.47977918  1
  O  O261  1  1.03336213  0.91242794  1.00557620  1
  O  O262  1  0.46371552  0.52312195  0.37123839  1
  O  O263  1  0.45772804  0.49251476  0.90103734  1
  O  O264  1  0.56739770  0.94317468  0.44219007  1
  O  O265  1  0.51770791  1.00907169  0.89663162  1
  O  O266  1  0.97400048  0.51378435  0.32854887  1
  O  O267  1  1.02869641  0.50356717  0.84024191  1
  O  O268  1  1.07596951  0.92294346  0.40348635  1
  O  O269  1  1.01478779  0.98328229  0.86126427  1
  O  O270  1  0.00255467  0.00621800  0.14678377  1
  O  O271  1  0.00773082  0.02764953  0.66479999  1
  O  O272  1  -0.01228380  0.52300351  0.13172833  1
  O  O273  1  0.03520629  0.53052788  0.61745510  1
  O  O274  1  0.45340784  -0.04385615  0.14552436  1
  O  O275  1  0.54215716  0.04941603  0.70622304  1
  O  O276  1  0.52290642  0.50748910  0.07679351  1
  O  O277  1  0.53439750  0.50465437  0.66582868  1
  O  O278  1  0.15424308  0.36265462  0.32989603  1
  O  O279  1  0.25374907  0.42892955  0.72773994  1
  O  O280  1  0.25322776  0.88933848  0.24655629  1
  O  O281  1  0.36734307  1.00059870  0.69490267  1
  O  O282  1  0.72608881  0.37441814  0.25016129  1
  O  O283  1  0.66970823  0.46394874  0.83161663  1
  O  O284  1  0.72627013  0.93636632  0.20565607  1
  O  O285  1  0.76793319  0.86712273  0.67595738  1
  O  O286  1  0.24319094  0.10004114  0.30533659  1
  O  O287  1  0.20546151  0.07890329  0.77443520  1
  O  O288  1  0.26406747  0.59578450  0.22179402  1
  O  O289  1  0.26074153  0.69691407  0.74161166  1
  O  O290  1  0.78894166  0.10240080  0.26962728  1
  O  O291  1  0.77241099  0.15074766  0.76494741  1
  O  O292  1  0.71580638  0.58981817  0.25949924  1
  O  O293  1  0.67554057  0.61114930  0.78358662  1
  O  O294  1  0.34888384  0.12019850  0.42550212  1
  O  O295  1  0.33475952  0.16256684  0.88676597  1
  O  O296  1  0.35530804  0.63388139  0.33213063  1
  O  O297  1  0.39539649  0.63059620  0.84999661  1
  O  O298  1  0.86906141  0.07314385  0.39940923  1
  O  O299  1  0.87149682  0.12926547  0.89269168  1
  O  O300  1  0.84251690  0.59844188  0.34259213  1
  O  O301  1  0.85717253  0.72823572  0.89629174  1
  O  O302  1  0.13513502  0.44560997  0.08052778  1
  O  O303  1  0.20688337  0.33127676  0.56071685  1
  O  O304  1  0.15160736  0.88839304  0.12288068  1
  O  O305  1  0.08398060  0.89805401  0.60767794  1
  O  O306  1  0.63367260  0.35700788  0.12284149  1
  O  O307  1  0.59105979  0.37123122  0.61660727  1
  O  O308  1  0.61935496  0.85394019  0.11408875  1
  O  O309  1  0.62942368  0.91666449  0.64576531  1
  O  O310  1  0.09167784  0.21450975  0.23634738  1
  O  O311  1  0.19434122  0.11209683  0.94872627  1
  O  O312  1  0.13740107  0.74638319  0.22319249  1
  O  O313  1  0.08501489  0.75207071  0.73816291  1
  O  O314  1  0.63612481  0.24991835  0.23713455  1
  O  O315  1  0.57959750  0.27632385  0.77338926  1
  O  O316  1  0.61987024  0.76701920  0.27515773  1
  O  O317  1  0.59598625  0.75207859  0.68378493  1
  O  O318  1  0.44435995  0.13770404  0.22617453  1
  O  O319  1  0.40307319  0.26087089  0.76725660  1
  O  O320  1  0.34688231  0.72755785  0.21241342  1
  O  O321  1  0.46149770  0.85191580  0.70619127  1
  O  O322  1  0.90466974  0.18824655  0.28236106  1
  O  O323  1  0.86241252  0.26917615  0.81510434  1
  O  O324  1  0.83259513  0.79936680  0.30625244  1
  O  O325  1  0.85977031  0.73405775  0.71123192  1
  O  O326  1  0.36567111  0.46615117  0.48863774  1
  O  O327  1  0.32133405  0.53647058  0.96563275  1
  O  O328  1  0.40347597  0.93577689  0.44456081  1
  O  O329  1  0.40780756  1.08913862  1.01106699  1
  O  O330  1  0.87646556  0.49933967  0.45242654  1
  O  O331  1  0.81447470  0.58283333  0.98211840  1
  O  O332  1  0.77800151  1.02724481  0.52311454  1
  O  O333  1  0.89356025  0.96974227  0.95513535  1
  O  O334  1  0.17739229  -0.01430264  -0.06009899  1
  O  O335  1  0.10056222  0.02633341  0.53048279  1
  O  O336  1  0.16271573  0.50019439  -0.07024399  1
  O  O337  1  0.17967465  0.50273300  0.54204069  1
  O  O338  1  0.59672872  0.04032419  0.04366010  1
  O  O339  1  0.66212041  -0.02830446  0.61279635  1
  O  O340  1  0.67923188  0.57790592  0.02389567  1
  O  O341  1  0.60240805  0.48479824  0.50799591  1
  O  O342  1  0.35638966  0.37870069  0.15560996  1
  O  O343  1  0.36330396  0.33815944  0.65466785  1
  O  O344  1  0.31656396  0.83476775  0.11296439  1
  O  O345  1  0.37360420  0.91171051  0.50259895  1
  O  O346  1  0.89708046  0.39563365  0.07192967  1
  O  O347  1  0.86689251  0.42371467  0.58584296  1
  O  O348  1  0.83378030  1.06254402  0.14312150  1
  O  O349  1  0.88537450  0.79074754  0.56764343  1
  O  O350  1  0.13716248  0.11194369  0.41659841  1
  O  O351  1  0.22691044  0.04731940  0.94954816  1
  O  O352  1  0.15089526  0.57646772  0.36768861  1
  O  O353  1  0.11731140  0.65977147  0.86335968  1
  O  O354  1  0.70005744  0.21486367  0.39033551  1
  O  O355  1  0.62405200  0.12658854  0.92263101  1
  O  O356  1  0.61890316  0.58021834  0.38281827  1
  O  O357  1  0.66481461  0.54631868  0.96556712  1
