# generated using pymatgen
data_V51Zn51O256
_symmetry_space_group_name_H-M   'P 1'
_cell_length_a   17.44938170
_cell_length_b   17.47939615
_cell_length_c   17.22034093
_cell_angle_alpha   89.87610468
_cell_angle_beta   90.21364942
_cell_angle_gamma   89.28574106
_symmetry_Int_Tables_number   1
_chemical_formula_structural   V51Zn51O256
_chemical_formula_sum   'V51 Zn51 O256'
_cell_volume   5251.82670918
_cell_formula_units_Z   1
loop_
 _symmetry_equiv_pos_site_id
 _symmetry_equiv_pos_as_xyz
  1  'x, y, z'
loop_
 _atom_site_type_symbol
 _atom_site_label
 _atom_site_symmetry_multiplicity
 _atom_site_fract_x
 _atom_site_fract_y
 _atom_site_fract_z
 _atom_site_occupancy
  V  V0  1  -0.03011300  0.12564605  0.10509507  1
  V  V1  1  0.12818206  0.20949451  0.36522388  1
  V  V2  1  0.11841065  0.48019636  0.63235627  1
  V  V3  1  0.40451084  0.12725118  0.73973362  1
  V  V4  1  0.38573009  0.50219503  0.40987922  1
  V  V5  1  0.02095225  0.38867321  0.38776635  1
  V  V6  1  0.81354746  0.39319831  0.15545537  1
  V  V7  1  0.00875661  0.75707029  0.24246846  1
  V  V8  1  0.62013201  0.62181179  -0.01751249  1
  V  V9  1  0.51523766  0.87256375  0.89185450  1
  V  V10  1  0.72407537  0.25753357  0.54392044  1
  V  V11  1  0.87708169  0.50790402  0.40993353  1
  V  V12  1  0.38006638  0.11813275  0.24294753  1
  V  V13  1  0.16849991  0.12023586  -0.03899891  1
  V  V14  1  0.50973500  0.14431220  0.12214675  1
  V  V15  1  0.49692913  0.86065757  0.35254789  1
  V  V16  1  0.75819323  0.63744457  0.86624511  1
  V  V17  1  0.52304842  0.03006554  -0.00774206  1
  V  V18  1  0.00779026  0.65272338  0.60798120  1
  V  V19  1  0.15957557  0.88702962  0.74049228  1
  V  V20  1  0.14047044  0.74552754  0.37176626  1
  V  V21  1  0.89169570  0.33827543  0.50450611  1
  V  V22  1  0.37274663  0.63901819  0.76819877  1
  V  V23  1  0.38075397  0.01711949  0.87855545  1
  V  V24  1  0.25691289  0.25967100  -0.01641713  1
  V  V25  1  0.00513855  0.47401539  -0.01907383  1
  V  V26  1  0.77957555  0.73316725  0.47965295  1
  V  V27  1  -0.02126556  0.62262927  0.09374550  1
  V  V28  1  0.14250556  0.61241411  -0.02736514  1
  V  V29  1  0.25891897  0.24084295  0.50000954  1
  V  V30  1  0.61744754  0.02693668  0.65058574  1
  V  V31  1  0.88078484  0.60351212  0.26848869  1
  V  V32  1  0.35990726  0.27354278  0.63009417  1
  V  V33  1  0.25315864  0.77566703  0.51452337  1
  V  V34  1  0.08403878  0.10275211  0.49269135  1
  V  V35  1  0.37617851  0.27166505  0.13116280  1
  V  V36  1  0.87788889  0.76987114  0.63249361  1
  V  V37  1  0.20610883  0.34616480  0.13872446  1
  V  V38  1  0.63312120  0.86112556  0.75131205  1
  V  V39  1  0.40167217  0.76562487  0.12097419  1
  V  V40  1  0.47517065  0.04371111  0.56489322  1
  V  V41  1  0.73360014  0.32654288  0.00018884  1
  V  V42  1  0.57055062  0.48723759  0.12590486  1
  V  V43  1  0.00411103  0.88183605  0.38206117  1
  V  V44  1  0.65756293  0.53965563  0.61651605  1
  V  V45  1  0.11264203  0.50816575  0.12835345  1
  V  V46  1  0.14640166  -0.00684677  0.60556125  1
  V  V47  1  0.61536102  0.38239132  0.26436336  1
  V  V48  1  0.76732687  0.14011398  0.89022046  1
  V  V49  1  0.21203681  0.90256819  0.14745498  1
  V  V50  1  0.79544369  0.50468757  0.74255160  1
  Zn  Zn51  1  0.97054249  0.45767963  0.21976113  1
  Zn  Zn52  1  0.93380076  0.47790190  0.61413960  1
  Zn  Zn53  1  0.25645871  0.76829048  0.01028528  1
  Zn  Zn54  1  0.06699695  0.82084795  0.55550895  1
  Zn  Zn55  1  0.71213811  0.55417823  0.18139877  1
  Zn  Zn56  1  0.77059966  0.11535668  0.60090093  1
  Zn  Zn57  1  0.08558136  0.55299139  0.80524759  1
  Zn  Zn58  1  0.90736294  0.54263967  0.86955770  1
  Zn  Zn59  1  0.25479512  0.23822001  0.27097482  1
  Zn  Zn60  1  0.68146950  0.95935610  0.92352335  1
  Zn  Zn61  1  0.20274501  0.03685885  0.79073529  1
  Zn  Zn62  1  0.30484236  0.58974575  0.57641703  1
  Zn  Zn63  1  0.58515245  0.51826505  0.34217837  1
  Zn  Zn64  1  0.20484257  0.93062660  0.93421737  1
  Zn  Zn65  1  0.87332474  0.32418613  0.30994067  1
  Zn  Zn66  1  0.56556507  0.88318148  0.55342153  1
  Zn  Zn67  1  0.79403784  0.51339857  0.00806650  1
  Zn  Zn68  1  0.70160314  0.42754107  0.45793383  1
  Zn  Zn69  1  0.30657563  0.80491619  0.28365418  1
  Zn  Zn70  1  0.57174453  0.57358753  0.78969967  1
  Zn  Zn71  1  0.70603957  0.68736449  0.68254171  1
  Zn  Zn72  1  0.06536718  0.28836770  0.03043182  1
  Zn  Zn73  1  0.45383122  0.93806405  0.73241334  1
  Zn  Zn74  1  0.67916050  0.20610425  0.20166011  1
  Zn  Zn75  1  0.38459769  0.13600475  0.44978120  1
  Zn  Zn76  1  0.81920281  0.32783260  0.68094859  1
  Zn  Zn77  1  0.19986229  0.42378582  0.45126811  1
  Zn  Zn78  1  0.55751182  0.32765394  0.07508795  1
  Zn  Zn79  1  0.84836565  0.78696736  0.32117688  1
  Zn  Zn80  1  0.80469763  0.80861793  0.81074433  1
  Zn  Zn81  1  0.26557952  0.19196234  0.80143492  1
  Zn  Zn82  1  0.57299545  0.09279375  0.82041869  1
  Zn  Zn83  1  0.82122828  0.59990490  0.56607116  1
  Zn  Zn84  1  0.41532979  0.17947539  0.95023980  1
  Zn  Zn85  1  0.96092962  0.69099863  0.42875485  1
  Zn  Zn86  1  0.13523781  0.71901526  0.13271480  1
  Zn  Zn87  1  0.22637047  0.46245680  0.99938288  1
  Zn  Zn88  1  0.77982159  0.93330081  0.66730560  1
  Zn  Zn89  1  0.41956782  0.69606904  0.42572911  1
  Zn  Zn90  1  1.03608038  0.95653336  0.22731835  1
  Zn  Zn91  1  0.32259000  0.83376061  0.83104995  1
  Zn  Zn92  1  0.28119329  0.10937837  0.61545539  1
  Zn  Zn93  1  0.54106424  0.20740366  0.57307624  1
  Zn  Zn94  1  0.17344010  0.91905989  0.43393046  1
  Zn  Zn95  1  0.44516940  0.69269235  0.96449488  1
  Zn  Zn96  1  0.94649085  0.19048788  0.40886072  1
  Zn  Zn97  1  0.45203184  0.95527212  0.16270796  1
  Zn  Zn98  1  0.09536874  0.30645591  0.54264997  1
  Zn  Zn99  1  0.33144416  0.07729363  0.06263193  1
  Zn  Zn100  1  0.42787835  0.42911339  0.21748718  1
  Zn  Zn101  1  0.79289854  0.10189039  0.09401499  1
  O  O102  1  0.01936731  0.16119980  0.18393939  1
  O  O103  1  0.09014350  0.08382348  0.59723106  1
  O  O104  1  0.13458164  0.60201836  0.13635060  1
  O  O105  1  0.10730762  0.65898258  0.66224672  1
  O  O106  1  0.60336790  0.17074254  0.12401725  1
  O  O107  1  0.60106624  0.12129339  0.62715314  1
  O  O108  1  0.63111048  0.56301115  0.08664212  1
  O  O109  1  0.63809802  0.63549683  0.60666460  1
  O  O110  1  0.40869300  0.41329452  0.45207126  1
  O  O111  1  0.47569624  0.32013831  0.79066458  1
  O  O112  1  0.39193995  0.86290180  0.34067962  1
  O  O113  1  0.41190037  0.90830516  0.85907004  1
  O  O114  1  0.88230379  0.38743271  0.41222420  1
  O  O115  1  0.88453147  0.33910739  0.90380044  1
  O  O116  1  0.90647602  0.86852961  0.35982724  1
  O  O117  1  0.77124355  0.77462367  1.02745232  1
  O  O118  1  0.25464751  0.01084659  0.36710955  1
  O  O119  1  0.28501479  0.00188500  0.87859556  1
  O  O120  1  0.28608446  0.48755431  0.41988645  1
  O  O121  1  0.36468372  0.44615100  0.93815527  1
  O  O122  1  0.83713671  -0.00470952  0.25509020  1
  O  O123  1  0.75593479  0.03859520  0.89381719  1
  O  O124  1  0.78097965  0.49688317  0.40986226  1
  O  O125  1  0.80203032  0.50459284  0.84465960  1
  O  O126  1  0.20410711  0.45337448  0.11885520  1
  O  O127  1  0.22357018  0.50882016  0.59602566  1
  O  O128  1  0.26722610  0.99156997  0.10372240  1
  O  O129  1  0.24168026  1.00652391  0.59841944  1
  O  O130  1  0.78104394  0.48415610  0.12115355  1
  O  O131  1  0.76031710  0.53414517  0.63430223  1
  O  O132  1  0.74337384  1.12259163  0.18409616  1
  O  O133  1  0.72183561  1.01864448  0.62156426  1
  O  O134  1  -0.01959950  0.36870894  0.29490699  1
  O  O135  1  -0.04470203  0.33290581  0.76763114  1
  O  O136  1  -0.00742166  0.84970283  0.21971754  1
  O  O137  1  -0.05934087  0.88493362  0.82580979  1
  O  O138  1  0.51770394  0.37828593  0.26929519  1
  O  O139  1  0.63173334  0.34271043  0.78515015  1
  O  O140  1  0.49995736  0.88795654  0.25236545  1
  O  O141  1  0.52812525  0.86919828  0.77556479  1
  O  O142  1  0.49291839  0.13833332  0.22046173  1
  O  O143  1  0.49697701  0.15021208  0.75991112  1
  O  O144  1  0.55253708  0.62899262  0.27139068  1
  O  O145  1  0.47483767  0.63201922  0.75377780  1
  O  O146  1  0.88274492  0.16789579  0.14385775  1
  O  O147  1  0.86871207  0.00442450  0.70874535  1
  O  O148  1  0.95401571  0.58430428  0.19982077  1
  O  O149  1  1.05513344  0.64800829  0.71929220  1
  O  O150  1  0.36000124  0.25970447  0.00340585  1
  O  O151  1  0.34999305  0.27480082  0.50524767  1
  O  O152  1  0.36174652  0.73027950  0.02950240  1
  O  O153  1  0.35882981  0.74477376  0.49780660  1
  O  O154  1  0.86324233  0.33339616  -0.02741122  1
  O  O155  1  0.89151003  0.24304775  0.50290948  1
  O  O156  1  0.83618123  0.77812427  0.00183144  1
  O  O157  1  0.87856161  0.74260673  0.49244885  1
  O  O158  1  0.12128244  0.19943600  0.50671024  1
  O  O159  1  0.14385328  0.21980770  0.99098412  1
  O  O160  1  0.14678074  0.76815680  0.48392303  1
  O  O161  1  0.16692511  0.70020062  1.01427528  1
  O  O162  1  0.62710968  0.27016533  0.54572049  1
  O  O163  1  0.64259833  0.29739139  1.00853000  1
  O  O164  1  0.63566312  0.79055569  0.53331867  1
  O  O165  1  0.63329857  0.71085132  1.00439933  1
  O  O166  1  0.48007616  0.25625186  0.10621515  1
  O  O167  1  0.45810648  0.26696409  0.61595750  1
  O  O168  1  0.48739636  0.72526262  0.12898563  1
  O  O169  1  0.47656917  0.81770346  0.60922346  1
  O  O170  1  0.97603794  0.21188905  0.04891546  1
  O  O171  1  0.99956741  0.11857622  0.74330451  1
  O  O172  1  1.01378246  0.71234019  0.14139683  1
  O  O173  1  0.98810727  0.76022516  0.61293394  1
  O  O174  1  0.03997323  0.25717570  0.38208107  1
  O  O175  1  0.01171453  0.30929460  0.80765186  1
  O  O176  1  0.01516324  0.76256031  0.35861916  1
  O  O177  1  0.00526554  0.90400774  1.00635949  1
  O  O178  1  0.49531559  0.24794725  0.35693565  1
  O  O179  1  0.41369785  0.34048740  0.81628860  1
  O  O180  1  0.46876116  0.75872623  0.34905230  1
  O  O181  1  0.49706592  0.78093204  0.91313091  1
  O  O182  1  0.28303295  0.13636264  0.49368314  1
  O  O183  1  0.26307576  0.14179915  0.99471537  1
  O  O184  1  0.25881489  0.66216829  0.51185705  1
  O  O185  1  0.23411745  0.56637910  0.97503430  1
  O  O186  1  0.74449721  0.16873965  0.50504457  1
  O  O187  1  0.75711239  0.13992504  0.99878435  1
  O  O188  1  0.75504921  0.63982292  0.48136062  1
  O  O189  1  0.73725041  0.59871825  0.96623469  1
  O  O190  1  0.22548205  0.35464145  0.00664102  1
  O  O191  1  0.20283416  0.33122639  0.51283090  1
  O  O192  1  0.26550511  0.92883598  0.05142236  1
  O  O193  1  0.26293738  0.86739331  0.47143925  1
  O  O194  1  0.73391384  0.41784046  -0.02690584  1
  O  O195  1  0.76808068  0.34090465  0.49956817  1
  O  O196  1  0.76774807  0.94039268  0.02822678  1
  O  O197  1  0.70115717  0.81722412  0.50918290  1
  O  O198  1  0.08327367  0.47714740  0.21560354  1
  O  O199  1  0.13971375  0.49861351  0.72837020  1
  O  O200  1  0.22930508  1.02521211  0.30226789  1
  O  O201  1  0.13208096  0.99930953  0.70891428  1
  O  O202  1  0.63123372  0.49832478  0.23822274  1
  O  O203  1  0.61211652  0.51432083  0.70256555  1
  O  O204  1  0.68854000  0.95385275  0.24158646  1
  O  O205  1  0.62723934  1.02273717  0.75092613  1
  O  O206  1  0.38686858  0.02179238  0.22219433  1
  O  O207  1  0.39423819  0.02425878  0.76779778  1
  O  O208  1  0.37916861  0.46988964  0.31437569  1
  O  O209  1  0.35906390  0.54587714  0.79439442  1
  O  O210  1  0.83740510  0.05398791  0.29428189  1
  O  O211  1  0.87701386  -0.12666835  0.87458465  1
  O  O212  1  0.88379114  0.50188081  0.29354216  1
  O  O213  1  0.89120557  0.50584474  0.71871361  1
  O  O214  1  0.11838146  0.39782719  0.38252867  1
  O  O215  1  0.16309368  0.34794824  0.77993614  1
  O  O216  1  0.11278232  0.86093928  0.36191479  1
  O  O217  1  0.15130193  0.93940320  0.83349113  1
  O  O218  1  0.63754010  0.41867789  0.36335756  1
  O  O219  1  0.55974586  0.44705284  0.88541455  1
  O  O220  1  0.59042082  0.83212216  0.33635443  1
  O  O221  1  0.62503932  0.88312254  0.87203391  1
  O  O222  1  0.38940461  0.14904086  0.12119627  1
  O  O223  1  0.40039386  0.10758883  0.63737926  1
  O  O224  1  0.29557493  0.58512181  0.22262969  1
  O  O225  1  0.36864111  0.62472706  0.66321613  1
  O  O226  1  0.89653137  0.06809570  0.05360957  1
  O  O227  1  0.88327177  0.10263617  0.62408456  1
  O  O228  1  0.89068980  0.63770132  0.06600722  1
  O  O229  1  0.91066912  0.63882359  0.62629366  1
  O  O230  1  0.26578798  0.26177509  0.11077204  1
  O  O231  1  0.26234759  0.22538403  0.60941990  1
  O  O232  1  0.20044284  0.80729451  0.11071687  1
  O  O233  1  0.24709925  0.78854869  0.60759503  1
  O  O234  1  0.77312606  0.31654918  0.09564473  1
  O  O235  1  0.76113448  0.24328355  0.63917911  1
  O  O236  1  0.65415483  0.80332946  0.14989687  1
  O  O237  1  0.78481922  0.72433159  0.60701594  1
  O  O238  1  0.22715465  0.24239990  0.39013848  1
  O  O239  1  0.26102555  0.26309475  0.88506333  1
  O  O240  1  0.23841355  0.75472835  0.35330793  1
  O  O241  1  0.25970175  0.83401229  0.92217872  1
  O  O242  1  0.69671458  0.14661411  0.34106398  1
  O  O243  1  0.76086942  0.24002706  0.91012415  1
  O  O244  1  0.76445252  0.75924372  0.38333022  1
  O  O245  1  0.74165564  0.73422064  0.86375546  1
  O  O246  1  0.04139298  0.09905232  0.03815313  1
  O  O247  1  -0.01092376  0.11004238  0.47282850  1
  O  O248  1  0.03270829  0.62704969  0.00679352  1
  O  O249  1  0.02487028  0.64808424  0.51174138  1
  O  O250  1  0.50465304  0.13606185  0.00024316  1
  O  O251  1  0.48148801  0.13159454  0.50745564  1
  O  O252  1  0.52010279  0.61335880  -0.01942423  1
  O  O253  1  0.52747195  0.66137138  0.47293828  1
  O  O254  1  0.53346913  0.27453809  0.40963185  1
  O  O255  1  0.54025842  0.38033618  0.90456634  1
  O  O256  1  0.50674896  0.85012813  0.45622614  1
  O  O257  1  0.51250033  0.91941847  0.98193988  1
  O  O258  1  0.99943470  0.35089659  0.49256100  1
  O  O259  1  1.01860948  0.37810646  0.98590237  1
  O  O260  1  1.00796833  0.88547246  0.48119591  1
  O  O261  1  0.94575336  0.88820686  1.04080371  1
  O  O262  1  0.48688109  0.51533684  0.39670386  1
  O  O263  1  0.51186231  0.48370081  0.83325414  1
  O  O264  1  0.50378612  0.95599413  0.37820960  1
  O  O265  1  0.50684856  1.03011293  0.88462047  1
  O  O266  1  0.99089598  0.48183985  0.40293664  1
  O  O267  1  1.01236538  0.50438699  0.87708144  1
  O  O268  1  1.01510872  0.97105545  0.33450669  1
  O  O269  1  0.97777053  0.94495909  0.83693106  1
  O  O270  1  -0.01742998  0.03923324  0.15887514  1
  O  O271  1  -0.09055441  0.03555164  0.65220506  1
  O  O272  1  0.00632212  0.50899712  0.09124688  1
  O  O273  1  0.03083093  0.53312842  0.61691507  1
  O  O274  1  0.50740420  0.03342398  0.10329434  1
  O  O275  1  0.50613696  0.00658430  0.66249211  1
  O  O276  1  0.48742558  0.51251127  0.17365130  1
  O  O277  1  0.50949035  0.41795749  0.62937215  1
  O  O278  1  0.22808777  0.34381788  0.23433391  1
  O  O279  1  0.16239450  0.28573693  0.74701189  1
  O  O280  1  0.25856202  0.89238999  0.23370080  1
  O  O281  1  0.25884716  0.87257208  0.74651236  1
  O  O282  1  0.79090749  0.37392472  0.24970281  1
  O  O283  1  0.76585636  0.41137576  0.72877075  1
  O  O284  1  0.80099990  0.85211797  0.21732347  1
  O  O285  1  0.73711558  0.88775859  0.76246961  1
  O  O286  1  0.28179341  0.13521769  0.23334954  1
  O  O287  1  0.26667770  0.10770900  0.73206031  1
  O  O288  1  0.24072086  0.57342961  0.26559653  1
  O  O289  1  0.27289749  0.65816165  0.75607935  1
  O  O290  1  0.66135083  0.01755465  0.25479723  1
  O  O291  1  0.78067134  0.15456235  0.79247626  1
  O  O292  1  0.78952647  0.61444271  0.23339872  1
  O  O293  1  0.74502616  0.61035328  0.76112981  1
  O  O294  1  0.39450854  0.12750995  0.34188897  1
  O  O295  1  0.37600419  0.12824422  0.85882361  1
  O  O296  1  0.37835004  0.60472362  0.38479398  1
  O  O297  1  0.38315603  0.65339950  0.87167275  1
  O  O298  1  0.71655422  -0.00004502  0.40710956  1
  O  O299  1  0.86635498  0.12839888  0.89695066  1
  O  O300  1  0.89523485  0.61187329  0.37833048  1
  O  O301  1  0.85737406  0.64126246  0.87364859  1
  O  O302  1  0.11257191  0.32208523  0.12765726  1
  O  O303  1  0.09368902  0.38633071  0.62500164  1
  O  O304  1  0.12363846  0.94231286  0.16454824  1
  O  O305  1  0.12578427  0.89140198  0.62107100  1
  O  O306  1  0.61828923  0.39179493  0.15360589  1
  O  O307  1  0.46584608  0.44266126  0.67871519  1
  O  O308  1  0.64831171  0.86247729  0.11221344  1
  O  O309  1  0.62215198  0.90202511  0.65561789  1
  O  O310  1  0.14037092  0.21033236  0.26872224  1
  O  O311  1  0.03375833  0.17052014  0.77506740  1
  O  O312  1  0.10915505  0.74162556  0.25106982  1
  O  O313  1  0.11393826  0.80840046  0.75954760  1
  O  O314  1  0.65107033  0.28972581  0.26176941  1
  O  O315  1  0.61712636  0.32415535  0.71808621  1
  O  O316  1  0.60603571  0.66126735  0.23811398  1
  O  O317  1  0.64214345  0.76696501  0.73252555  1
  O  O318  1  0.37206753  0.25043317  0.22903693  1
  O  O319  1  0.35852165  0.22466567  0.73061561  1
  O  O320  1  0.34666452  0.74175336  0.20270224  1
  O  O321  1  0.37771106  0.74596652  0.77574954  1
  O  O322  1  0.88017486  0.21884057  0.32914780  1
  O  O323  1  0.90576841  0.27727975  0.74244833  1
  O  O324  1  0.91120072  0.71243563  0.26280112  1
  O  O325  1  0.87221408  0.76478744  0.73032663  1
  O  O326  1  0.38646671  0.54083244  0.51116488  1
  O  O327  1  0.41509372  0.48665687  0.96573072  1
  O  O328  1  0.40726439  0.99332826  0.52612680  1
  O  O329  1  0.39667456  1.02613140  0.98122114  1
  O  O330  1  0.89073186  0.52114071  0.51245234  1
  O  O331  1  0.90421686  0.49180502  0.98148036  1
  O  O332  1  0.75463172  0.94132328  0.39732780  1
  O  O333  1  0.76432385  0.98137913  1.08900603  1
  O  O334  1  0.15531458  0.02611124  -0.01725232  1
  O  O335  1  0.12502441  0.00106724  0.49203218  1
  O  O336  1  0.11073824  0.50262944  0.00273758  1
  O  O337  1  0.16752031  0.50495580  0.53373059  1
  O  O338  1  0.62041753  0.02245534  -0.00599416  1
  O  O339  1  0.56785192  -0.00639727  0.53882352  1
  O  O340  1  0.53485569  0.43814083  0.04796082  1
  O  O341  1  0.64057739  0.48473549  0.53424996  1
  O  O342  1  0.37657277  0.37083089  0.13806912  1
  O  O343  1  0.33866489  0.36241224  0.64811957  1
  O  O344  1  0.41211933  0.86590806  0.12002682  1
  O  O345  1  0.42031829  0.85350867  0.63885236  1
  O  O346  1  0.91003480  0.39020289  0.14793163  1
  O  O347  1  0.88939380  0.37525159  0.60127140  1
  O  O348  1  0.82269996  0.83678609  0.15068949  1
  O  O349  1  0.85137691  0.86259435  0.61392028  1
  O  O350  1  0.11825103  0.11159547  0.38764444  1
  O  O351  1  0.16959172  0.12592225  0.86192313  1
  O  O352  1  0.12478291  0.65352865  0.38091553  1
  O  O353  1  0.12714518  0.62629851  0.87641754  1
  O  O354  1  0.63726699  0.14170232  0.37829906  1
  O  O355  1  0.66360596  0.13551631  0.87125241  1
  O  O356  1  0.58245289  0.63172257  0.43496549  1
  O  O357  1  0.63160694  0.61341904  0.87380643  1
