# generated using pymatgen
data_V51Zn51O256
_symmetry_space_group_name_H-M   'P 1'
_cell_length_a   17.58980578
_cell_length_b   17.79487725
_cell_length_c   17.58378450
_cell_angle_alpha   90.13892335
_cell_angle_beta   90.21989871
_cell_angle_gamma   89.56366047
_symmetry_Int_Tables_number   1
_chemical_formula_structural   V51Zn51O256
_chemical_formula_sum   'V51 Zn51 O256'
_cell_volume   5503.65693188
_cell_formula_units_Z   1
loop_
 _symmetry_equiv_pos_site_id
 _symmetry_equiv_pos_as_xyz
  1  'x, y, z'
loop_
 _atom_site_type_symbol
 _atom_site_label
 _atom_site_symmetry_multiplicity
 _atom_site_fract_x
 _atom_site_fract_y
 _atom_site_fract_z
 _atom_site_occupancy
  V  V0  1  -0.05584346  0.89139811  0.88540227  1
  V  V1  1  0.45107701  0.84105528  0.14984283  1
  V  V2  1  0.10407479  0.46603855  0.59431162  1
  V  V3  1  0.53598953  0.28850864  0.29860533  1
  V  V4  1  0.00248400  0.54365435  -0.00810121  1
  V  V5  1  0.17063776  0.76426495  0.31422590  1
  V  V6  1  0.61721865  0.73756961  0.38925463  1
  V  V7  1  -0.02053974  0.12870863  0.09304492  1
  V  V8  1  0.62741634  0.58634603  0.04047043  1
  V  V9  1  0.34930711  0.12962232  0.29285399  1
  V  V10  1  0.88888218  0.53899941  0.39128819  1
  V  V11  1  0.40605571  0.56930013  0.26752202  1
  V  V12  1  0.86905200  0.28784149  0.62692671  1
  V  V13  1  0.70607373  0.47486057  0.76598949  1
  V  V14  1  0.85933701  0.12924016  0.71600515  1
  V  V15  1  0.10583188  -0.02160477  0.64183246  1
  V  V16  1  0.62670220  0.11002369  -0.05005443  1
  V  V17  1  0.82615779  0.76153346  0.08833046  1
  V  V18  1  0.96771518  -0.01457757  0.40311910  1
  V  V19  1  0.78928179  0.54172683  0.25593484  1
  V  V20  1  -0.00430991  0.33700420  0.87340370  1
  V  V21  1  0.06276960  0.63982020  0.12779303  1
  V  V22  1  0.41213808  0.47759881  0.40347004  1
  V  V23  1  0.34235945  0.20888400  0.61827457  1
  V  V24  1  0.52249302  0.24513523  0.74212927  1
  V  V25  1  0.21175739  0.03241191  0.21062802  1
  V  V26  1  0.76563872  0.91767086  0.55323317  1
  V  V27  1  0.48160279  0.66722194  0.82101289  1
  V  V28  1  0.32096434  -0.00595305  0.43158525  1
  V  V29  1  0.80899220  0.90579492  0.00063144  1
  V  V30  1  0.91818281  0.59420498  0.81607798  1
  V  V31  1  0.39282965  0.35243194  0.51134927  1
  V  V32  1  0.73546687  0.39301296  0.62899020  1
  V  V33  1  0.22148654  0.21062255  -0.03562286  1
  V  V34  1  0.15575354  0.82917451  0.85046786  1
  V  V35  1  0.61627688  0.72735461  0.90091148  1
  V  V36  1  -0.00414330  0.77428937  0.19407989  1
  V  V37  1  0.54080748  0.13401209  0.60520262  1
  V  V38  1  0.12677346  0.89469714  0.18242346  1
  V  V39  1  0.76257719  0.02870754  0.24120013  1
  V  V40  1  -0.02325681  0.76911472  0.78196691  1
  V  V41  1  0.68200444  0.42102907  0.35494069  1
  V  V42  1  0.16586669  0.38640155  0.22142127  1
  V  V43  1  0.75811890  0.15007662  0.85880601  1
  V  V44  1  0.01846565  0.00760248  -0.01438602  1
  V  V45  1  0.84556735  0.72008998  0.68867613  1
  V  V46  1  0.59286339  0.63524921  0.52897107  1
  V  V47  1  0.01219424  0.23640706  0.73535159  1
  V  V48  1  0.00654935  0.83297244  0.38928570  1
  V  V49  1  0.72071836  0.57815965  0.89128894  1
  V  V50  1  0.37276774  0.39035034  0.03123205  1
  Zn  Zn51  1  0.44145360  0.42736875  0.20009669  1
  Zn  Zn52  1  0.57492388  0.41220932  1.01892133  1
  Zn  Zn53  1  0.54112468  0.34097323  0.61722429  1
  Zn  Zn54  1  0.61315266  0.95635698  0.64210004  1
  Zn  Zn55  1  0.54791452  0.49266485  0.85857715  1
  Zn  Zn56  1  0.15311636  0.19263555  0.13579756  1
  Zn  Zn57  1  0.95110161  0.42488187  0.71872469  1
  Zn  Zn58  1  0.83840585  0.08183413  0.52375283  1
  Zn  Zn59  1  0.69341890  0.69462817  0.20167679  1
  Zn  Zn60  1  0.14162138  0.18216627  0.60417575  1
  Zn  Zn61  1  0.30819850  0.88810850  0.28962224  1
  Zn  Zn62  1  0.47426497  1.03927468  0.17396991  1
  Zn  Zn63  1  0.32588254  0.12946719  0.10810038  1
  Zn  Zn64  1  0.47948614  0.64725288  0.40878649  1
  Zn  Zn65  1  0.32378844  0.77581787  0.75022346  1
  Zn  Zn66  1  0.91425693  0.70513792  0.50339122  1
  Zn  Zn67  1  0.92874903  0.93731967  0.14021466  1
  Zn  Zn68  1  0.67648657  0.77141922  0.59240978  1
  Zn  Zn69  1  0.72546308  0.90056071  0.36158605  1
  Zn  Zn70  1  0.66137194  0.66183640  0.71911859  1
  Zn  Zn71  1  0.60833496  0.58299212  0.31426298  1
  Zn  Zn72  1  0.98380985  0.49054576  0.22425887  1
  Zn  Zn73  1  0.57911087  0.26092868  0.12253101  1
  Zn  Zn74  1  0.59049033  0.06900761  0.76789787  1
  Zn  Zn75  1  0.07004070  0.82123689  0.01931622  1
  Zn  Zn76  1  -0.01931436  0.04436188  0.79053883  1
  Zn  Zn77  1  0.69610745  0.21322164  0.68021318  1
  Zn  Zn78  1  1.05713262  0.20045676  0.95224304  1
  Zn  Zn79  1  0.21590405  0.59729385  0.23609489  1
  Zn  Zn80  1  0.05665382  0.08357858  0.25921791  1
  Zn  Zn81  1  0.18568299  1.02417535  0.91096479  1
  Zn  Zn82  1  0.09871441  0.36669062  0.02405729  1
  Zn  Zn83  1  0.82218889  0.56338672  0.06830808  1
  Zn  Zn84  1  0.83499878  0.37423512  0.45924874  1
  Zn  Zn85  1  0.36969206  0.20694555  0.82263447  1
  Zn  Zn86  1  0.31098529  0.48235883  0.58532570  1
  Zn  Zn87  1  0.08021610  0.41398001  0.40248975  1
  Zn  Zn88  1  0.38371816  0.35159621  0.70250872  1
  Zn  Zn89  1  0.52349370  0.28526823  0.93108063  1
  Zn  Zn90  1  0.00781699  0.28992607  0.52787918  1
  Zn  Zn91  1  0.81849968  0.31443293  0.80438215  1
  Zn  Zn92  1  0.35265232  0.31588934  0.31280253  1
  Zn  Zn93  1  0.90682461  0.92786953  0.68604943  1
  Zn  Zn94  1  0.48273036  0.68416080  1.01819842  1
  Zn  Zn95  1  0.12620005  0.47883377  0.89429817  1
  Zn  Zn96  1  0.81689835  0.73361256  0.88916755  1
  Zn  Zn97  1  0.80383346  0.09574837  0.04279436  1
  Zn  Zn98  1  0.15888846  0.90228746  0.45168173  1
  Zn  Zn99  1  0.28386796  -0.09762651  0.59305996  1
  Zn  Zn100  1  0.62042276  0.91847121  0.94842273  1
  Zn  Zn101  1  0.42718173  0.17594446  0.43918880  1
  O  O102  1  0.05963717  0.19072791  0.07268736  1
  O  O103  1  0.12026853  0.07658488  0.62888467  1
  O  O104  1  0.15711728  0.63044263  0.14602827  1
  O  O105  1  0.08122132  0.55771019  0.61509509  1
  O  O106  1  0.58030453  0.09682808  0.11072919  1
  O  O107  1  0.63443764  0.16113803  0.60509714  1
  O  O108  1  0.65369639  0.62315043  0.12671694  1
  O  O109  1  0.61267123  0.68815415  0.62382142  1
  O  O110  1  0.37278086  0.36747528  0.41044965  1
  O  O111  1  0.39020571  0.44237070  0.94985435  1
  O  O112  1  0.22362764  0.97966259  0.41432540  1
  O  O113  1  0.36051096  0.81865315  0.91288711  1
  O  O114  1  0.90491091  0.45749997  0.43956142  1
  O  O115  1  0.89955250  0.35435230  0.86640818  1
  O  O116  1  0.92464737  0.90142992  0.37257991  1
  O  O117  1  0.84708680  0.89851747  0.90059062  1
  O  O118  1  0.17028345  0.12371120  0.41147273  1
  O  O119  1  0.30117322  0.01387300  0.90224491  1
  O  O120  1  0.19907385  0.53788094  0.37749677  1
  O  O121  1  0.21945015  0.51034925  0.87044215  1
  O  O122  1  0.77794606  -0.00396780  0.34128931  1
  O  O123  1  0.71895855  -0.05955039  0.79293502  1
  O  O124  1  0.79258445  0.54476468  0.37182510  1
  O  O125  1  0.74641098  0.48519579  0.86760940  1
  O  O126  1  0.43014598  0.53608398  0.17855984  1
  O  O127  1  0.20179335  0.48545048  0.57235120  1
  O  O128  1  0.25334461  1.04127348  0.12584535  1
  O  O129  1  0.20266247  0.96470455  0.66447914  1
  O  O130  1  0.79520735  0.50979461  0.16286929  1
  O  O131  1  0.72940036  0.48903855  0.66733439  1
  O  O132  1  0.75766738  1.04983611  0.14241817  1
  O  O133  1  0.75804346  1.01342038  0.55083127  1
  O  O134  1  0.06786797  0.41088609  0.21072166  1
  O  O135  1  0.00085135  0.33552983  0.75385685  1
  O  O136  1  0.01468431  0.87951238  0.18332172  1
  O  O137  1  -0.05146957  0.88988827  0.78316725  1
  O  O138  1  0.45310648  0.33645914  0.26208549  1
  O  O139  1  0.49220152  0.34608482  0.71916609  1
  O  O140  1  0.54693714  0.99141784  0.23198593  1
  O  O141  1  0.43793423  0.83369266  0.60986340  1
  O  O142  1  0.43499273  0.09537834  0.26410952  1
  O  O143  1  0.52041684  0.13805293  0.72510262  1
  O  O144  1  0.49622674  0.60952525  0.29370178  1
  O  O145  1  0.47615069  0.57181803  0.82870859  1
  O  O146  1  0.98566631  0.13231337  0.18936221  1
  O  O147  1  0.96736174  0.14158697  0.74457034  1
  O  O148  1  1.02076224  0.67785640  0.21577086  1
  O  O149  1  0.98709258  0.66938156  0.79497235  1
  O  O150  1  0.42636392  0.31053925  -0.00392608  1
  O  O151  1  0.37487562  0.25067385  0.52163404  1
  O  O152  1  0.47934950  0.77997396  0.07084254  1
  O  O153  1  0.31883710  0.60737101  0.56794705  1
  O  O154  1  0.93658035  0.34678585  0.12284982  1
  O  O155  1  0.88898756  0.29881514  0.52602612  1
  O  O156  1  0.81026355  0.78410756  -0.01227513  1
  O  O157  1  0.85770155  0.71594255  0.59073375  1
  O  O158  1  0.07786696  0.20818606  0.52347383  1
  O  O159  1  0.16069685  0.28694873  0.97041256  1
  O  O160  1  0.18025695  0.66881858  0.49801428  1
  O  O161  1  0.13658450  0.79361501  0.93793175  1
  O  O162  1  0.69196355  0.14279848  0.45562742  1
  O  O163  1  0.62205007  0.14267879  1.07453928  1
  O  O164  1  0.65392139  0.72725338  0.48887646  1
  O  O165  1  0.61728959  0.69961694  0.99385996  1
  O  O166  1  0.56798619  0.23409859  0.22118328  1
  O  O167  1  0.49835051  0.23414035  0.63593185  1
  O  O168  1  0.55008760  0.85530661  0.15640879  1
  O  O169  1  0.46475666  0.76985212  0.60992689  1
  O  O170  1  0.91224072  0.39618455  0.16658239  1
  O  O171  1  0.97187422  0.25446512  0.63443976  1
  O  O172  1  1.04002706  0.75190734  0.10145880  1
  O  O173  1  0.94911544  0.77330194  0.68708547  1
  O  O174  1  -0.00618053  0.24001245  0.32572538  1
  O  O175  1  0.02794221  0.23888594  0.84652487  1
  O  O176  1  -0.00786329  0.78794640  0.30437433  1
  O  O177  1  -0.03417022  0.79573106  0.89082280  1
  O  O178  1  0.50829322  0.23423581  0.37111200  1
  O  O179  1  0.47431011  0.24703769  0.83393880  1
  O  O180  1  0.52071982  0.75136265  0.39175764  1
  O  O181  1  0.49276668  0.70981023  0.91163239  1
  O  O182  1  0.20022657  0.12768664  0.47855057  1
  O  O183  1  0.16473345  0.13684692  0.93104798  1
  O  O184  1  0.25108367  0.49568562  0.40050950  1
  O  O185  1  0.14462032  0.61330869  0.78132478  1
  O  O186  1  0.56754462  0.03344548  0.39890526  1
  O  O187  1  0.72958821  0.13090040  0.96775630  1
  O  O188  1  0.82784750  0.74751673  0.35588208  1
  O  O189  1  0.74146820  0.58731437  0.99147805  1
  O  O190  1  0.29847750  0.33227747  0.00416565  1
  O  O191  1  0.22588520  0.31972694  0.45649392  1
  O  O192  1  0.32204617  0.87091515  -0.06225106  1
  O  O193  1  0.20709955  0.85260389  0.53502121  1
  O  O194  1  0.75307450  0.35164849  0.07499278  1
  O  O195  1  0.76960065  0.41006357  0.54201413  1
  O  O196  1  0.71309551  0.90862842  0.00703246  1
  O  O197  1  0.77414673  0.88661743  0.46111708  1
  O  O198  1  0.19582736  0.48038512  0.22226880  1
  O  O199  1  0.14812252  0.43499598  0.67780848  1
  O  O200  1  0.10712120  0.99159105  0.20652607  1
  O  O201  1  0.07769541  1.00171512  0.73710633  1
  O  O202  1  0.68652450  0.50375647  0.28434296  1
  O  O203  1  0.61185289  0.46006424  0.77257056  1
  O  O204  1  0.67753220  1.07615843  0.25009832  1
  O  O205  1  0.61187717  0.96717013  0.75060484  1
  O  O206  1  0.28055685  0.04695006  0.28235103  1
  O  O207  1  0.44066952  -0.10052331  0.77332384  1
  O  O208  1  0.38377025  0.47063560  0.29830396  1
  O  O209  1  0.26682831  0.36626041  0.80920953  1
  O  O210  1  0.84685693  -0.02051356  0.20617024  1
  O  O211  1  0.88075274  0.03044363  0.72733917  1
  O  O212  1  0.89389214  0.51924087  0.28082197  1
  O  O213  1  0.91910462  0.50838312  0.77487263  1
  O  O214  1  0.14261745  0.37870050  0.31900741  1
  O  O215  1  0.04975308  0.41658443  0.85660753  1
  O  O216  1  0.11768172  0.80961793  0.39116363  1
  O  O217  1  0.16852119  0.92548257  0.85928594  1
  O  O218  1  0.65418365  0.45265153  0.43591399  1
  O  O219  1  0.58301506  0.30461788  1.02986116  1
  O  O220  1  0.65253000  0.82536266  0.36600468  1
  O  O221  1  0.61727042  0.82285576  0.90022908  1
  O  O222  1  0.31595918  0.17325312  0.21139888  1
  O  O223  1  0.37139445  0.12188240  0.62016333  1
  O  O224  1  0.44146266  0.76530318  0.21122655  1
  O  O225  1  0.33497155  0.51580439  0.69717394  1
  O  O226  1  0.88755841  0.15814083  0.07441583  1
  O  O227  1  0.85619863  0.13871764  0.61929759  1
  O  O228  1  0.85239042  0.66995591  0.08138829  1
  O  O229  1  0.86592378  0.63109947  0.72024143  1
  O  O230  1  0.24431532  0.18895583  0.06165742  1
  O  O231  1  0.24595731  0.20737722  0.60671004  1
  O  O232  1  0.36827267  0.83825069  0.09301115  1
  O  O233  1  0.29297833  0.65201610  0.61619837  1
  O  O234  1  0.78610124  0.30051711  0.04160903  1
  O  O235  1  0.76466483  0.28175208  0.62691395  1
  O  O236  1  0.74270049  0.76649458  0.13615423  1
  O  O237  1  0.74504838  0.73675008  0.68766402  1
  O  O238  1  0.17923453  0.27620513  0.42797207  1
  O  O239  1  0.29391668  0.21748778  0.89995691  1
  O  O240  1  0.26212672  0.79312236  0.31778638  1
  O  O241  1  0.23631402  0.78918449  0.81270621  1
  O  O242  1  0.81747642  0.16746770  0.44953120  1
  O  O243  1  0.75784040  0.24471636  0.86421928  1
  O  O244  1  0.80585222  0.79666745  0.31169084  1
  O  O245  1  0.70977789  0.69495268  0.87480736  1
  O  O246  1  -0.00184171  0.10473637  -0.02557020  1
  O  O247  1  -0.03684445  0.27857487  0.27633235  1
  O  O248  1  0.04150271  0.62955494  0.02425862  1
  O  O249  1  0.11066734  0.67795469  0.49779259  1
  O  O250  1  0.55676318  0.17508970  -0.05455419  1
  O  O251  1  0.50327519  0.14438267  0.51575043  1
  O  O252  1  0.52794816  0.59088512  0.04093219  1
  O  O253  1  0.49372070  0.64372961  0.52313049  1
  O  O254  1  0.48696684  0.35762727  0.52395992  1
  O  O255  1  0.46546341  0.42306757  1.07064309  1
  O  O256  1  0.33117048  0.71506258  0.44609916  1
  O  O257  1  0.44275603  0.95585948  0.93623488  1
  O  O258  1  1.01916347  0.33543131  0.43030826  1
  O  O259  1  1.01429895  0.31637369  0.97176640  1
  O  O260  1  0.97702291  0.78215471  0.46449598  1
  O  O261  1  0.99223748  0.90150979  0.98596092  1
  O  O262  1  0.50354531  0.46732549  0.40002202  1
  O  O263  1  0.54002664  0.40027576  0.91487060  1
  O  O264  1  0.36355069  0.92546817  0.37566996  1
  O  O265  1  0.40711143  0.95530169  0.79737286  1
  O  O266  1  1.03720514  0.49593689  0.33555612  1
  O  O267  1  0.98674729  0.56302229  0.89560544  1
  O  O268  1  1.05047327  0.92828538  0.42291094  1
  O  O269  1  0.98931768  0.99007742  0.88252134  1
  O  O270  1  -0.01920817  0.02061884  0.08594737  1
  O  O271  1  0.00374040  -0.02495926  0.62809164  1
  O  O272  1  0.02477545  0.55092700  0.14536711  1
  O  O273  1  0.00713203  0.45449061  0.62693370  1
  O  O274  1  0.42444119  0.09218039  0.09722581  1
  O  O275  1  0.54647672  0.03491353  0.61481073  1
  O  O276  1  0.56216396  0.44975087  0.19351581  1
  O  O277  1  0.35798021  0.46514220  0.74395938  1
  O  O278  1  0.26286531  0.35950529  0.24770931  1
  O  O279  1  0.20247003  0.34056907  0.81762556  1
  O  O280  1  0.22403833  0.92107346  0.22111239  1
  O  O281  1  0.32882429  0.84484745  0.66964834  1
  O  O282  1  0.76805258  0.37493525  0.36940890  1
  O  O283  1  0.74833999  0.38148206  0.75159002  1
  O  O284  1  0.71066492  0.93798927  0.24749819  1
  O  O285  1  0.74185790  0.87939154  0.77016567  1
  O  O286  1  0.15573285  0.12123573  0.22054199  1
  O  O287  1  0.26532753  0.10037789  0.74588818  1
  O  O288  1  0.32194853  0.61758239  0.25050437  1
  O  O289  1  0.31343243  0.67322956  0.99207378  1
  O  O290  1  0.81259743  0.10420878  0.27338582  1
  O  O291  1  0.75804380  0.14026701  0.74430679  1
  O  O292  1  0.78376586  0.63432199  0.24496086  1
  O  O293  1  0.70743903  0.58261632  0.77960765  1
  O  O294  1  0.36116947  0.08392829  0.40763219  1
  O  O295  1  0.38796134  0.09169166  0.85289916  1
  O  O296  1  0.39416604  0.57599753  0.39209054  1
  O  O297  1  0.36486259  0.65256886  1.03718926  1
  O  O298  1  0.98609678  0.04383300  0.32992739  1
  O  O299  1  0.84678274  0.11677877  0.85801741  1
  O  O300  1  1.00756372  0.55529345  0.37128501  1
  O  O301  1  0.84046374  0.61646021  0.87370918  1
  O  O302  1  0.17036612  0.38421608  0.11608298  1
  O  O303  1  0.08735869  0.36631912  0.56723813  1
  O  O304  1  0.14165949  0.88202868  0.09002112  1
  O  O305  1  0.10229924  0.87939165  0.65112248  1
  O  O306  1  0.60350136  0.40134543  0.16179731  1
  O  O307  1  0.64278025  0.37038030  0.61778082  1
  O  O308  1  0.48910764  0.90280648  -0.06886470  1
  O  O309  1  0.67551812  0.88194995  0.59422712  1
  O  O310  1  0.15046764  0.28653862  0.20466896  1
  O  O311  1  0.10105428  0.21941978  0.70411162  1
  O  O312  1  0.12887036  0.80129996  0.22810877  1
  O  O313  1  0.07568663  0.79990221  0.78862412  1
  O  O314  1  0.60974893  0.35466422  0.31972018  1
  O  O315  1  0.61766890  0.25521680  0.75233647  1
  O  O316  1  0.64290588  0.69034772  0.29764238  1
  O  O317  1  0.57745596  0.69494679  0.79598870  1
  O  O318  1  0.35490027  0.21405715  0.35002949  1
  O  O319  1  0.35367786  0.24551143  0.71786992  1
  O  O320  1  0.40826450  0.88336802  0.23386704  1
  O  O321  1  0.40547272  0.70725791  0.77345125  1
  O  O322  1  0.82660504  0.25574968  0.19627758  1
  O  O323  1  0.86886312  0.24094480  0.72956552  1
  O  O324  1  0.90188921  0.77276196  0.17475375  1
  O  O325  1  0.86261721  0.76144242  0.79201861  1
  O  O326  1  0.38085106  0.46791826  0.50375422  1
  O  O327  1  0.31079640  0.46478884  1.05246347  1
  O  O328  1  0.33429544  0.97001776  0.52643488  1
  O  O329  1  0.34813584  1.07192900  0.91347151  1
  O  O330  1  0.90583922  0.61720777  0.44724349  1
  O  O331  1  0.91709243  0.51929412  1.02920275  1
  O  O332  1  0.92254490  1.02959046  0.47667821  1
  O  O333  1  0.83688137  0.99782011  1.00906370  1
  O  O334  1  0.11310004  0.00237293  -0.00712019  1
  O  O335  1  0.11430872  -0.02352708  0.54235055  1
  O  O336  1  0.07718112  0.47320772  -0.00211775  1
  O  O337  1  0.09371042  0.47537597  0.48998051  1
  O  O338  1  0.59453086  0.02040708  -0.03439676  1
  O  O339  1  0.60635080  -0.02219888  0.41545763  1
  O  O340  1  0.64000020  0.48974271  0.04678773  1
  O  O341  1  0.61700142  0.55109854  0.55744616  1
  O  O342  1  0.36944855  0.36366338  0.13127582  1
  O  O343  1  0.34112821  0.37235115  0.60131415  1
  O  O344  1  0.45295672  0.94226534  0.11798178  1
  O  O345  1  0.32305693  0.76362800  0.49470983  1
  O  O346  1  0.76860584  0.28028454  0.22669463  1
  O  O347  1  0.86960405  0.37982564  0.65731774  1
  O  O348  1  0.85604236  0.87185514  0.08643895  1
  O  O349  1  0.84176633  0.89045518  0.61063698  1
  O  O350  1  0.09774085  0.11890046  0.40324760  1
  O  O351  1  0.21229215  0.10481703  0.79200824  1
  O  O352  1  0.16804833  0.66916057  0.30916389  1
  O  O353  1  0.18400884  0.64551648  0.73377624  1
  O  O354  1  0.74432319  0.18571478  0.43255514  1
  O  O355  1  0.65757394  0.10413179  0.84991199  1
  O  O356  1  0.60042527  0.62367979  0.41935267  1
  O  O357  1  0.62277188  0.57042582  0.91169891  1
