# generated using pymatgen
data_V51Zn51O256
_symmetry_space_group_name_H-M   'P 1'
_cell_length_a   17.60420347
_cell_length_b   17.54823467
_cell_length_c   17.39290919
_cell_angle_alpha   89.61187116
_cell_angle_beta   90.32739514
_cell_angle_gamma   89.65178628
_symmetry_Int_Tables_number   1
_chemical_formula_structural   V51Zn51O256
_chemical_formula_sum   'V51 Zn51 O256'
_cell_volume   5372.75285786
_cell_formula_units_Z   1
loop_
 _symmetry_equiv_pos_site_id
 _symmetry_equiv_pos_as_xyz
  1  'x, y, z'
loop_
 _atom_site_type_symbol
 _atom_site_label
 _atom_site_symmetry_multiplicity
 _atom_site_fract_x
 _atom_site_fract_y
 _atom_site_fract_z
 _atom_site_occupancy
  V  V0  1  0.15262266  0.64591642  0.51742890  1
  V  V1  1  0.71814637  0.12519708  0.83964299  1
  V  V2  1  0.48218477  0.63293503  0.59765621  1
  V  V3  1  0.12523034  0.41528658  0.30101964  1
  V  V4  1  0.76471558  0.59684743  0.88754481  1
  V  V5  1  0.18535424  0.51729449  0.63991232  1
  V  V6  1  -0.03956172  0.37927895  0.85497581  1
  V  V7  1  0.38956924  0.35870880  0.46581822  1
  V  V8  1  0.47567010  0.08760248  0.14887082  1
  V  V9  1  0.59457385  0.59977048  -0.04940047  1
  V  V10  1  0.45794476  0.22917661  0.25059417  1
  V  V11  1  0.02036105  0.89947343  0.37101828  1
  V  V12  1  0.84035467  0.66612875  0.27403758  1
  V  V13  1  0.24550791  0.23849325  0.48356375  1
  V  V14  1  0.70824312  0.26886709  0.04849721  1
  V  V15  1  0.11215723  0.87952678  0.19992692  1
  V  V16  1  0.54938164  0.76010725  0.72807545  1
  V  V17  1  0.25915677  0.10357663  0.84629965  1
  V  V18  1  0.84248682  0.89375079  -0.02211115  1
  V  V19  1  0.00457789  0.87218628  0.89724937  1
  V  V20  1  0.01636785  0.74034642  0.23580523  1
  V  V21  1  0.17752482  0.37596784  0.78252343  1
  V  V22  1  0.62317456  0.46499512  0.16353836  1
  V  V23  1  0.67817955  0.80705464  0.83360440  1
  V  V24  1  0.88930457  0.90947722  0.47840401  1
  V  V25  1  0.88770044  0.23686271  0.63354168  1
  V  V26  1  0.89678763  0.03082590  0.88221010  1
  V  V27  1  0.28562716  0.36389283  0.62347572  1
  V  V28  1  0.87796429  0.60263099  0.76298239  1
  V  V29  1  0.76730722  0.93621530  0.12290979  1
  V  V30  1  0.49354078  -0.02793972  0.49497601  1
  V  V31  1  0.12520507  0.51599097  0.12842155  1
  V  V32  1  0.51721540  0.20677281  0.73083164  1
  V  V33  1  0.45696679  0.10601809  0.60696498  1
  V  V34  1  0.14369937  0.75582418  0.39379920  1
  V  V35  1  0.90237834  0.73250238  0.58731651  1
  V  V36  1  0.64320449  0.10850955  0.48480771  1
  V  V37  1  0.75468852  0.35339177  0.65136247  1
  V  V38  1  0.27725335  0.52662290  0.26391693  1
  V  V39  1  0.00712056  0.58309538  0.62651973  1
  V  V40  1  0.60119364  0.23853012  0.36073433  1
  V  V41  1  0.34627820  -0.00004469  0.39325288  1
  V  V42  1  0.49552681  0.53342683  0.44506096  1
  V  V43  1  0.77280562  0.85588434  0.59024195  1
  V  V44  1  0.27174468  0.85606020  0.10235002  1
  V  V45  1  0.24154644  0.36333453  0.15489487  1
  V  V46  1  0.22201713  0.03258377  0.19896891  1
  V  V47  1  0.61844226  0.75330760  0.38695768  1
  V  V48  1  0.49655841  0.77096752  0.26188142  1
  V  V49  1  0.46066048  -0.07918340  0.90459826  1
  V  V50  1  0.23973297  0.90190257  0.64640861  1
  Zn  Zn51  1  0.56296715  0.60421195  0.28186911  1
  Zn  Zn52  1  0.69586658  0.18104423  0.65998702  1
  Zn  Zn53  1  0.45455468  0.93422323  0.69627542  1
  Zn  Zn54  1  0.33488546  0.28907327  0.80378166  1
  Zn  Zn55  1  0.76736589  0.31911499  0.86076355  1
  Zn  Zn56  1  0.98432081  0.53757039  0.24715218  1
  Zn  Zn57  1  0.57571938  0.79930890  0.56691106  1
  Zn  Zn58  1  0.15233682  0.39184923  0.98108892  1
  Zn  Zn59  1  0.85054440  0.84531851  0.28554858  1
  Zn  Zn60  1  0.56437374  0.30552653  0.16219393  1
  Zn  Zn61  1  0.08274443  0.06403436  0.28670274  1
  Zn  Zn62  1  0.55135785  0.26739535  0.54795391  1
  Zn  Zn63  1  0.87338277  0.74688213  0.87018021  1
  Zn  Zn64  1  0.45946154  0.44590300  0.58841865  1
  Zn  Zn65  1  0.32422761  0.81903958  0.32187097  1
  Zn  Zn66  1  0.39608639  0.93131077  0.21775205  1
  Zn  Zn67  1  0.64192937  0.40701985  0.44577977  1
  Zn  Zn68  1  0.53047357  0.06284518  0.81244247  1
  Zn  Zn69  1  0.04646254  0.51249213  0.78619408  1
  Zn  Zn70  1  0.31200045  -0.00184336  0.02835146  1
  Zn  Zn71  1  0.06920939  0.05239596  0.87293418  1
  Zn  Zn72  1  0.70674952  0.28361770  0.23542167  1
  Zn  Zn73  1  -0.03513770  0.85402338  0.09504717  1
  Zn  Zn74  1  0.67300170  0.92343839  0.47112763  1
  Zn  Zn75  1  0.79343890  0.93868575  0.77783197  1
  Zn  Zn76  1  0.67865401  0.82118433  0.19046433  1
  Zn  Zn77  1  0.42098770  0.17180671  0.43393891  1
  Zn  Zn78  1  0.48402556  0.73461987  0.87502116  1
  Zn  Zn79  1  0.11936205  0.19421278  0.75157020  1
  Zn  Zn80  1  0.18035265  0.94568260  0.45647233  1
  Zn  Zn81  1  0.74728596  0.73985389  1.01131286  1
  Zn  Zn82  1  0.30074495  0.31638391  0.31122750  1
  Zn  Zn83  1  0.85024915  0.10753004  0.50450630  1
  Zn  Zn84  1  0.71926147  0.59428444  0.08524177  1
  Zn  Zn85  1  0.68747475  0.44332661  0.98074931  1
  Zn  Zn86  1  0.20640326  0.68975865  0.17281826  1
  Zn  Zn87  1  0.75791159  0.70986003  0.71768176  1
  Zn  Zn88  1  0.51677587  0.07066773  0.34370738  1
  Zn  Zn89  1  0.42870434  0.42423670  0.18773623  1
  Zn  Zn90  1  0.85442023  0.10963280  0.71690932  1
  Zn  Zn91  1  0.78643629  0.24396557  0.41595483  1
  Zn  Zn92  1  0.91551392  0.42914899  0.67254588  1
  Zn  Zn93  1  0.12923957  0.93282469  1.00530751  1
  Zn  Zn94  1  0.05790480  0.82604812  0.55572449  1
  Zn  Zn95  1  0.63956265  0.86169745  0.02674654  1
  Zn  Zn96  1  0.17025046  0.22265929  0.28559368  1
  Zn  Zn97  1  0.80076958  0.09130815  0.01897465  1
  Zn  Zn98  1  0.29427909  0.66874146  0.65778207  1
  Zn  Zn99  1  0.08200834  0.22253049  0.57839036  1
  Zn  Zn100  1  0.24859816  0.11610922  0.62236407  1
  Zn  Zn101  1  0.23607573  0.47551522  0.45132178  1
  O  O102  1  0.03715938  0.11793914  0.13426178  1
  O  O103  1  0.15366960  0.17131966  0.64956607  1
  O  O104  1  0.14949902  0.61128718  0.12272217  1
  O  O105  1  0.11247816  0.58080271  0.66384681  1
  O  O106  1  0.58656993  0.09256452  0.11645909  1
  O  O107  1  0.63697843  0.12635863  0.58341089  1
  O  O108  1  0.62199179  0.62838028  0.04026912  1
  O  O109  1  0.61057899  0.44621351  0.75542416  1
  O  O110  1  0.38865398  0.36858659  0.37027715  1
  O  O111  1  0.37738573  0.36308822  0.88245135  1
  O  O112  1  0.36391684  0.92224915  0.32995082  1
  O  O113  1  0.43192453  0.82852024  0.89123568  1
  O  O114  1  0.81286069  0.36783657  0.41662509  1
  O  O115  1  0.86703714  0.36795155  0.87651446  1
  O  O116  1  0.90587517  0.88541247  0.37254856  1
  O  O117  1  0.84674129  0.90995836  0.87751920  1
  O  O118  1  0.24934786  0.00818951  0.40328523  1
  O  O119  1  0.18840878  0.03180517  0.84441094  1
  O  O120  1  0.28168685  0.52511695  0.36339929  1
  O  O121  1  0.39592562  0.42582805  0.85118925  1
  O  O122  1  0.73875293  0.03725072  0.29333015  1
  O  O123  1  0.79104849  0.08139952  0.89828279  1
  O  O124  1  0.78769359  0.41049454  0.35887827  1
  O  O125  1  0.75892938  0.50345172  0.90713433  1
  O  O126  1  0.23815730  0.48301021  0.15460080  1
  O  O127  1  0.26603592  0.55337794  0.67384251  1
  O  O128  1  0.23076247  1.03783268  0.10114411  1
  O  O129  1  0.22485738  1.00392304  0.63435325  1
  O  O130  1  0.69226017  0.48425797  0.08801499  1
  O  O131  1  0.74864931  0.44566170  0.63260274  1
  O  O132  1  0.78379426  1.03101582  0.11992654  1
  O  O133  1  0.64241222  0.99938424  0.65438899  1
  O  O134  1  0.03413792  0.45556905  0.30027361  1
  O  O135  1  -0.02879840  0.37736181  0.75807526  1
  O  O136  1  0.02612791  0.86921643  0.26308124  1
  O  O137  1  -0.03106511  0.79625930  0.84682339  1
  O  O138  1  0.47760700  0.32784028  0.22750259  1
  O  O139  1  0.48335978  0.31184512  0.73928300  1
  O  O140  1  0.42629055  0.73761284  0.07162831  1
  O  O141  1  0.51119991  0.83934249  0.67978512  1
  O  O142  1  0.48235360  0.11565876  0.25032356  1
  O  O143  1  0.50165839  0.10018966  0.70419007  1
  O  O144  1  0.49378319  0.67845718  0.23485027  1
  O  O145  1  0.55879982  0.48724830  0.77743968  1
  O  O146  1  1.08290319  0.15900411  0.34753206  1
  O  O147  1  1.01012956  0.01849576  0.65031112  1
  O  O148  1  1.02719361  0.64704269  0.24018259  1
  O  O149  1  0.98871539  0.59447197  0.73479100  1
  O  O150  1  0.34730815  0.26131714  0.01651142  1
  O  O151  1  0.36326471  0.25858503  0.47344509  1
  O  O152  1  0.35707045  0.60724544  0.01169151  1
  O  O153  1  0.37495727  0.76808375  0.44266359  1
  O  O154  1  0.88749359  0.26568028  0.02385193  1
  O  O155  1  0.86723893  0.20815867  0.46855348  1
  O  O156  1  0.83817419  0.79114468  -0.02857817  1
  O  O157  1  0.89853874  0.73137279  0.49375840  1
  O  O158  1  0.15593062  0.26717482  0.50987771  1
  O  O159  1  0.03955770  0.26728149  0.92752931  1
  O  O160  1  0.12294501  0.75925001  0.49463593  1
  O  O161  1  0.10449840  0.64899349  0.97426789  1
  O  O162  1  0.61579530  0.21739047  0.47172886  1
  O  O163  1  0.61225737  0.27762685  1.06920153  1
  O  O164  1  0.61952937  0.73664387  0.48209444  1
  O  O165  1  0.67190805  0.79820924  0.93331389  1
  O  O166  1  0.46758322  0.20066294  0.14959432  1
  O  O167  1  0.49069090  0.20634697  0.61685791  1
  O  O168  1  0.49481501  0.72591567  0.07014641  1
  O  O169  1  0.55134144  0.70254547  0.62702809  1
  O  O170  1  1.06227009  0.18487615  0.13561157  1
  O  O171  1  0.98005878  0.25190824  0.60000000  1
  O  O172  1  0.98746785  0.75981998  0.14315746  1
  O  O173  1  0.99047143  0.76542829  0.61637395  1
  O  O174  1  -0.01870063  0.34182136  0.42100073  1
  O  O175  1  -0.01077727  0.25972122  0.87131293  1
  O  O176  1  0.05905882  0.74816207  0.34485170  1
  O  O177  1  0.07992885  0.66129015  0.90948926  1
  O  O178  1  0.49379229  0.21885826  0.35685048  1
  O  O179  1  0.50110932  0.17572139  0.82390264  1
  O  O180  1  0.51788451  0.77317965  0.36281817  1
  O  O181  1  0.56952822  0.80287004  0.82442027  1
  O  O182  1  0.24911417  0.14557094  0.50981647  1
  O  O183  1  0.27370727  0.08569585  0.94408085  1
  O  O184  1  0.21445423  0.68342678  0.58285875  1
  O  O185  1  0.23404522  0.72512007  0.93765034  1
  O  O186  1  0.73772071  0.09702066  0.46919648  1
  O  O187  1  0.73002199  0.17774069  1.02124687  1
  O  O188  1  0.72160959  0.44748261  0.36911485  1
  O  O189  1  0.77644730  0.63522605  0.98413750  1
  O  O190  1  0.20783655  0.34286713  0.06380776  1
  O  O191  1  0.29740772  0.39025707  0.50535213  1
  O  O192  1  0.23470584  0.90064786  0.01877158  1
  O  O193  1  0.24541980  0.90378705  0.54084425  1
  O  O194  1  0.72460158  0.33979874  -0.02866172  1
  O  O195  1  0.69502766  0.34948827  0.53082050  1
  O  O196  1  0.75063612  0.92073078  0.00759561  1
  O  O197  1  0.78262843  0.89870240  0.48547546  1
  O  O198  1  0.15960367  0.51706703  0.24888994  1
  O  O199  1  0.14115557  0.46690878  0.75139596  1
  O  O200  1  0.13429197  0.97575729  0.23918158  1
  O  O201  1  0.06280406  1.11013213  0.78310243  1
  O  O202  1  0.62934347  0.54339936  0.22048588  1
  O  O203  1  0.55349265  0.35525206  0.87184510  1
  O  O204  1  0.69477442  1.07273773  0.25133356  1
  O  O205  1  0.60678802  0.97217486  0.70789399  1
  O  O206  1  0.31159171  0.02055344  0.23020473  1
  O  O207  1  0.47002675  -0.03340266  0.80742166  1
  O  O208  1  0.36807722  0.50311731  0.23247110  1
  O  O209  1  0.43666897  0.47255796  0.95288285  1
  O  O210  1  0.87241822  0.09788519  0.26962272  1
  O  O211  1  0.86712616  0.02182419  0.77970709  1
  O  O212  1  0.88582425  0.57903442  0.26974325  1
  O  O213  1  0.86743914  0.51238854  0.72884910  1
  O  O214  1  0.15489456  0.42951057  0.39448663  1
  O  O215  1  0.19631200  0.38158500  0.87881902  1
  O  O216  1  0.11801520  0.87577531  0.39486477  1
  O  O217  1  0.09762649  0.86154344  0.92044845  1
  O  O218  1  0.58918470  0.33283889  0.38275354  1
  O  O219  1  0.53570121  0.30585759  0.91797483  1
  O  O220  1  0.64915968  0.86398069  0.37379763  1
  O  O221  1  0.69475613  0.89964842  0.81068755  1
  O  O222  1  0.38521698  0.08402172  0.08177491  1
  O  O223  1  0.36246892  0.11403589  0.61989736  1
  O  O224  1  0.31843740  0.55810862  0.04247335  1
  O  O225  1  0.39498499  0.66804675  0.61902098  1
  O  O226  1  0.90368743  0.14295014  0.06139842  1
  O  O227  1  0.87527578  0.13262752  0.61058096  1
  O  O228  1  0.78902281  0.65317307  0.15167286  1
  O  O229  1  0.92200742  0.62535559  0.59535251  1
  O  O230  1  0.23326460  0.27824967  0.20787500  1
  O  O231  1  0.28354924  0.27201625  0.59609963  1
  O  O232  1  0.26542230  0.75865579  0.10772877  1
  O  O233  1  0.27509720  0.80891057  0.65089788  1
  O  O234  1  0.75414045  0.28354573  0.13606844  1
  O  O235  1  0.77485606  0.24485015  0.61997814  1
  O  O236  1  0.68299830  0.77744820  0.08887054  1
  O  O237  1  0.79116414  0.75736958  0.61193734  1
  O  O238  1  0.24015166  0.24643328  0.38103075  1
  O  O239  1  0.31311615  0.18946567  0.85197740  1
  O  O240  1  0.22944473  0.78306627  0.35199256  1
  O  O241  1  0.29903935  0.74818241  0.93195503  1
  O  O242  1  0.71184866  0.24770928  0.34117824  1
  O  O243  1  0.71622716  0.22018991  0.85760326  1
  O  O244  1  0.70706872  0.80763903  0.35824859  1
  O  O245  1  0.77173177  0.76458535  0.82104590  1
  O  O246  1  -0.07128477  0.21425503  0.05587742  1
  O  O247  1  0.04438858  0.11660711  0.53088820  1
  O  O248  1  -0.03731898  0.58772391  0.00658848  1
  O  O249  1  0.05756471  0.62471461  0.54069166  1
  O  O250  1  0.45073074  0.09463455  0.04048865  1
  O  O251  1  0.48051209  0.10167998  0.50460210  1
  O  O252  1  0.50826272  0.64328647  -0.07222859  1
  O  O253  1  0.48674713  0.62525365  0.49510980  1
  O  O254  1  0.47905722  0.35135917  0.52208343  1
  O  O255  1  0.41009006  0.24007215  0.99512895  1
  O  O256  1  0.51383212  0.87979089  0.51591143  1
  O  O257  1  0.53732724  0.90425214  0.98899091  1
  O  O258  1  0.97077112  0.40583707  0.44559259  1
  O  O259  1  1.04267309  0.34767130  0.94299353  1
  O  O260  1  0.99738897  0.88427028  0.47741215  1
  O  O261  1  0.95892764  0.87659708  0.98677187  1
  O  O262  1  0.49531102  0.54584004  0.34884619  1
  O  O263  1  0.41765056  0.42020493  0.99501037  1
  O  O264  1  0.50211904  0.97627680  0.39436107  1
  O  O265  1  0.55638307  0.96140605  0.93433486  1
  O  O266  1  0.86178859  0.53111024  0.45675230  1
  O  O267  1  0.99329045  0.47195881  0.87365291  1
  O  O268  1  1.02272090  0.99372782  0.35699205  1
  O  O269  1  0.99001994  0.96911595  0.86103613  1
  O  O270  1  0.00432399  0.08942971  0.19948160  1
  O  O271  1  0.00000055  -0.03977530  0.68834270  1
  O  O272  1  0.02937518  0.51426291  0.14860418  1
  O  O273  1  -0.00797148  0.48932143  0.61310825  1
  O  O274  1  0.47643839  -0.00723208  0.17128516  1
  O  O275  1  0.47557774  -0.00173834  0.60542232  1
  O  O276  1  0.52963470  0.44962227  0.13575582  1
  O  O277  1  0.49561456  0.54089144  0.63036999  1
  O  O278  1  0.24542094  0.40697501  0.27447165  1
  O  O279  1  0.26672416  0.34679630  0.73714646  1
  O  O280  1  0.21932075  0.88851663  0.18398267  1
  O  O281  1  0.20182738  0.90473806  0.73715249  1
  O  O282  1  0.89167509  0.33716441  0.24609993  1
  O  O283  1  0.74627907  0.34349448  0.74942195  1
  O  O284  1  0.77428623  0.88414588  0.21856931  1
  O  O285  1  0.78077555  0.90943960  0.67033267  1
  O  O286  1  0.18125432  0.11637346  0.24031773  1
  O  O287  1  0.24997485  0.11527483  0.74310051  1
  O  O288  1  0.26433026  0.62264009  0.24034138  1
  O  O289  1  0.27457701  0.69634769  0.76822258  1
  O  O290  1  0.86204437  0.15995973  0.23857821  1
  O  O291  1  0.74293066  0.11357740  0.74077608  1
  O  O292  1  0.75114725  0.68663429  0.21575557  1
  O  O293  1  0.76752783  0.60745486  0.77998524  1
  O  O294  1  0.38430041  0.08780053  0.37057410  1
  O  O295  1  0.33554457  0.04594236  0.82283465  1
  O  O296  1  0.34195399  0.70856558  0.46124869  1
  O  O297  1  0.28712907  0.56692759  0.86616938  1
  O  O298  1  1.00674235  0.18780058  0.36647979  1
  O  O299  1  0.94721364  0.10884632  0.89212090  1
  O  O300  1  0.80120286  0.67499151  0.35797196  1
  O  O301  1  0.87654863  0.62611762  0.86622403  1
  O  O302  1  0.13761126  0.40880355  0.17888366  1
  O  O303  1  0.19586910  0.41566620  0.62051315  1
  O  O304  1  0.07488520  0.89810329  0.10937354  1
  O  O305  1  0.14484875  0.87084309  0.61829576  1
  O  O306  1  0.64919483  0.38198669  0.21226033  1
  O  O307  1  0.64896644  0.33338356  0.59446711  1
  O  O308  1  0.66771922  0.92581854  0.12283522  1
  O  O309  1  0.67317264  0.85780697  0.57110602  1
  O  O310  1  0.10963893  0.31853145  0.29450589  1
  O  O311  1  0.11772317  0.30205902  0.76600802  1
  O  O312  1  0.12309212  0.77575561  0.20789566  1
  O  O313  1  0.16555119  0.74595855  0.81777222  1
  O  O314  1  0.59792311  0.23389391  0.25539990  1
  O  O315  1  0.61132472  0.22428244  0.72124585  1
  O  O316  1  0.57300797  0.81583644  0.22183415  1
  O  O317  1  0.65482403  0.74970135  0.73250714  1
  O  O318  1  0.36598368  0.23056132  0.27194481  1
  O  O319  1  0.41693435  0.26990447  0.73153103  1
  O  O320  1  0.40483279  0.81205185  0.24479115  1
  O  O321  1  0.48156857  0.70124988  0.76430516  1
  O  O322  1  0.97292437  0.22357603  0.31409694  1
  O  O323  1  0.89599145  0.21874977  0.72925081  1
  O  O324  1  0.90844084  0.74810229  0.26989734  1
  O  O325  1  0.87106558  0.68754168  0.71036999  1
  O  O326  1  0.42028842  0.47647384  0.47831123  1
  O  O327  1  0.22782010  0.58587301  0.89756708  1
  O  O328  1  0.38570019  0.97208302  0.48327325  1
  O  O329  1  0.39101859  0.96509393  0.95444581  1
  O  O330  1  0.79503004  0.54973398  0.45171372  1
  O  O331  1  0.92310601  0.53228046  1.01846296  1
  O  O332  1  0.89282611  1.00445329  0.48927755  1
  O  O333  1  0.87820837  1.00374558  0.98234229  1
  O  O334  1  0.10431256  0.03287740  -0.02826128  1
  O  O335  1  0.09090707  0.00122838  0.50313034  1
  O  O336  1  0.12982904  0.48401937  0.03422862  1
  O  O337  1  0.18952924  0.54266573  0.53462914  1
  O  O338  1  0.60293461  0.06513021  0.05185405  1
  O  O339  1  0.60618454  0.00750599  0.49473168  1
  O  O340  1  0.59555732  0.50100525  -0.05062802  1
  O  O341  1  0.57962634  0.49147593  0.47355324  1
  O  O342  1  0.33820305  0.37508227  0.14234529  1
  O  O343  1  0.37232026  0.40361088  0.64050264  1
  O  O344  1  0.35934384  0.89731773  0.11272965  1
  O  O345  1  0.33585822  0.92426245  0.66940320  1
  O  O346  1  0.92306361  0.30654094  0.19158581  1
  O  O347  1  0.86128854  0.34623955  0.62945485  1
  O  O348  1  0.85970292  0.89115868  0.09288704  1
  O  O349  1  0.88422673  0.86037214  0.57023704  1
  O  O350  1  0.10323329  0.07715631  0.50845010  1
  O  O351  1  0.17976607  0.17225234  0.85725270  1
  O  O352  1  0.17197147  0.65496024  0.41730178  1
  O  O353  1  0.19561798  0.70107934  0.76946657  1
  O  O354  1  0.60793463  0.12001552  0.37975636  1
  O  O355  1  0.63224797  0.08074374  0.85051022  1
  O  O356  1  0.63348096  0.67034509  0.33933607  1
  O  O357  1  0.66550657  0.62987709  0.88236376  1
