# generated using pymatgen
data_V51Zn51O256
_symmetry_space_group_name_H-M   'P 1'
_cell_length_a   17.50969450
_cell_length_b   17.56099378
_cell_length_c   17.44388552
_cell_angle_alpha   90.81563921
_cell_angle_beta   91.84797374
_cell_angle_gamma   91.46351015
_symmetry_Int_Tables_number   1
_chemical_formula_structural   V51Zn51O256
_chemical_formula_sum   'V51 Zn51 O256'
_cell_volume   5358.63197612
_cell_formula_units_Z   1
loop_
 _symmetry_equiv_pos_site_id
 _symmetry_equiv_pos_as_xyz
  1  'x, y, z'
loop_
 _atom_site_type_symbol
 _atom_site_label
 _atom_site_symmetry_multiplicity
 _atom_site_fract_x
 _atom_site_fract_y
 _atom_site_fract_z
 _atom_site_occupancy
  V  V0  1  0.75799822  0.38124760  0.62796493  1
  V  V1  1  0.63689607  0.78781297  0.88518520  1
  V  V2  1  0.77062532  0.26587799  -0.00576204  1
  V  V3  1  0.59508759  0.24535782  0.79691014  1
  V  V4  1  0.63189350  0.48707877  0.58897760  1
  V  V5  1  0.51914484  0.75341363  0.24296672  1
  V  V6  1  0.62670483  0.24364960  0.43450196  1
  V  V7  1  0.84394889  0.89234723  0.52258899  1
  V  V8  1  0.53973472  0.63618074  0.11879777  1
  V  V9  1  0.88109076  0.64496972  0.27503403  1
  V  V10  1  0.29989189  0.52648487  0.25838603  1
  V  V11  1  0.08314454  0.51474087  0.13254871  1
  V  V12  1  -0.00161979  0.39245384  0.38854098  1
  V  V13  1  0.86878154  0.50369360  0.89908789  1
  V  V14  1  0.37185396  0.20059390  0.57479282  1
  V  V15  1  0.74406582  0.72683226  0.03522529  1
  V  V16  1  0.86142435  0.09805135  0.25847201  1
  V  V17  1  0.04750663  0.89113275  0.41249006  1
  V  V18  1  0.18500670  0.21809282  0.42916103  1
  V  V19  1  0.74107261  0.35740200  0.16507900  1
  V  V20  1  0.73428232  0.63634068  0.89136192  1
  V  V21  1  0.04279228  0.70145148  0.69464545  1
  V  V22  1  0.60956471  -0.00539876  0.15073402  1
  V  V23  1  0.00446370  0.67876289  0.15948966  1
  V  V24  1  0.47431629  0.35653726  0.41940357  1
  V  V25  1  0.55135901  0.64886059  0.61578711  1
  V  V26  1  0.55536130  0.43137581  0.14670118  1
  V  V27  1  0.44537113  0.79113416  0.61360605  1
  V  V28  1  0.26982946  0.40560864  0.14209642  1
  V  V29  1  0.80646646  0.02215080  0.41086140  1
  V  V30  1  0.04398006  0.03088377  0.50671686  1
  V  V31  1  0.88591818  0.73518402  0.62374779  1
  V  V32  1  0.26924290  0.37160833  0.62815858  1
  V  V33  1  0.77845361  0.88585258  0.68360370  1
  V  V34  1  0.73346166  0.52067572  0.75892047  1
  V  V35  1  0.66117540  0.02917894  0.64246108  1
  V  V36  1  0.40322308  0.86838886  -0.00516714  1
  V  V37  1  0.50378348  0.52034769  -0.02146894  1
  V  V38  1  0.33412802  0.42190597  -0.02540122  1
  V  V39  1  0.36554480  0.73193569  0.10581406  1
  V  V40  1  0.37924001  -0.02462442  0.34015872  1
  V  V41  1  0.08105244  0.38587933  0.24225443  1
  V  V42  1  0.04613099  0.85780632  0.85228021  1
  V  V43  1  0.23515195  0.88486985  0.62240692  1
  V  V44  1  0.24898023  0.62531664  0.39315571  1
  V  V45  1  0.41168896  0.50931311  0.41883996  1
  V  V46  1  0.40655355  0.63794470  0.72256436  1
  V  V47  1  0.44621761  0.87173272  0.47206558  1
  V  V48  1  0.09607925  0.09008771  0.67992852  1
  V  V49  1  0.76708081  0.14308535  0.85278799  1
  V  V50  1  0.60480777  0.17083209  0.01539835  1
  Zn  Zn51  1  0.06197525  0.56737362  0.31902511  1
  Zn  Zn52  1  0.51828788  0.55038399  0.28943894  1
  Zn  Zn53  1  0.70793076  0.16680458  0.15212356  1
  Zn  Zn54  1  0.69045124  0.67643585  0.22381800  1
  Zn  Zn55  1  1.00767137  0.16411352  0.38591223  1
  Zn  Zn56  1  0.89613255  0.67008052  0.99310196  1
  Zn  Zn57  1  0.21404191  0.63457705  0.15938085  1
  Zn  Zn58  1  0.02327188  0.06548907  0.86758134  1
  Zn  Zn59  1  0.24084563  0.70892613  0.64015983  1
  Zn  Zn60  1  0.46078782  0.17467232  0.39501833  1
  Zn  Zn61  1  0.29377723  0.35774582  0.34281176  1
  Zn  Zn62  1  0.87797700  0.43250513  0.75280579  1
  Zn  Zn63  1  0.62020551  0.36049855  0.95573522  1
  Zn  Zn64  1  0.58387373  0.82816330  0.06487143  1
  Zn  Zn65  1  0.74919165  0.35251217  0.84001890  1
  Zn  Zn66  1  0.81353827  0.07230256  0.60039760  1
  Zn  Zn67  1  0.62397247  0.85828090  0.56434620  1
  Zn  Zn68  1  0.93993320  0.73882010  0.43425512  1
  Zn  Zn69  1  0.68209624  0.21548135  0.62724680  1
  Zn  Zn70  1  0.46218008  0.14902664  0.89564118  1
  Zn  Zn71  1  0.55784320  0.58818135  0.80514718  1
  Zn  Zn72  1  0.38519800  1.00049410  0.60445780  1
  Zn  Zn73  1  0.05451780  0.82592687  0.55874877  1
  Zn  Zn74  1  0.24936933  0.89334928  0.89319825  1
  Zn  Zn75  1  0.97135739  0.95090733  0.67598072  1
  Zn  Zn76  1  0.54448518  0.30242197  0.60075609  1
  Zn  Zn77  1  -0.12475688  0.63837946  0.78504867  1
  Zn  Zn78  1  0.46739070  0.29482970  0.03277981  1
  Zn  Zn79  1  0.22049179  0.96958588  0.45172656  1
  Zn  Zn80  1  0.14485474  0.27119420  0.12903647  1
  Zn  Zn81  1  0.74149283  0.94062345  0.85948055  1
  Zn  Zn82  1  0.90897447  0.46469818  0.19759327  1
  Zn  Zn83  1  0.48303818  0.69017548  0.43343803  1
  Zn  Zn84  1  0.79723527  0.28500200  0.34418517  1
  Zn  Zn85  1  0.84186780  0.53496356  0.61721670  1
  Zn  Zn86  1  0.38969865  0.53260213  0.11796557  1
  Zn  Zn87  1  0.62018788  0.07015287  0.34406763  1
  Zn  Zn88  1  0.36544136  0.87932129  0.77567648  1
  Zn  Zn89  1  0.18159428  0.23694719  0.58760121  1
  Zn  Zn90  1  0.31656350  0.56042021  0.57522300  1
  Zn  Zn91  1  0.36768946  0.76779131  0.31774488  1
  Zn  Zn92  1  0.82060172  0.82022225  0.34512229  1
  Zn  Zn93  1  0.09783235  0.36955714  0.54409235  1
  Zn  Zn94  1  -0.04067508  -0.00584500  0.32016306  1
  Zn  Zn95  1  0.92455896  0.17960122  0.96886284  1
  Zn  Zn96  1  0.43616825  0.72512048  0.90359986  1
  Zn  Zn97  1  0.61297579  0.06214567  0.86174899  1
  Zn  Zn98  1  0.23514031  0.07423767  0.58172009  1
  Zn  Zn99  1  0.70945585  0.72246160  0.71506256  1
  Zn  Zn100  1  0.13381767  0.40339230  1.01827912  1
  Zn  Zn101  1  0.43665211  -0.08451311  0.16915312  1
  O  O102  1  0.18703134  0.15571993  0.10263801  1
  O  O103  1  0.10830010  0.18057218  0.64356137  1
  O  O104  1  0.10433275  0.61620722  0.14891808  1
  O  O105  1  0.12634778  0.54585686  0.57480862  1
  O  O106  1  0.59705614  0.17022367  0.11266100  1
  O  O107  1  0.70526209  0.11185237  0.60124377  1
  O  O108  1  0.63110034  0.61513966  0.13755562  1
  O  O109  1  0.64346218  0.67813494  0.63533877  1
  O  O110  1  0.37370532  0.40540615  0.40541998  1
  O  O111  1  0.30266181  0.43087173  0.88678698  1
  O  O112  1  0.39329833  0.87399325  0.37491348  1
  O  O113  1  0.35083824  0.86298706  0.88532464  1
  O  O114  1  0.90227026  0.32802284  0.38081474  1
  O  O115  1  0.84991116  0.40386957  0.85458424  1
  O  O116  1  0.84041779  0.90578787  0.41725179  1
  O  O117  1  0.95097219  0.83420938  0.86446594  1
  O  O118  1  0.29128997  -0.00215616  0.37454119  1
  O  O119  1  0.23581176  0.02072900  0.88573713  1
  O  O120  1  0.30940741  0.53462970  0.37050097  1
  O  O121  1  0.19282072  0.51985396  0.83232239  1
  O  O122  1  0.70962935  0.02728410  0.40098347  1
  O  O123  1  0.72060137  0.04603518  0.86475059  1
  O  O124  1  0.68699203  0.53082600  0.32474806  1
  O  O125  1  0.75510796  0.52097856  0.86243993  1
  O  O126  1  0.26589070  0.52410662  0.15205866  1
  O  O127  1  0.28444955  0.45323678  0.57785481  1
  O  O128  1  0.16257147  0.95770076  0.03435538  1
  O  O129  1  0.18409645  1.05099191  0.67947727  1
  O  O130  1  0.65649339  0.40987877  0.13870359  1
  O  O131  1  0.72815484  0.50860121  0.63162943  1
  O  O132  1  0.70388257  1.05402747  0.11236805  1
  O  O133  1  0.75689209  0.99250008  0.66761912  1
  O  O134  1  -0.01548273  0.38287045  0.22828363  1
  O  O135  1  -0.03834950  0.27956649  0.72945534  1
  O  O136  1  -0.00236906  0.89079588  0.32474728  1
  O  O137  1  0.02772493  0.89893267  0.75393670  1
  O  O138  1  0.37205434  0.21698106  0.21751842  1
  O  O139  1  0.44834420  0.38341955  0.80549497  1
  O  O140  1  0.50526257  0.84756144  0.22676557  1
  O  O141  1  0.50483987  0.92012112  0.81431974  1
  O  O142  1  0.35359780  0.09072317  0.14323190  1
  O  O143  1  0.41725444  0.05884185  0.76279370  1
  O  O144  1  0.50758520  0.63825889  0.21711397  1
  O  O145  1  0.51700922  0.65077302  0.72496408  1
  O  O146  1  0.95863268  0.10847259  0.29794473  1
  O  O147  1  0.91145458  0.03744507  0.81431387  1
  O  O148  1  1.00233551  0.63644090  0.25962885  1
  O  O149  1  1.03541182  0.61035237  0.70952644  1
  O  O150  1  0.42344700  0.18741784  -0.00534071  1
  O  O151  1  0.39567570  0.18504856  0.48265161  1
  O  O152  1  0.38278639  0.75469404  -0.00648783  1
  O  O153  1  0.42827287  0.77366366  0.49689824  1
  O  O154  1  0.86681701  0.25761533  0.01423927  1
  O  O155  1  0.90259536  0.20787787  0.58603267  1
  O  O156  1  0.83621322  0.75950199  0.02136106  1
  O  O157  1  0.88287118  0.79293554  0.52458432  1
  O  O158  1  0.11773472  0.17075731  0.37186214  1
  O  O159  1  0.10223536  0.29775088  1.02903154  1
  O  O160  1  0.10429696  0.59488542  0.53045973  1
  O  O161  1  0.08266897  0.61521976  0.88176455  1
  O  O162  1  0.61662112  0.23890646  0.53396351  1
  O  O163  1  0.56847708  0.26166504  0.99121572  1
  O  O164  1  0.65343820  0.77447655  0.48264929  1
  O  O165  1  0.66022199  0.77862516  1.00191673  1
  O  O166  1  0.33620825  0.18015657  0.00298270  1
  O  O167  1  0.45072911  0.23354478  0.62333940  1
  O  O168  1  0.53545680  0.73854264  0.12012558  1
  O  O169  1  0.54178745  0.80011409  0.61897982  1
  O  O170  1  1.04251962  0.16361391  0.14769487  1
  O  O171  1  1.11789255  0.29645350  0.79683849  1
  O  O172  1  1.04249483  0.76470814  0.16300848  1
  O  O173  1  0.99692376  0.74359608  0.60703603  1
  O  O174  1  -0.03022736  0.28378627  0.36354057  1
  O  O175  1  0.01161130  0.12765337  0.95167506  1
  O  O176  1  0.03577544  0.79546258  0.44959136  1
  O  O177  1  0.06075267  0.77158122  0.79675321  1
  O  O178  1  0.44137256  0.27939764  0.36263566  1
  O  O179  1  0.50451593  0.22144891  0.82399826  1
  O  O180  1  0.47809702  0.74239191  0.33674489  1
  O  O181  1  0.54145745  0.76130595  0.89585539  1
  O  O182  1  0.22743596  0.16198886  0.50341375  1
  O  O183  1  0.18336457  0.21577760  0.94636878  1
  O  O184  1  0.26380369  0.61705919  0.49071776  1
  O  O185  1  0.09533521  0.62870128  0.94987184  1
  O  O186  1  0.84523777  0.21652383  0.54091346  1
  O  O187  1  0.70335719  0.17865189  0.99620085  1
  O  O188  1  0.73415632  0.54708629  0.37716414  1
  O  O189  1  0.74535230  0.62926099  0.99854813  1
  O  O190  1  0.24742496  0.41562158  0.03265848  1
  O  O191  1  0.13494229  0.28125421  0.48622813  1
  O  O192  1  0.22666688  0.69842480  -0.07649727  1
  O  O193  1  0.27336125  0.96288426  0.56208165  1
  O  O194  1  0.73231775  0.35493348  -0.01342495  1
  O  O195  1  0.75168441  0.37642740  0.53427921  1
  O  O196  1  0.87512039  0.92615180  0.01149817  1
  O  O197  1  0.75359837  0.87574618  0.54251137  1
  O  O198  1  0.10325860  0.49364599  0.24341547  1
  O  O199  1  0.08708439  0.46295000  0.73270885  1
  O  O200  1  0.04648049  0.96822835  0.16444398  1
  O  O201  1  0.06591832  1.09235346  0.77219287  1
  O  O202  1  0.54435159  0.44998025  0.24095965  1
  O  O203  1  0.63814677  0.53234910  0.75247965  1
  O  O204  1  0.63084870  1.03213447  0.24348594  1
  O  O205  1  0.61153864  1.02024316  0.73973604  1
  O  O206  1  0.36579993  -0.04524894  0.24532807  1
  O  O207  1  0.39583767  -0.00981388  0.72584823  1
  O  O208  1  0.39435326  0.53158411  0.24018772  1
  O  O209  1  0.40837375  0.54562282  0.73233028  1
  O  O210  1  0.84246810  0.00468070  0.30627281  1
  O  O211  1  0.90656289  0.02765936  0.74184928  1
  O  O212  1  0.87159497  0.54933403  0.25401534  1
  O  O213  1  0.84418313  0.54048010  0.73211598  1
  O  O214  1  0.09159580  0.38228383  0.34821996  1
  O  O215  1  0.07566571  0.41188019  0.89347301  1
  O  O216  1  0.14492319  0.89764678  0.40797484  1
  O  O217  1  0.15144498  0.87270982  0.85386853  1
  O  O218  1  0.58098387  0.32404219  0.40508772  1
  O  O219  1  0.63301498  0.32969219  0.84584938  1
  O  O220  1  0.67484462  0.81110244  0.42079286  1
  O  O221  1  0.65452395  0.88585582  0.89292772  1
  O  O222  1  0.31115299  0.11342791  -0.00531442  1
  O  O223  1  0.34305977  0.10975007  0.61275386  1
  O  O224  1  0.40776640  0.64181893  0.09542017  1
  O  O225  1  0.44017183  0.68563399  0.61919322  1
  O  O226  1  0.87090953  0.07777537  0.16818801  1
  O  O227  1  0.90028621  0.14296737  0.63069993  1
  O  O228  1  0.90294907  0.69186006  0.18441825  1
  O  O229  1  0.85438765  0.65010737  0.59188281  1
  O  O230  1  0.25191550  0.31009430  0.14592773  1
  O  O231  1  0.29941825  0.27576234  0.59178423  1
  O  O232  1  0.26920290  0.71124933  0.10616609  1
  O  O233  1  0.27036848  0.80050934  0.58887240  1
  O  O234  1  0.74447854  0.26637140  0.11200816  1
  O  O235  1  0.75730814  0.28921273  0.66222652  1
  O  O236  1  0.73265609  0.72740310  0.13061304  1
  O  O237  1  0.80385347  0.77748963  0.66659496  1
  O  O238  1  0.25082995  0.26605522  0.37414424  1
  O  O239  1  0.11665826  0.23236266  0.95685216  1
  O  O240  1  0.28941027  0.71397679  0.37247946  1
  O  O241  1  0.21988626  0.69040536  0.85341028  1
  O  O242  1  0.71996138  0.24452699  0.40895050  1
  O  O243  1  0.77100503  0.25045864  0.88908017  1
  O  O244  1  0.72297080  0.77121121  0.37772238  1
  O  O245  1  0.73916776  0.73596919  0.89756993  1
  O  O246  1  0.03938233  0.10855168  0.10292972  1
  O  O247  1  0.00483423  0.11880173  0.49112736  1
  O  O248  1  -0.02076048  0.65857623  0.06054769  1
  O  O249  1  -0.06065784  0.52839105  0.50865656  1
  O  O250  1  0.55491243  0.10560889  -0.05283560  1
  O  O251  1  0.44653762  0.03271804  0.51117883  1
  O  O252  1  0.53272783  0.61260567  0.00985250  1
  O  O253  1  0.54529060  0.66275470  0.51825235  1
  O  O254  1  0.47592962  0.34254116  0.51475015  1
  O  O255  1  0.38718916  0.34142077  0.97534271  1
  O  O256  1  0.54011934  0.87983818  0.46517747  1
  O  O257  1  0.50053325  0.87448182  1.00065978  1
  O  O258  1  1.01552486  0.40136148  0.48679775  1
  O  O259  1  1.03371759  0.36202783  0.86191393  1
  O  O260  1  1.00529729  0.92572808  0.51015083  1
  O  O261  1  1.06054675  0.82366855  0.94398796  1
  O  O262  1  0.50108944  0.45729113  0.40214699  1
  O  O263  1  0.50342790  0.52921173  0.88213692  1
  O  O264  1  0.48455172  1.02151040  0.33526382  1
  O  O265  1  0.51509120  0.97088761  0.86429526  1
  O  O266  1  0.98165845  0.48238294  0.36019407  1
  O  O267  1  0.95340190  0.51428383  0.85568341  1
  O  O268  1  1.03722154  1.00595920  0.40478971  1
  O  O269  1  1.03819851  0.95605914  0.87763190  1
  O  O270  1  0.15166104  0.10418578  0.06536952  1
  O  O271  1  0.02829051  0.02910471  0.62043760  1
  O  O272  1  -0.01236434  0.50491433  0.12878309  1
  O  O273  1  0.02980491  0.42827211  0.70708585  1
  O  O274  1  0.51187797  -0.00651902  0.13795576  1
  O  O275  1  0.57752896  0.07439824  0.68900491  1
  O  O276  1  0.50745036  0.51700746  0.11189582  1
  O  O277  1  0.55398142  0.54682926  0.61687315  1
  O  O278  1  0.26704778  0.42343471  0.25666711  1
  O  O279  1  0.29730196  0.38370798  0.71716888  1
  O  O280  1  0.21999536  0.84885137  0.24885015  1
  O  O281  1  0.26589996  0.89463163  0.71712496  1
  O  O282  1  0.74124334  0.33459021  0.25927740  1
  O  O283  1  0.73887248  0.41880667  0.74600290  1
  O  O284  1  0.79784843  0.87068845  0.21866672  1
  O  O285  1  0.79762731  0.89345186  0.77967502  1
  O  O286  1  0.19903673  0.06139960  0.22822507  1
  O  O287  1  0.25295675  0.15957219  0.79377687  1
  O  O288  1  0.25166606  0.61271886  0.26617919  1
  O  O289  1  0.31078860  0.63294907  0.66254678  1
  O  O290  1  0.75873089  0.14620170  0.25587842  1
  O  O291  1  0.79900455  0.14724540  0.76596377  1
  O  O292  1  0.78570569  0.67040255  0.27856378  1
  O  O293  1  0.75351264  0.63927300  0.77839260  1
  O  O294  1  0.42724354  0.07833540  0.33393968  1
  O  O295  1  0.40255477  0.05925181  0.83834839  1
  O  O296  1  0.45785696  0.59037175  0.37792451  1
  O  O297  1  0.39127849  0.67976043  0.81169382  1
  O  O298  1  0.84035568  0.11116353  0.40946562  1
  O  O299  1  0.84345144  0.12353155  0.91299495  1
  O  O300  1  0.91033718  0.64620591  0.38254837  1
  O  O301  1  0.85916623  0.62350470  0.89699720  1
  O  O302  1  0.13043549  0.41084443  0.14256194  1
  O  O303  1  0.16588082  0.35035154  0.62601112  1
  O  O304  1  0.09761899  0.92357549  0.17895154  1
  O  O305  1  0.13707703  0.87813859  0.61201216  1
  O  O306  1  0.50556537  0.34896469  0.12409794  1
  O  O307  1  0.62051758  0.39169192  0.61702536  1
  O  O308  1  0.63554018  0.90246634  0.13682427  1
  O  O309  1  0.68493986  0.85985698  0.67060015  1
  O  O310  1  0.11073307  0.29283672  0.22885782  1
  O  O311  1  0.17765768  0.33001027  0.81686609  1
  O  O312  1  0.16780082  0.80179798  0.25521972  1
  O  O313  1  0.13720170  0.71566899  0.67131379  1
  O  O314  1  0.41729657  0.12003574  0.13943044  1
  O  O315  1  0.59826169  0.25285528  0.69729943  1
  O  O316  1  0.61418562  0.74684759  0.26183698  1
  O  O317  1  0.64766835  0.77016671  0.78982148  1
  O  O318  1  0.31340313  0.17759239  0.22152602  1
  O  O319  1  0.29164365  0.17951123  0.85094189  1
  O  O320  1  0.38853918  0.74602895  0.20616343  1
  O  O321  1  0.41044200  0.81118259  0.70267859  1
  O  O322  1  0.82575265  0.19975366  0.26549106  1
  O  O323  1  0.96764296  0.23055804  0.77865622  1
  O  O324  1  0.90457391  0.75861497  0.32790924  1
  O  O325  1  0.92837519  0.71167974  0.72035876  1
  O  O326  1  0.40652157  0.53313858  0.51121887  1
  O  O327  1  0.40056508  0.50377317  0.99829329  1
  O  O328  1  0.41741650  0.97928718  0.46060945  1
  O  O329  1  0.37051210  0.95621493  1.00706845  1
  O  O330  1  0.86510071  0.51262829  0.50022803  1
  O  O331  1  0.88247030  0.49354548  0.99115020  1
  O  O332  1  0.83884261  1.00434771  0.51520063  1
  O  O333  1  0.84293238  0.96374428  0.96087512  1
  O  O334  1  0.21929711  -0.07987154  0.01703542  1
  O  O335  1  0.14317038  0.03256811  0.51133962  1
  O  O336  1  0.10981528  0.50704840  0.03684983  1
  O  O337  1  -0.03682612  0.54032048  0.58023414  1
  O  O338  1  0.64457101  0.04401016  0.05625348  1
  O  O339  1  0.62154849  -0.02807270  0.57403937  1
  O  O340  1  0.56272913  0.44169373  -0.00309541  1
  O  O341  1  0.63715329  0.49278791  0.49681088  1
  O  O342  1  0.36414227  0.41340875  0.12975834  1
  O  O343  1  0.47190199  0.39540000  0.74164630  1
  O  O344  1  0.37999380  0.84375325  0.09756248  1
  O  O345  1  0.42288004  0.89268342  0.57388200  1
  O  O346  1  0.82050537  0.41010428  0.15021942  1
  O  O347  1  0.85690287  0.41390261  0.64418238  1
  O  O348  1  0.83631680  0.85478746  0.16309239  1
  O  O349  1  0.87786352  0.90622010  0.62977136  1
  O  O350  1  0.21750968  0.01502411  0.17965781  1
  O  O351  1  0.18092912  0.05690006  0.91098483  1
  O  O352  1  0.15138832  0.60902655  0.37924900  1
  O  O353  1  0.21990025  0.55064649  0.77682209  1
  O  O354  1  0.57555893  0.16073960  0.38994790  1
  O  O355  1  0.65218221  0.17009646  0.82527753  1
  O  O356  1  0.63392795  0.58963870  0.30482411  1
  O  O357  1  0.63854771  0.62236070  0.88195649  1
