# generated using pymatgen
data_V51Zn51O256
_symmetry_space_group_name_H-M   'P 1'
_cell_length_a   17.59198097
_cell_length_b   17.76895538
_cell_length_c   17.57760757
_cell_angle_alpha   88.17924613
_cell_angle_beta   88.20275925
_cell_angle_gamma   89.24395926
_symmetry_Int_Tables_number   1
_chemical_formula_structural   V51Zn51O256
_chemical_formula_sum   'V51 Zn51 O256'
_cell_volume   5488.71917148
_cell_formula_units_Z   1
loop_
 _symmetry_equiv_pos_site_id
 _symmetry_equiv_pos_as_xyz
  1  'x, y, z'
loop_
 _atom_site_type_symbol
 _atom_site_label
 _atom_site_symmetry_multiplicity
 _atom_site_fract_x
 _atom_site_fract_y
 _atom_site_fract_z
 _atom_site_occupancy
  V  V0  1  0.75383500  0.35237127  0.11388332  1
  V  V1  1  0.71258818  0.26120172  0.54722674  1
  V  V2  1  0.04263033  0.54264053  0.44048436  1
  V  V3  1  0.75441205  0.04389002  0.21974694  1
  V  V4  1  0.86194580  0.89684339  0.01105512  1
  V  V5  1  0.02068610  0.91344505  0.79540211  1
  V  V6  1  0.28889414  0.39290839  0.59094301  1
  V  V7  1  0.26006582  0.04229801  0.73913897  1
  V  V8  1  0.07439888  0.27161486  0.68879600  1
  V  V9  1  0.61711635  0.49177255  0.61904279  1
  V  V10  1  0.11047624  0.47935630  0.14750547  1
  V  V11  1  0.67739376  0.40144536  0.75771476  1
  V  V12  1  0.40018950  0.13347658  0.27268989  1
  V  V13  1  0.22758943  0.33001910  0.09127551  1
  V  V14  1  0.02841754  -0.02084620  0.01816453  1
  V  V15  1  0.76206228  0.60497840  0.37147373  1
  V  V16  1  0.88421158  0.22098129  0.17059441  1
  V  V17  1  0.28385256  -0.00130913  0.25885756  1
  V  V18  1  0.64306025  0.00566067  0.10110088  1
  V  V19  1  0.48696360  0.77538754  0.22829371  1
  V  V20  1  0.17455537  0.75722354  -0.01525924  1
  V  V21  1  0.55875474  -0.00011540  0.70540533  1
  V  V22  1  0.91825389  0.47916695  0.31908119  1
  V  V23  1  0.72766944  -0.06194297  0.73240947  1
  V  V24  1  0.84163822  0.12904573  0.73776262  1
  V  V25  1  0.78300621  0.22205271  -0.02857136  1
  V  V26  1  0.45836503  0.94388691  0.43480183  1
  V  V27  1  0.53114433  0.13806237  0.14251543  1
  V  V28  1  0.63044559  0.12969094  0.48483670  1
  V  V29  1  0.23309927  0.78993580  0.51332135  1
  V  V30  1  0.84614311  -0.02032700  0.84323599  1
  V  V31  1  0.58912978  0.27639387  0.86300735  1
  V  V32  1  0.86140190  0.73390553  0.62697170  1
  V  V33  1  0.21229086  0.52822629  0.69506191  1
  V  V34  1  0.51899324  0.28282840  0.25001639  1
  V  V35  1  0.54626338  0.47317432  -0.03008391  1
  V  V36  1  0.07961903  0.73175549  0.82374868  1
  V  V37  1  0.00659170  0.31448290  0.87700145  1
  V  V38  1  -0.01448130  0.63777291  0.15409151  1
  V  V39  1  0.44961895  0.26253438  0.75108584  1
  V  V40  1  0.71367423  0.47627521  0.25597553  1
  V  V41  1  0.89521650  0.48787713  0.87642444  1
  V  V42  1  0.78587872  0.75369250  -0.01659838  1
  V  V43  1  0.33606867  0.47646375  0.87422250  1
  V  V44  1  0.64399304  0.27255286  0.36382577  1
  V  V45  1  0.85081995  0.36743722  0.54504079  1
  V  V46  1  0.49354813  0.83023882  0.94942720  1
  V  V47  1  0.29148295  0.86018432  0.67899071  1
  V  V48  1  0.02970455  0.49891342  -0.02210442  1
  V  V49  1  0.49103188  0.16251162  0.63212345  1
  V  V50  1  0.38075985  0.62253860  0.76758689  1
  Zn  Zn51  1  0.78264350  0.07059206  0.01205137  1
  Zn  Zn52  1  0.45291233  0.76225025  0.43118564  1
  Zn  Zn53  1  0.83296677  0.14292953  0.56387120  1
  Zn  Zn54  1  0.47485909  0.86027366  0.58660661  1
  Zn  Zn55  1  0.24451427  0.14162756  0.15721510  1
  Zn  Zn56  1  0.36750276  0.71832673  0.59953515  1
  Zn  Zn57  1  0.64485622  0.94088373  0.55171900  1
  Zn  Zn58  1  0.16415903  0.07043997  0.44519221  1
  Zn  Zn59  1  0.57183103  0.31234786  0.05776093  1
  Zn  Zn60  1  0.93622989  0.40314841  0.72645443  1
  Zn  Zn61  1  0.10496431  0.82887527  0.65205662  1
  Zn  Zn62  1  0.47525503  0.62766449  0.91891767  1
  Zn  Zn63  1  0.17476424  0.39227718  0.90902608  1
  Zn  Zn64  1  0.31873472  0.27951345  0.25626477  1
  Zn  Zn65  1  0.43945696  0.40160840  0.12631940  1
  Zn  Zn66  1  0.69428308  0.65017947  0.71410452  1
  Zn  Zn67  1  0.50003845  0.50630231  0.77588253  1
  Zn  Zn68  1  0.32164890  0.83370746  0.33229711  1
  Zn  Zn69  1  0.58265781  0.06545203  0.31973426  1
  Zn  Zn70  1  0.91747890  1.01638278  0.16779309  1
  Zn  Zn71  1  0.91128313  0.46930163  0.11324485  1
  Zn  Zn72  1  0.02795397  0.54637065  0.78616888  1
  Zn  Zn73  1  -0.00351295  0.78161172  0.00511186  1
  Zn  Zn74  1  0.81413297  0.32303414  0.30229977  1
  Zn  Zn75  1  0.79350240  0.60791888  0.12424055  1
  Zn  Zn76  1  0.90463510  0.60623204  -0.00748209  1
  Zn  Zn77  1  0.72211448  0.39962637  0.93638333  1
  Zn  Zn78  1  0.93901533  0.13331434  0.91757605  1
  Zn  Zn79  1  0.03077174  0.33648372  0.07650478  1
  Zn  Zn80  1  0.34761278  0.04327269  0.57693963  1
  Zn  Zn81  1  0.68066825  0.43341837  0.44890035  1
  Zn  Zn82  1  0.21108089  0.69408466  0.72995703  1
  Zn  Zn83  1  0.65365877  0.16737490  0.71586564  1
  Zn  Zn84  1  0.68867431  0.19750580  0.18587207  1
  Zn  Zn85  1  0.79765757  0.55534595  0.54690307  1
  Zn  Zn86  1  0.21525228  0.53661501  0.01226021  1
  Zn  Zn87  1  0.83324416  0.30769726  0.80303577  1
  Zn  Zn88  1  0.07202116  0.09338481  0.75383189  1
  Zn  Zn89  1  0.27312334  0.24099532  0.70036413  1
  Zn  Zn90  1  0.18180325  0.92639540  0.91086348  1
  Zn  Zn91  1  0.01454345  0.38006798  0.54164264  1
  Zn  Zn92  1  0.68121995  0.91389951  0.93845120  1
  Zn  Zn93  1  0.79393458  0.78252502  0.43866163  1
  Zn  Zn94  1  0.62076771  0.61981978  0.23774268  1
  Zn  Zn95  1  0.28013811  0.77927501  0.85091065  1
  Zn  Zn96  1  0.27853561  0.93505849  0.47126035  1
  Zn  Zn97  1  0.92599600  0.66400662  0.35236073  1
  Zn  Zn98  1  0.91583990  0.92827500  0.66434521  1
  Zn  Zn99  1  0.45020300  0.97203878  0.16312588  1
  Zn  Zn100  1  0.41153764  0.90518222  0.77307491  1
  Zn  Zn101  1  0.21718897  0.60158017  0.50097126  1
  O  O102  1  0.12902629  0.10998420  0.06900713  1
  O  O103  1  0.13821091  0.11878007  0.56353809  1
  O  O104  1  0.06666901  0.57710070  0.15138338  1
  O  O105  1  0.06409347  0.63557741  0.60715897  1
  O  O106  1  0.63147576  0.12797268  0.12156928  1
  O  O107  1  0.57484801  0.09753309  0.67478519  1
  O  O108  1  0.68923448  0.65632146  0.14500057  1
  O  O109  1  0.65980647  0.59478153  0.62769827  1
  O  O110  1  0.38586549  0.38170440  0.35471744  1
  O  O111  1  0.37934378  0.39797955  0.89619171  1
  O  O112  1  0.40921698  0.86688702  0.39645557  1
  O  O113  1  0.41351138  0.78539185  0.99024279  1
  O  O114  1  0.87080870  0.40040118  0.34931082  1
  O  O115  1  0.91660602  0.36585077  0.84522893  1
  O  O116  1  0.85473418  0.85887337  0.37266463  1
  O  O117  1  0.91643908  0.91219372  0.85172183  1
  O  O118  1  0.28966933  0.00489569  0.37110482  1
  O  O119  1  0.25054272  0.00867110  0.84795408  1
  O  O120  1  0.31901889  0.57127940  0.43910077  1
  O  O121  1  0.24270502  0.45934782  0.85332819  1
  O  O122  1  0.77075431  -0.02087226  0.41556366  1
  O  O123  1  0.74942853  -0.04612193  0.85214282  1
  O  O124  1  0.72692353  0.49405440  0.35459079  1
  O  O125  1  0.80444753  0.45625192  0.88834028  1
  O  O126  1  0.20291376  0.50127630  0.11730919  1
  O  O127  1  0.20321633  0.56803828  0.60596645  1
  O  O128  1  0.23230008  1.03787513  0.18564626  1
  O  O129  1  0.30346787  0.98787116  0.66468726  1
  O  O130  1  0.81127778  0.42751200  0.09420234  1
  O  O131  1  0.71873021  0.53459226  0.63055806  1
  O  O132  1  0.74883169  1.03870885  0.11651187  1
  O  O133  1  0.71698219  0.94984405  0.63464241  1
  O  O134  1  0.01519158  0.29038648  0.33847238  1
  O  O135  1  0.02171352  0.33449061  0.74695530  1
  O  O136  1  0.07293060  0.84982282  0.25446737  1
  O  O137  1  0.01982414  0.89312532  0.69400284  1
  O  O138  1  0.49300649  0.37274401  0.21899373  1
  O  O139  1  0.50669007  0.35539990  0.73214462  1
  O  O140  1  0.46545938  0.87467316  0.22283757  1
  O  O141  1  0.46690077  0.84456554  0.85088550  1
  O  O142  1  0.50744598  0.12153247  0.24591022  1
  O  O143  1  0.46304152  0.16436361  0.73887995  1
  O  O144  1  0.52706055  0.68184537  0.23477745  1
  O  O145  1  0.47504607  0.61652644  0.81055989  1
  O  O146  1  1.05177551  0.13259147  0.26570210  1
  O  O147  1  1.03745406  0.18161608  0.70261799  1
  O  O148  1  0.96097538  0.66256119  0.24439851  1
  O  O149  1  1.02068627  0.58777284  0.63482642  1
  O  O150  1  0.35187127  0.19293808  -0.07028603  1
  O  O151  1  0.31724248  0.34401213  0.34823950  1
  O  O152  1  0.26008676  0.69154533  0.00043663  1
  O  O153  1  0.44712772  0.76459507  0.53931066  1
  O  O154  1  0.86177594  0.16137488  -0.00370517  1
  O  O155  1  0.81580737  0.25229122  0.55729108  1
  O  O156  1  0.88406987  0.79287891  -0.00944513  1
  O  O157  1  0.80511579  0.76957455  0.54509148  1
  O  O158  1  0.06232715  0.17603417  0.43590979  1
  O  O159  1  0.07953765  0.15957112  1.06807159  1
  O  O160  1  0.14208947  0.79631765  0.55019943  1
  O  O161  1  0.08158917  0.75354161  0.93876788  1
  O  O162  1  0.64071175  0.25450640  0.47372463  1
  O  O163  1  0.58918348  0.26822262  0.96023270  1
  O  O164  1  0.61940726  0.72161104  0.46479942  1
  O  O165  1  0.68436439  0.72916177  1.03376916  1
  O  O166  1  0.53968457  0.24414941  0.14389925  1
  O  O167  1  0.47975557  0.25851779  0.63861036  1
  O  O168  1  0.44542394  0.74515277  0.14650923  1
  O  O169  1  0.58097653  0.76560058  0.72705889  1
  O  O170  1  1.03068078  0.31706023  0.27506961  1
  O  O171  1  1.06767808  0.30504000  0.59438780  1
  O  O172  1  0.99550169  0.71691865  0.09751586  1
  O  O173  1  0.94584329  0.72924661  0.57739188  1
  O  O174  1  0.03898042  0.10639176  0.44493624  1
  O  O175  1  -0.01330961  0.21994588  0.87156197  1
  O  O176  1  -0.04403331  0.77945000  0.37590124  1
  O  O177  1  0.01065311  0.80450284  0.81906075  1
  O  O178  1  0.52454150  0.28158485  0.34700948  1
  O  O179  1  0.48760417  0.26426061  0.84527512  1
  O  O180  1  0.51021945  0.77010754  0.32952208  1
  O  O181  1  0.51386812  0.73137821  0.93209593  1
  O  O182  1  0.20832028  0.13171863  0.57368973  1
  O  O183  1  0.18322855  0.19199441  0.93239073  1
  O  O184  1  0.26944736  0.69801726  0.52685226  1
  O  O185  1  0.19551455  0.64668034  0.99081740  1
  O  O186  1  0.72270648  0.15188958  0.52638649  1
  O  O187  1  0.71241538  0.15954578  0.98930918  1
  O  O188  1  0.73431362  0.59334541  0.46481821  1
  O  O189  1  0.81363554  0.66148734  1.02735048  1
  O  O190  1  0.23477203  0.35112290  -0.00299483  1
  O  O191  1  0.24760691  0.38284796  0.48695310  1
  O  O192  1  0.23378283  0.83202575  -0.06104702  1
  O  O193  1  0.29019371  0.85639431  0.55801088  1
  O  O194  1  0.76528783  0.31783811  0.00745536  1
  O  O195  1  0.73839976  0.35853961  0.51778859  1
  O  O196  1  0.76286696  0.85906136  -0.00394977  1
  O  O197  1  0.71217603  0.87140726  0.46149794  1
  O  O198  1  0.11447176  0.45391609  0.23652181  1
  O  O199  1  0.12232475  0.52299350  0.73386369  1
  O  O200  1  0.21723805  1.02981169  0.34071348  1
  O  O201  1  0.16513642  1.04157728  0.72381148  1
  O  O202  1  0.62498762  0.50960423  0.23223806  1
  O  O203  1  0.66468308  0.49062247  0.77794643  1
  O  O204  1  0.66775434  1.01812093  0.26300648  1
  O  O205  1  0.63146967  0.97551805  0.76628795  1
  O  O206  1  0.38221876  0.03347121  0.23728393  1
  O  O207  1  0.32680443  0.00662508  0.82445898  1
  O  O208  1  0.43899514  0.54665835  0.31350954  1
  O  O209  1  0.38124443  0.51388227  0.78391820  1
  O  O210  1  0.83712316  -0.00658323  0.24167041  1
  O  O211  1  0.83563169  -0.03533698  0.73697453  1
  O  O212  1  0.93309625  0.47072088  0.22437637  1
  O  O213  1  0.92686707  0.50070572  0.77094509  1
  O  O214  1  0.16458766  0.33774608  0.36909627  1
  O  O215  1  0.10506933  0.32729878  0.86636783  1
  O  O216  1  0.08513954  0.88684974  0.41899481  1
  O  O217  1  0.10879789  0.91194638  0.83144583  1
  O  O218  1  0.64026273  0.36808381  0.37107283  1
  O  O219  1  0.66910865  0.34739712  0.85468266  1
  O  O220  1  0.52693165  0.90332723  0.49182127  1
  O  O221  1  0.59148710  0.85328458  0.91657854  1
  O  O222  1  0.30726516  0.09449789  0.04198932  1
  O  O223  1  0.41113071  0.12368103  0.60221984  1
  O  O224  1  0.37223683  0.56954705  0.16617740  1
  O  O225  1  0.40290535  0.64625892  0.67581625  1
  O  O226  1  0.91063175  0.12899661  0.16040905  1
  O  O227  1  0.88159192  0.09986727  0.65220428  1
  O  O228  1  0.90812397  0.58568398  0.11424388  1
  O  O229  1  0.84282459  0.63987433  0.59388271  1
  O  O230  1  0.22557013  0.23391960  0.10333368  1
  O  O231  1  0.30685870  0.29948211  0.61044170  1
  O  O232  1  0.14904022  0.78728576  0.06800135  1
  O  O233  1  0.28550333  0.75975257  0.67141035  1
  O  O234  1  0.78396687  0.25483777  0.14128814  1
  O  O235  1  0.67099865  0.24937176  0.63578976  1
  O  O236  1  0.68738193  0.72954473  0.11023401  1
  O  O237  1  0.76804439  0.71823534  0.67825623  1
  O  O238  1  0.17709070  0.29986144  0.31283493  1
  O  O239  1  0.16249462  0.17259755  0.86741583  1
  O  O240  1  0.24713246  0.82243320  0.41701230  1
  O  O241  1  0.18310649  0.72529303  0.83887573  1
  O  O242  1  0.73977910  0.25728485  0.35293878  1
  O  O243  1  0.78843058  0.23678012  0.87651665  1
  O  O244  1  0.81570397  0.69352035  0.37921786  1
  O  O245  1  0.76592753  0.74171826  0.89598789  1
  O  O246  1  -0.00455595  0.05054745  -0.03950454  1
  O  O247  1  -0.12546536  0.06270941  0.49231341  1
  O  O248  1  0.02107218  0.59296756  -0.01347572  1
  O  O249  1  -0.01578028  0.62051587  0.43791066  1
  O  O250  1  0.45986735  0.13296884  0.08483830  1
  O  O251  1  0.55072194  0.15419307  0.54220675  1
  O  O252  1  0.51657068  0.56283306  -0.00476162  1
  O  O253  1  0.56539014  0.67833792  0.45900117  1
  O  O254  1  0.38891531  0.42129160  0.41248187  1
  O  O255  1  0.50385858  0.40168815  1.03738551  1
  O  O256  1  0.38205765  0.98283664  0.49215308  1
  O  O257  1  0.53661644  0.84351089  1.03598275  1
  O  O258  1  0.92644663  0.34286342  0.48746133  1
  O  O259  1  0.99878278  0.33363233  0.97267327  1
  O  O260  1  1.08741500  0.92392905  0.47614205  1
  O  O261  1  0.97441499  0.89576177  0.99906278  1
  O  O262  1  0.49442541  0.55350353  0.35353212  1
  O  O263  1  0.52364409  0.46428299  0.87634012  1
  O  O264  1  0.50483758  0.99957146  0.36854963  1
  O  O265  1  0.44735073  0.91739767  0.95378442  1
  O  O266  1  1.01042576  0.48821485  0.36136046  1
  O  O267  1  1.01639076  0.47764888  0.88104703  1
  O  O268  1  0.97894254  0.98476847  0.38356809  1
  O  O269  1  1.00486950  1.00992951  0.78374751  1
  O  O270  1  0.00933704  -0.00305906  0.11346301  1
  O  O271  1  -0.05902245  -0.02469724  0.56220248  1
  O  O272  1  0.02305077  0.45182136  0.08410906  1
  O  O273  1  0.02551572  0.48504031  0.52036352  1
  O  O274  1  0.54190318  0.02130847  0.13417304  1
  O  O275  1  0.47574301  -0.00845759  0.75605033  1
  O  O276  1  0.42843113  0.53049094  0.14702545  1
  O  O277  1  0.53433923  0.51016313  0.67003744  1
  O  O278  1  0.28241259  0.36094908  0.18322827  1
  O  O279  1  0.25248868  0.43823432  0.67947922  1
  O  O280  1  0.28467274  0.90349843  0.25285480  1
  O  O281  1  0.30783911  0.86311114  0.78193583  1
  O  O282  1  0.74643485  0.38216460  0.22616195  1
  O  O283  1  0.77291594  0.38094951  0.74551198  1
  O  O284  1  0.72524545  0.92909247  0.39964022  1
  O  O285  1  0.71851315  0.84880563  0.74994690  1
  O  O286  1  0.30440329  0.16960290  0.24514816  1
  O  O287  1  0.28631189  0.13307738  0.72552834  1
  O  O288  1  0.29066700  0.49489179  0.30058608  1
  O  O289  1  0.26572811  0.59764224  0.74392478  1
  O  O290  1  0.76649580  0.13622021  0.23840518  1
  O  O291  1  0.74650871  0.11184196  0.73026211  1
  O  O292  1  0.77272312  0.53886589  0.20807232  1
  O  O293  1  0.74891798  0.60693252  0.80978792  1
  O  O294  1  0.39523613  0.12888541  0.36407713  1
  O  O295  1  0.34185216  0.14061121  0.88796660  1
  O  O296  1  0.38013343  0.67782970  0.40279457  1
  O  O297  1  0.35776792  0.57260777  0.92499572  1
  O  O298  1  0.93346014  0.02758285  0.35293967  1
  O  O299  1  0.87133295  0.08050825  0.83170382  1
  O  O300  1  0.86152745  0.56104916  0.34230035  1
  O  O301  1  0.88670441  0.58330646  0.88563526  1
  O  O302  1  0.13289916  0.36141760  0.11773796  1
  O  O303  1  0.19798240  0.42361912  0.52848683  1
  O  O304  1  0.04916407  0.91661782  0.27198733  1
  O  O305  1  0.19709922  0.88329159  0.68011103  1
  O  O306  1  0.65928200  0.36294663  0.10554449  1
  O  O307  1  0.64836770  0.40374709  0.65650304  1
  O  O308  1  0.65761042  0.92028605  0.13481771  1
  O  O309  1  0.55701653  0.93459247  0.63229562  1
  O  O310  1  0.11691152  0.15744341  0.26071640  1
  O  O311  1  0.16777165  0.26717353  0.71377766  1
  O  O312  1  0.12345001  0.81733673  0.29521817  1
  O  O313  1  0.10799295  0.73804773  0.71839733  1
  O  O314  1  0.62619020  0.25606959  0.25654272  1
  O  O315  1  0.57218272  0.35093918  0.77487697  1
  O  O316  1  0.57124225  0.80803516  0.19060922  1
  O  O317  1  0.60342869  0.70626083  0.76141342  1
  O  O318  1  0.42519804  0.23787070  0.24626844  1
  O  O319  1  0.35659429  0.28245870  0.76103721  1
  O  O320  1  0.39098463  0.76501360  0.27069331  1
  O  O321  1  0.34795840  0.69747230  0.81980357  1
  O  O322  1  0.88518172  0.24713527  0.26269507  1
  O  O323  1  0.85800872  0.22215233  0.73760881  1
  O  O324  1  0.91645265  0.82951496  0.33515947  1
  O  O325  1  0.90292985  0.70767034  0.71137020  1
  O  O326  1  0.37796029  0.61436694  0.44963475  1
  O  O327  1  0.32508499  0.51814186  0.97949254  1
  O  O328  1  0.25893023  1.09971037  0.51669729  1
  O  O329  1  0.27191980  1.05496767  0.99915661  1
  O  O330  1  0.83972855  0.46272934  0.52003370  1
  O  O331  1  0.92192142  0.47914494  0.98629724  1
  O  O332  1  0.87692375  0.99330535  0.52344910  1
  O  O333  1  0.84112858  0.98825163  0.96003855  1
  O  O334  1  0.12276272  -0.03830441  -0.00296990  1
  O  O335  1  0.17133806  -0.02865973  0.49148897  1
  O  O336  1  0.13087712  0.47991390  -0.02691646  1
  O  O337  1  0.13712358  0.57071440  0.43753711  1
  O  O338  1  0.65361813  -0.00165812  0.00242392  1
  O  O339  1  0.63467167  0.03407430  0.49192483  1
  O  O340  1  0.64305831  0.46414444  -0.02288096  1
  O  O341  1  0.61035486  0.48006074  0.52312594  1
  O  O342  1  0.33478701  0.35931323  0.11564423  1
  O  O343  1  0.36616444  0.43780668  0.56550265  1
  O  O344  1  0.37886789  0.93253363  0.10204055  1
  O  O345  1  0.40073414  0.86896561  0.66684307  1
  O  O346  1  0.94883633  0.27899480  0.12391329  1
  O  O347  1  0.89239872  0.37322614  0.63251804  1
  O  O348  1  0.85948046  0.91487238  0.10172556  1
  O  O349  1  0.86552798  0.83102167  0.64604005  1
  O  O350  1  0.13913447  0.18047974  0.42109598  1
  O  O351  1  0.11524957  0.11384478  0.86634920  1
  O  O352  1  0.25588043  0.55222881  0.28170841  1
  O  O353  1  0.03838503  0.64626051  0.82634628  1
  O  O354  1  0.61769177  0.14696681  0.38573567  1
  O  O355  1  0.62738214  0.20105994  0.81784183  1
  O  O356  1  0.68649298  0.63988639  0.32117208  1
  O  O357  1  0.72003758  0.60463575  0.87520318  1
