# generated using pymatgen
data_V51Zn51O256
_symmetry_space_group_name_H-M   'P 1'
_cell_length_a   17.38685912
_cell_length_b   17.42326625
_cell_length_c   17.51965520
_cell_angle_alpha   89.97805943
_cell_angle_beta   89.28917168
_cell_angle_gamma   89.43690842
_symmetry_Int_Tables_number   1
_chemical_formula_structural   V51Zn51O256
_chemical_formula_sum   'V51 Zn51 O256'
_cell_volume   5306.66718669
_cell_formula_units_Z   1
loop_
 _symmetry_equiv_pos_site_id
 _symmetry_equiv_pos_as_xyz
  1  'x, y, z'
loop_
 _atom_site_type_symbol
 _atom_site_label
 _atom_site_symmetry_multiplicity
 _atom_site_fract_x
 _atom_site_fract_y
 _atom_site_fract_z
 _atom_site_occupancy
  V  V0  1  0.50702307  0.81121882  0.85378776  1
  V  V1  1  0.47851135  -0.03202570  0.48862891  1
  V  V2  1  0.13131477  0.88850938  0.28199643  1
  V  V3  1  0.20286706  0.49832684  0.77163000  1
  V  V4  1  -0.02943697  0.02319537  0.03640482  1
  V  V5  1  0.60853321  0.85957741  0.24579424  1
  V  V6  1  0.86244342  0.64920376  0.78192623  1
  V  V7  1  0.34276934  0.18800043  0.66881268  1
  V  V8  1  0.85288189  0.12347434  0.76662322  1
  V  V9  1  0.73033235  0.77812967  -0.00381651  1
  V  V10  1  0.37969440  0.25298988  0.18028619  1
  V  V11  1  0.86299563  0.47620664  0.88925901  1
  V  V12  1  0.62894643  0.66228451  0.46578257  1
  V  V13  1  0.90891637  0.35255516  0.01758655  1
  V  V14  1  0.57174543  0.41467364  0.38379740  1
  V  V15  1  0.36425760  0.72156856  0.09573587  1
  V  V16  1  0.85857812  0.49869747  0.33437287  1
  V  V17  1  0.39459018  0.73647634  0.61064577  1
  V  V18  1  0.12897094  0.08890628  0.53210591  1
  V  V19  1  -0.02127506  0.65860253  0.13068794  1
  V  V20  1  -0.05735521  0.49750423  0.50900360  1
  V  V21  1  0.39363782  0.40940562  -0.04715091  1
  V  V22  1  0.47676818  0.74356434  0.23725856  1
  V  V23  1  0.55946205  -0.00785309  0.10609642  1
  V  V24  1  0.05693138  0.27895323  0.28152281  1
  V  V25  1  0.35678123  0.03619271  0.78448045  1
  V  V26  1  -0.03941654  0.86328533  0.38005202  1
  V  V27  1  0.73241500  0.34422856  0.13153845  1
  V  V28  1  0.11740795  -0.00324798  0.69672130  1
  V  V29  1  0.84988982  0.79326200  0.12695205  1
  V  V30  1  -0.02639080  0.62699993  0.63521516  1
  V  V31  1  0.57370211  0.11600348  -0.02996557  1
  V  V32  1  0.85857269  0.76542135  0.61804821  1
  V  V33  1  0.70267024  0.29814405  0.42843223  1
  V  V34  1  0.75152826  0.63131294  0.32569192  1
  V  V35  1  0.63044771  0.48437205  0.13637056  1
  V  V36  1  0.34759854  0.48393813  0.37028568  1
  V  V37  1  0.38963099  0.62429258  0.76228984  1
  V  V38  1  0.23862985  0.74826274  0.48592833  1
  V  V39  1  0.62971527  0.55251531  0.61264739  1
  V  V40  1  0.18417428  0.08284281  0.02907009  1
  V  V41  1  0.49394622  0.60076927  0.12195296  1
  V  V42  1  0.26366913  0.42090135  0.62161031  1
  V  V43  1  0.15242729  0.25180271  0.83452291  1
  V  V44  1  0.37891037  0.85376702  -0.03311418  1
  V  V45  1  0.63949876  0.60739321  -0.00008782  1
  V  V46  1  0.53072859  0.20073861  0.62811882  1
  V  V47  1  0.76801602  0.44017575  0.59247741  1
  V  V48  1  0.20718066  0.82573979  0.64446930  1
  V  V49  1  0.00090332  -0.00876809  0.48456319  1
  V  V50  1  0.61908478  0.88949747  0.75568377  1
  Zn  Zn51  1  0.55148593  0.15695840  0.44042445  1
  Zn  Zn52  1  0.66898888  0.15802963  0.08745179  1
  Zn  Zn53  1  0.58575477  0.36791022  0.56765282  1
  Zn  Zn54  1  0.54903320  0.07572249  0.77998030  1
  Zn  Zn55  1  0.80168780  0.53177477  0.07294450  1
  Zn  Zn56  1  0.78808054  0.81452129  0.29750320  1
  Zn  Zn57  1  0.67339543  0.46855031  0.91043487  1
  Zn  Zn58  1  0.32856552  0.33805100  0.78910254  1
  Zn  Zn59  1  0.57204876  0.60325749  0.80673782  1
  Zn  Zn60  1  0.67106323  0.69821450  0.15665576  1
  Zn  Zn61  1  0.03961457  0.09733016  0.83468865  1
  Zn  Zn62  1  0.44529412  0.89331003  0.13699463  1
  Zn  Zn63  1  0.79138243  0.06427576  -0.04457223  1
  Zn  Zn64  1  0.95490383  0.28601698  0.85089639  1
  Zn  Zn65  1  0.39160858  0.05305603  0.01510337  1
  Zn  Zn66  1  0.26632374  0.62119953  0.59263926  1
  Zn  Zn67  1  0.57810707  0.79812652  0.55943388  1
  Zn  Zn68  1  0.64845450  0.94098054  0.93580748  1
  Zn  Zn69  1  0.45755412  0.28819824  0.35360064  1
  Zn  Zn70  1  0.21704742  0.36904077  0.92274789  1
  Zn  Zn71  1  0.77167559  0.79915682  0.80151347  1
  Zn  Zn72  1  0.28525745  0.75396958  0.28456938  1
  Zn  Zn73  1  0.04549815  0.79016270  0.54282553  1
  Zn  Zn74  1  0.02157137  0.54310752  0.79812104  1
  Zn  Zn75  1  0.07013444  0.48782485  0.62658313  1
  Zn  Zn76  1  0.01508171  0.83322228  0.03546075  1
  Zn  Zn77  1  0.23766630  0.95866796  0.93151140  1
  Zn  Zn78  1  0.97098619  0.92049535  0.19464599  1
  Zn  Zn79  1  0.88453054  0.30514753  0.37860797  1
  Zn  Zn80  1  0.42459942  0.61101901  -0.04327186  1
  Zn  Zn81  1  0.89438465  0.44932353  0.70845844  1
  Zn  Zn82  1  0.47301199  0.43505479  0.22416762  1
  Zn  Zn83  1  0.15748810  0.72302374  0.12238871  1
  Zn  Zn84  1  0.92570269  0.95998221  0.64965017  1
  Zn  Zn85  1  1.04025503  0.20702790  0.44973551  1
  Zn  Zn86  1  0.43132730  0.68988627  0.43015210  1
  Zn  Zn87  1  0.87889655  0.70469110  0.41624230  1
  Zn  Zn88  1  0.42555489  0.53222276  0.57813165  1
  Zn  Zn89  1  0.16467855  0.90180117  0.47877675  1
  Zn  Zn90  1  1.02599923  0.18634252  0.97608548  1
  Zn  Zn91  1  0.44059918  0.90498175  0.68147712  1
  Zn  Zn92  1  0.54812508  0.78408135  0.04979664  1
  Zn  Zn93  1  0.96898120  0.44202440  0.17658118  1
  Zn  Zn94  1  0.57715208  0.58187735  0.29643773  1
  Zn  Zn95  1  0.84658756  0.65724045  0.96706005  1
  Zn  Zn96  1  0.81151568  0.62092501  0.55408915  1
  Zn  Zn97  1  0.53233965  0.02262138  0.29488015  1
  Zn  Zn98  1  0.32822212  0.80219557  0.78279785  1
  Zn  Zn99  1  0.69723251  0.68402870  0.68709145  1
  Zn  Zn100  1  0.16770623  0.23948660  0.62528455  1
  Zn  Zn101  1  0.54601838  0.30967558  0.05501954  1
  O  O102  1  0.17866714  0.09656680  0.12104341  1
  O  O103  1  0.12963437  0.08017943  0.63696995  1
  O  O104  1  0.07645337  0.64940521  0.11162201  1
  O  O105  1  0.06773488  0.61146038  0.61920306  1
  O  O106  1  0.60374156  0.07825867  0.13095493  1
  O  O107  1  0.56725358  0.15575283  0.70725951  1
  O  O108  1  0.62519850  0.59422593  0.11921960  1
  O  O109  1  0.64832527  0.65122466  0.58143744  1
  O  O110  1  0.35466889  0.39458715  0.43909656  1
  O  O111  1  0.39188595  0.39296997  0.85511295  1
  O  O112  1  0.35586230  1.01868225  0.30441966  1
  O  O113  1  0.39804658  0.82697581  0.85995506  1
  O  O114  1  0.84704190  0.40682852  0.36663039  1
  O  O115  1  0.90452228  0.36928659  0.91028938  1
  O  O116  1  0.86637970  0.86860749  0.35638488  1
  O  O117  1  0.89637665  0.90266664  0.84590095  1
  O  O118  1  0.21972583  0.07820293  0.28301547  1
  O  O119  1  0.29245360  -0.00547516  0.84666121  1
  O  O120  1  0.25755337  0.48674371  0.34677694  1
  O  O121  1  0.20275064  0.46867283  0.86153253  1
  O  O122  1  0.78326260  0.01406690  0.37329408  1
  O  O123  1  0.73992502  -0.01112296  0.89989488  1
  O  O124  1  0.75895378  0.52433182  0.31827275  1
  O  O125  1  0.77211765  0.46019523  0.85857683  1
  O  O126  1  0.22076391  0.56249150  0.17118479  1
  O  O127  1  0.22109515  0.52888915  0.63966630  1
  O  O128  1  0.24018604  0.93097521  0.11805406  1
  O  O129  1  0.19136078  0.93133710  0.67277435  1
  O  O130  1  0.73283286  0.46592792  0.12532465  1
  O  O131  1  0.75817408  0.54052519  0.61160660  1
  O  O132  1  0.75655420  1.01520574  0.21565726  1
  O  O133  1  0.72255800  0.96404263  0.59497702  1
  O  O134  1  0.03301826  0.36756765  0.23494853  1
  O  O135  1  -0.03301606  0.34106804  0.74245259  1
  O  O136  1  0.01400404  0.87286673  0.28958671  1
  O  O137  1  -0.03612301  0.92225523  0.83660595  1
  O  O138  1  0.52167952  0.36730845  0.30792732  1
  O  O139  1  0.52375552  0.41531532  0.74780957  1
  O  O140  1  0.47426708  0.84562089  0.23221042  1
  O  O141  1  0.50357216  0.85941642  0.75816159  1
  O  O142  1  0.41171002  0.00554682  0.26021468  1
  O  O143  1  0.43647891  0.13343193  0.63789813  1
  O  O144  1  0.51068824  0.62971084  0.22216887  1
  O  O145  1  0.47622256  0.58015962  0.75174331  1
  O  O146  1  1.05246676  0.18610246  0.32973001  1
  O  O147  1  0.95940250  0.11617466  0.75497364  1
  O  O148  1  0.96985633  0.65215104  0.22329420  1
  O  O149  1  0.96858996  0.62570631  0.74464592  1
  O  O150  1  0.31639578  0.26550512  0.10450368  1
  O  O151  1  0.58186490  0.17319678  0.54946379  1
  O  O152  1  0.37513054  0.70443220  -0.00032700  1
  O  O153  1  0.36933801  0.73361852  0.51099964  1
  O  O154  1  0.95137689  0.26323642  0.01121812  1
  O  O155  1  0.93998592  0.24703238  0.44850931  1
  O  O156  1  0.83610687  0.76219481  0.00563287  1
  O  O157  1  0.83073026  0.73261222  0.52652289  1
  O  O158  1  -0.08285251  0.28696592  0.59597104  1
  O  O159  1  0.15593507  0.17755776  0.96975813  1
  O  O160  1  0.13930178  0.77334916  0.47605018  1
  O  O161  1  0.11830657  0.78436218  1.02014894  1
  O  O162  1  0.68946752  0.29941681  0.53676554  1
  O  O163  1  0.58515172  0.20945820  1.01788823  1
  O  O164  1  0.64444066  0.75799462  0.47936412  1
  O  O165  1  0.64069668  0.72060274  1.02792036  1
  O  O166  1  0.47537011  0.26280524  0.13330216  1
  O  O167  1  0.54387113  0.29833978  0.63927713  1
  O  O168  1  0.48014881  0.72412617  0.11972761  1
  O  O169  1  0.49191324  0.74163167  0.60123451  1
  O  O170  1  1.07162980  0.22174321  0.20311346  1
  O  O171  1  0.97381715  0.24589339  0.60735082  1
  O  O172  1  0.95222606  0.75612105  0.09680504  1
  O  O173  1  0.96915237  0.72973909  0.60402111  1
  O  O174  1  0.06210719  0.30837338  0.38511855  1
  O  O175  1  0.03847186  0.21180849  0.86061679  1
  O  O176  1  -0.03111829  0.76528415  0.40363517  1
  O  O177  1  0.05421127  0.61876865  0.93732959  1
  O  O178  1  0.63316977  0.23425076  0.41143117  1
  O  O179  1  0.50362275  0.27786995  0.83286455  1
  O  O180  1  0.46808117  0.72678851  0.33315941  1
  O  O181  1  0.53486358  0.72055996  0.83523303  1
  O  O182  1  0.21013466  0.07721954  0.48634742  1
  O  O183  1  0.28478135  0.07667631  1.00966199  1
  O  O184  1  0.23016141  0.64928663  0.49209253  1
  O  O185  1  0.19498583  0.53978002  1.02239970  1
  O  O186  1  0.76549271  0.10717802  0.45686037  1
  O  O187  1  0.69726128  0.11253419  0.99023581  1
  O  O188  1  0.73139782  0.59924130  0.46704828  1
  O  O189  1  0.74691509  0.61174731  1.01329148  1
  O  O190  1  0.30153381  0.38391639  -0.01238858  1
  O  O191  1  0.24327845  0.28920748  0.44246771  1
  O  O192  1  0.28128908  0.85465746  -0.04764833  1
  O  O193  1  0.24071711  0.85525671  0.54200565  1
  O  O194  1  0.67396920  0.34362999  -0.05454854  1
  O  O195  1  0.75183411  0.35231143  0.52296418  1
  O  O196  1  0.70703696  0.87169973  0.00402789  1
  O  O197  1  0.76035900  0.95823908  0.53491031  1
  O  O198  1  0.24124757  0.59741241  0.23042061  1
  O  O199  1  0.10573646  0.49171855  0.73854768  1
  O  O200  1  0.13397855  0.96686983  0.23167804  1
  O  O201  1  0.11653386  1.03203965  0.78928319  1
  O  O202  1  0.62169831  0.49037231  0.23196699  1
  O  O203  1  0.63152439  0.58211920  0.70813660  1
  O  O204  1  0.57773339  0.96249840  0.21838960  1
  O  O205  1  0.59857157  0.98221637  0.73561490  1
  O  O206  1  0.28763937  -0.05190422  0.16555887  1
  O  O207  1  0.36364482  -0.01957904  0.70482379  1
  O  O208  1  0.40122869  0.49085356  0.28577641  1
  O  O209  1  0.29409499  0.56558308  0.75631174  1
  O  O210  1  0.87611129  0.12018073  0.28477108  1
  O  O211  1  0.86891748  0.03291011  0.72164344  1
  O  O212  1  0.90333991  0.49061364  0.24653336  1
  O  O213  1  0.93038499  0.47603946  0.80802329  1
  O  O214  1  0.27778598  0.22782523  0.44429739  1
  O  O215  1  0.11770437  0.33150623  0.88566191  1
  O  O216  1  0.14079854  0.91692307  0.37607310  1
  O  O217  1  0.14479273  0.75440202  0.94452588  1
  O  O218  1  0.67150833  0.38665189  0.38217463  1
  O  O219  1  0.58538027  0.48204434  0.84189852  1
  O  O220  1  0.59223142  0.85479646  0.33704910  1
  O  O221  1  0.59437655  0.87402474  0.86177840  1
  O  O222  1  0.37717527  0.15601429  0.15697820  1
  O  O223  1  0.42514297  0.19947394  0.58720987  1
  O  O224  1  0.39521639  0.61007928  0.11532605  1
  O  O225  1  0.37491350  0.62108006  0.62660405  1
  O  O226  1  0.88978456  0.12893355  0.21606802  1
  O  O227  1  0.82957738  0.17546829  0.68736996  1
  O  O228  1  0.90679175  0.57461012  0.10731425  1
  O  O229  1  0.86441647  0.66092869  0.66528183  1
  O  O230  1  0.30356880  0.26840114  0.24427331  1
  O  O231  1  0.22866820  0.33539921  0.59451788  1
  O  O232  1  0.26647626  0.72222401  0.10716528  1
  O  O233  1  0.25608596  0.73423058  0.60647486  1
  O  O234  1  0.71164807  0.24907753  0.12000563  1
  O  O235  1  0.67688829  0.28469688  0.72154608  1
  O  O236  1  0.74832532  0.77071164  0.11369252  1
  O  O237  1  0.77301144  0.76967591  0.67410740  1
  O  O238  1  0.45754243  0.21448153  0.42812617  1
  O  O239  1  0.24998713  0.28216945  0.84590659  1
  O  O240  1  0.27880349  0.76135600  0.39553574  1
  O  O241  1  0.19415461  0.70235777  0.94815769  1
  O  O242  1  0.78356772  0.25959607  0.38811451  1
  O  O243  1  0.71537239  0.28958396  0.92218434  1
  O  O244  1  0.77749252  0.72575845  0.36356081  1
  O  O245  1  0.72876035  0.75919331  0.89925202  1
  O  O246  1  0.05432988  0.09771354  0.04271824  1
  O  O247  1  0.04389652  0.09035862  0.46504840  1
  O  O248  1  -0.06631633  0.60960841  0.03607503  1
  O  O249  1  -0.07303604  0.59946669  0.53362958  1
  O  O250  1  0.47526020  0.11430647  -0.01620401  1
  O  O251  1  0.54957421  0.04601785  0.48054721  1
  O  O252  1  0.52450803  0.61650143  0.01999603  1
  O  O253  1  0.53212876  0.65185153  0.46715620  1
  O  O254  1  0.53603784  0.38329407  0.47043524  1
  O  O255  1  0.47007979  0.35822213  0.99275855  1
  O  O256  1  0.40734475  0.90241650  0.46937016  1
  O  O257  1  0.49072035  0.81512649  0.95831646  1
  O  O258  1  1.02697209  0.45032643  0.52913489  1
  O  O259  1  0.96827091  0.40453064  1.07650584  1
  O  O260  1  1.00108182  0.87916894  0.48302297  1
  O  O261  1  0.98188555  0.93036995  1.00138685  1
  O  O262  1  0.55168540  0.50970877  0.37670828  1
  O  O263  1  0.58825638  0.43016300  0.77426348  1
  O  O264  1  0.49559116  0.97171028  0.38864119  1
  O  O265  1  0.44816925  1.04384169  0.81886743  1
  O  O266  1  0.94341439  0.50372328  0.41117555  1
  O  O267  1  1.02759601  0.33855836  0.70041648  1
  O  O268  1  0.96287529  0.97736686  0.39418860  1
  O  O269  1  0.99848381  1.07843868  0.93697326  1
  O  O270  1  -0.02444165  0.01187927  0.13525818  1
  O  O271  1  0.02933418  -0.04400437  0.68558108  1
  O  O272  1  0.09100513  0.52401568  0.26706097  1
  O  O273  1  -0.04567746  0.51317746  0.64307305  1
  O  O274  1  0.45839486  0.00545032  0.10895399  1
  O  O275  1  0.48588627  -0.03796530  0.59141819  1
  O  O276  1  0.50952302  0.49714540  0.13464246  1
  O  O277  1  0.53684559  0.53264020  0.58981233  1
  O  O278  1  0.36711418  0.36524938  0.36833466  1
  O  O279  1  0.25900419  0.41622797  0.72688198  1
  O  O280  1  0.21634216  0.83604616  0.26122835  1
  O  O281  1  0.23264317  0.80400985  0.73943686  1
  O  O282  1  0.76311392  0.34533607  0.21832621  1
  O  O283  1  0.70438990  0.32368572  0.77273466  1
  O  O284  1  0.70847907  0.86350144  0.24079144  1
  O  O285  1  0.71726623  0.88856655  0.77191298  1
  O  O286  1  0.22510526  0.12049928  0.33859425  1
  O  O287  1  0.26578208  0.17843668  0.61351422  1
  O  O288  1  0.20839157  0.66964869  0.24217151  1
  O  O289  1  0.22346891  0.60237303  0.78388847  1
  O  O290  1  0.77398294  0.05104575  0.15802029  1
  O  O291  1  0.75699607  0.10426453  0.78541981  1
  O  O292  1  0.74194025  0.64776057  0.23155555  1
  O  O293  1  0.76649081  0.63517253  0.76845549  1
  O  O294  1  0.54457514  0.11748289  0.33685178  1
  O  O295  1  0.32456927  0.13105202  0.75155986  1
  O  O296  1  0.37328471  0.58879568  0.40580690  1
  O  O297  1  0.38230587  0.63955364  0.85703016  1
  O  O298  1  0.81157777  0.06233668  0.41986417  1
  O  O299  1  0.86074960  0.09677684  0.86848181  1
  O  O300  1  0.85410441  0.60718398  0.36411398  1
  O  O301  1  0.87076250  0.59315684  0.87605165  1
  O  O302  1  0.07352295  0.51458702  0.19910274  1
  O  O303  1  0.18152007  0.48140227  0.58227010  1
  O  O304  1  0.06216225  0.86495706  0.13709380  1
  O  O305  1  0.11421811  0.80264083  0.63400646  1
  O  O306  1  0.62102522  0.37724170  0.11454290  1
  O  O307  1  0.65943078  0.44336561  0.60415529  1
  O  O308  1  0.56413726  0.88708976  0.09727794  1
  O  O309  1  0.62505727  0.83457649  0.65661823  1
  O  O310  1  0.15202618  0.30715845  0.28325830  1
  O  O311  1  0.14246810  0.24489820  0.73675885  1
  O  O312  1  0.10327458  0.81517542  0.18136260  1
  O  O313  1  0.03271284  0.67459588  0.89474321  1
  O  O314  1  0.70228605  0.18158676  0.25872779  1
  O  O315  1  0.56903247  0.28727261  0.85487593  1
  O  O316  1  0.59125313  0.75855082  0.21352325  1
  O  O317  1  0.62170123  0.77622178  0.71491192  1
  O  O318  1  0.42664200  0.22123751  0.26859841  1
  O  O319  1  0.35196456  0.27964119  0.70056203  1
  O  O320  1  0.37271893  0.73284287  0.21464597  1
  O  O321  1  0.38644878  0.71978275  0.72819728  1
  O  O322  1  0.95008862  0.28663052  0.28684059  1
  O  O323  1  0.86990457  0.21914324  0.80649436  1
  O  O324  1  0.85549715  0.75941003  0.21664440  1
  O  O325  1  0.86943796  0.74213718  0.80952739  1
  O  O326  1  0.36617122  0.53741585  0.46856345  1
  O  O327  1  0.40632571  0.50510874  0.96772653  1
  O  O328  1  0.40622942  1.03556986  0.50240346  1
  O  O329  1  0.39948770  0.94694166  0.97267207  1
  O  O330  1  0.85339899  0.44854449  0.53065010  1
  O  O331  1  0.85933012  0.48077293  0.98745165  1
  O  O332  1  0.93032264  1.01154969  0.55044182  1
  O  O333  1  0.87585699  1.05429127  1.02412787  1
  O  O334  1  0.15710392  -0.01007074  -0.00325945  1
  O  O335  1  0.09728997  -0.02074808  0.53060776  1
  O  O336  1  0.15168587  0.49266805  0.05109645  1
  O  O337  1  0.11209993  0.62268216  0.38038802  1
  O  O338  1  0.58385439  0.00800607  0.00223277  1
  O  O339  1  0.55046713  -0.10689669  0.50537840  1
  O  O340  1  0.63572399  0.50349929  0.00906456  1
  O  O341  1  0.66769701  0.55189996  0.48522569  1
  O  O342  1  0.40573475  0.35515486  0.18163308  1
  O  O343  1  0.35379063  0.44315196  0.58955910  1
  O  O344  1  0.37986234  0.83003425  0.07457776  1
  O  O345  1  0.37074696  0.83118776  0.63791763  1
  O  O346  1  0.81901055  0.34581525  0.06424139  1
  O  O347  1  0.80394305  0.40076520  0.67365863  1
  O  O348  1  0.87102266  0.88757420  0.13997127  1
  O  O349  1  0.88701571  0.85871666  0.62936651  1
  O  O350  1  0.11367396  0.19729675  0.53524203  1
  O  O351  1  0.17549790  0.15947601  0.89328938  1
  O  O352  1  0.09366924  0.67584704  0.33938091  1
  O  O353  1  0.06528209  0.54940795  0.90314118  1
  O  O354  1  0.72026189  0.13331796  0.30580657  1
  O  O355  1  0.58795678  0.11898993  0.87504105  1
  O  O356  1  0.64775363  0.64442464  0.35834223  1
  O  O357  1  0.63055135  0.61195497  0.90283883  1
