# generated using pymatgen
data_V51Zn51O256
_symmetry_space_group_name_H-M   'P 1'
_cell_length_a   17.40110061
_cell_length_b   17.46365137
_cell_length_c   17.67437097
_cell_angle_alpha   89.37403231
_cell_angle_beta   90.37188027
_cell_angle_gamma   91.59119441
_symmetry_Int_Tables_number   1
_chemical_formula_structural   V51Zn51O256
_chemical_formula_sum   'V51 Zn51 O256'
_cell_volume   5368.51287795
_cell_formula_units_Z   1
loop_
 _symmetry_equiv_pos_site_id
 _symmetry_equiv_pos_as_xyz
  1  'x, y, z'
loop_
 _atom_site_type_symbol
 _atom_site_label
 _atom_site_symmetry_multiplicity
 _atom_site_fract_x
 _atom_site_fract_y
 _atom_site_fract_z
 _atom_site_occupancy
  V  V0  1  0.40506771  0.87806579  0.02375734  1
  V  V1  1  0.40193375  0.72531031  0.14866101  1
  V  V2  1  0.84625758  0.36937710  -0.01530633  1
  V  V3  1  0.65842003  -0.04712825  0.11697520  1
  V  V4  1  0.13182084  0.86354487  0.23452778  1
  V  V5  1  0.73666660  0.01775870  0.74136752  1
  V  V6  1  0.36296683  0.29861447  0.15546135  1
  V  V7  1  0.43239870  0.01271119  0.34219998  1
  V  V8  1  0.85461556  0.61891208  0.75168362  1
  V  V9  1  0.74417736  0.39433381  0.59644681  1
  V  V10  1  0.03706293  0.56198839  -0.04450328  1
  V  V11  1  0.10944775  0.20078086  0.35080554  1
  V  V12  1  0.75891229  0.49976636  0.27219104  1
  V  V13  1  0.51068663  0.62044848  0.66230781  1
  V  V14  1  0.46213773  0.38437310  0.40525344  1
  V  V15  1  0.88109857  -0.01483423  0.85695489  1
  V  V16  1  0.37902959  0.63844072  0.76950756  1
  V  V17  1  0.23418753  0.83142708  0.60447284  1
  V  V18  1  0.87703837  0.76549842  0.11406592  1
  V  V19  1  -0.00458330  0.26181132  0.76605975  1
  V  V20  1  0.76908176  -0.03877697  0.24879903  1
  V  V21  1  0.70397262  0.16685183  0.89385133  1
  V  V22  1  0.88353147  0.64075279  0.25234187  1
  V  V23  1  0.38236111  0.11190838  0.75862892  1
  V  V24  1  0.49103791  0.32911883  0.89498573  1
  V  V25  1  0.42731730  0.51089822  0.53813706  1
  V  V26  1  0.74856232  0.14121759  0.37864546  1
  V  V27  1  0.48709558  0.89828943  0.46461774  1
  V  V28  1  0.56428807  0.09615870  0.11270607  1
  V  V29  1  0.86255152  0.16439666  0.25187384  1
  V  V30  1  0.27847296  0.73852179  0.02214462  1
  V  V31  1  0.24929445  0.65495508  0.37998832  1
  V  V32  1  -0.00671649  0.63747541  0.62584738  1
  V  V33  1  0.68816036  0.75972216  0.90137401  1
  V  V34  1  0.09830661  0.50191213  0.65697137  1
  V  V35  1  0.80821659  0.90401636  0.55165146  1
  V  V36  1  0.36558825  0.47328997  0.86109671  1
  V  V37  1  0.90805057  0.46955313  0.37656062  1
  V  V38  1  0.54782105  0.76430866  0.25560312  1
  V  V39  1  0.87126470  0.14467787  0.79043004  1
  V  V40  1  0.51751970  0.59852292  0.10186180  1
  V  V41  1  0.61539862  0.34663488  0.74044212  1
  V  V42  1  0.01380594  0.37069227  0.89261646  1
  V  V43  1  -0.03905320  0.01215210  0.56397942  1
  V  V44  1  0.01585381  0.89852562  0.80867133  1
  V  V45  1  0.20350807  0.24332893  0.51272706  1
  V  V46  1  -0.04888262  0.11127161  0.11537385  1
  V  V47  1  0.33368211  0.16708318  0.59825029  1
  V  V48  1  0.38655928  -0.02466827  0.86060446  1
  V  V49  1  0.82474598  0.72005206  0.61044769  1
  V  V50  1  0.86887940  0.26840463  0.59945277  1
  Zn  Zn51  1  0.18713990  1.00558381  0.82847223  1
  Zn  Zn52  1  0.04500183  0.59938996  0.33699405  1
  Zn  Zn53  1  0.07942201  0.77544317  0.05158707  1
  Zn  Zn54  1  0.71834123  1.00372910  0.93681740  1
  Zn  Zn55  1  0.17679511  0.22023060  0.19092738  1
  Zn  Zn56  1  -0.00598350  0.42820853  0.07303498  1
  Zn  Zn57  1  0.99361850  0.61366885  0.13104201  1
  Zn  Zn58  1  0.56642916  0.79591563  0.06444337  1
  Zn  Zn59  1  0.89251027  0.50948019  0.58221910  1
  Zn  Zn60  1  0.62605241  -0.00611020  0.34515077  1
  Zn  Zn61  1  0.65308599  0.11023733  0.23878299  1
  Zn  Zn62  1  0.40239190  0.60596700  0.96127653  1
  Zn  Zn63  1  -0.00562032  0.53835927  0.78818103  1
  Zn  Zn64  1  0.94137000  0.93855551  0.18433149  1
  Zn  Zn65  1  0.21220433  0.68987123  0.19386824  1
  Zn  Zn66  1  0.82185452  0.51778300  0.09861302  1
  Zn  Zn67  1  0.49921339  0.12925718  0.93224507  1
  Zn  Zn68  1  0.16311949  0.49498700  0.85228265  1
  Zn  Zn69  1  0.45688646  0.43103361  0.70022756  1
  Zn  Zn70  1  0.03947547  0.06804451  0.74494650  1
  Zn  Zn71  1  0.41513308  0.18429884  0.44205632  1
  Zn  Zn72  1  0.82177243  0.83688130  0.74340868  1
  Zn  Zn73  1  0.55482632  0.07707765  0.79335903  1
  Zn  Zn74  1  0.46329390  0.69306797  0.43362901  1
  Zn  Zn75  1  0.72972690  0.19779376  0.68919767  1
  Zn  Zn76  1  0.18216286  0.16638509  0.70331366  1
  Zn  Zn77  1  0.49762829  0.23423678  0.66906278  1
  Zn  Zn78  1  0.32193455  0.82989299  0.29984648  1
  Zn  Zn79  1  0.09262723  0.06779897  0.21727564  1
  Zn  Zn80  1  0.49682915  0.80782621  0.58607523  1
  Zn  Zn81  1  0.89603526  0.64124723  0.45771384  1
  Zn  Zn82  1  0.67299238  0.44766168  0.41231497  1
  Zn  Zn83  1  0.39225874  -0.02964108  0.62051306  1
  Zn  Zn84  1  0.70873759  0.57926753  0.61574942  1
  Zn  Zn85  1  0.30476417  0.53660595  0.67847858  1
  Zn  Zn86  1  0.02486138  0.84167801  0.61336081  1
  Zn  Zn87  1  0.64805570  0.60433885  0.77057379  1
  Zn  Zn88  1  0.40079447  0.82873961  0.73920738  1
  Zn  Zn89  1  0.68743799  0.64670035  0.33298683  1
  Zn  Zn90  1  0.93758359  0.17181708  0.43851255  1
  Zn  Zn91  1  0.87301421  0.65270871  0.95290771  1
  Zn  Zn92  1  0.76930113  0.09544517  0.07727668  1
  Zn  Zn93  1  0.77031763  0.87028727  0.37476669  1
  Zn  Zn94  1  0.44325496  0.42947622  0.04324912  1
  Zn  Zn95  1  0.80861156  0.31780000  0.33081462  1
  Zn  Zn96  1  0.79047479  0.09244341  0.57468812  1
  Zn  Zn97  1  0.70338170  0.67730028  0.17179140  1
  Zn  Zn98  1  0.22241289  0.42657231  0.56867231  1
  Zn  Zn99  1  0.48613749  0.93023506  0.19043537  1
  Zn  Zn100  1  0.91057003  0.42075367  0.70842465  1
  Zn  Zn101  1  0.06631630  0.30644646  0.62094739  1
  O  O102  1  0.04005681  0.18387643  0.09173510  1
  O  O103  1  0.14798490  0.02758734  0.47791114  1
  O  O104  1  0.14259608  0.60705633  0.15241343  1
  O  O105  1  0.08907182  0.59865149  0.61830220  1
  O  O106  1  0.66381400  0.11077719  0.10737509  1
  O  O107  1  0.58387205  0.22430047  0.59033139  1
  O  O108  1  0.61056988  0.62495047  0.12967147  1
  O  O109  1  0.61031085  0.58932227  0.66660111  1
  O  O110  1  0.36401518  0.35963698  0.39999390  1
  O  O111  1  0.40647116  0.37648402  0.86158382  1
  O  O112  1  0.37734649  0.90395942  0.36254580  1
  O  O113  1  0.41268587  0.88901965  0.82935864  1
  O  O114  1  0.90591269  0.37446660  0.35894310  1
  O  O115  1  0.90232474  0.37959174  0.90103452  1
  O  O116  1  0.83208590  0.87421527  0.46233071  1
  O  O117  1  0.89244686  0.89087421  0.81245449  1
  O  O118  1  0.33523851  -0.02682182  0.36495428  1
  O  O119  1  0.28725624  -0.02400543  0.85442833  1
  O  O120  1  0.27860456  0.56238055  0.39196103  1
  O  O121  1  0.26921814  0.46898357  0.86311335  1
  O  O122  1  0.73869735  -0.02241666  0.34948295  1
  O  O123  1  0.77237698  -0.01003024  0.84719197  1
  O  O124  1  0.83352063  0.52441022  0.43557390  1
  O  O125  1  0.70793492  0.46288029  0.82087476  1
  O  O126  1  0.17718026  0.56573500  0.10532841  1
  O  O127  1  0.20595090  0.50904058  0.63802214  1
  O  O128  1  0.29193222  1.03182481  0.13482782  1
  O  O129  1  0.28389873  0.92604690  0.61016174  1
  O  O130  1  0.74585002  0.48256643  0.17858614  1
  O  O131  1  0.77542209  0.49504461  0.60541128  1
  O  O132  1  0.75926104  0.97633212  0.13765533  1
  O  O133  1  0.71995319  1.08507733  0.66148465  1
  O  O134  1  0.04870227  0.39956783  0.22225409  1
  O  O135  1  -0.01683927  0.36551020  0.77064554  1
  O  O136  1  0.02997544  0.86890623  0.23229635  1
  O  O137  1  0.01440282  0.86380145  0.71980339  1
  O  O138  1  0.47443309  0.39919618  0.31086949  1
  O  O139  1  0.52082238  0.34539555  0.69343868  1
  O  O140  1  0.54243413  0.86215209  0.26134984  1
  O  O141  1  0.59513743  0.88124086  0.71153228  1
  O  O142  1  0.54838025  0.13481487  0.19960083  1
  O  O143  1  0.48197701  0.14838206  0.73989863  1
  O  O144  1  0.54377158  0.55149993  0.27393014  1
  O  O145  1  0.50862164  0.63998498  0.75646193  1
  O  O146  1  0.95799152  0.15113699  0.23276994  1
  O  O147  1  0.97331170  0.15344248  0.75778403  1
  O  O148  1  0.99237954  0.62064782  0.24612796  1
  O  O149  1  0.98036547  0.63364682  0.72788090  1
  O  O150  1  0.35464067  0.22794657  0.08506521  1
  O  O151  1  0.32026206  0.18734180  0.49837697  1
  O  O152  1  0.40247710  0.76330413  0.05841114  1
  O  O153  1  0.45452639  0.79828162  0.47088297  1
  O  O154  1  0.85278933  0.25556392  -0.01897937  1
  O  O155  1  0.88750219  0.25040582  0.50793147  1
  O  O156  1  0.88851369  0.74185490  0.01645027  1
  O  O157  1  0.85955415  0.72222636  0.51939568  1
  O  O158  1  0.11004356  0.25615239  0.53469023  1
  O  O159  1  0.16833295  0.23508511  1.00454803  1
  O  O160  1  0.04891258  0.76005270  0.44245707  1
  O  O161  1  0.17865114  0.73770506  1.02309378  1
  O  O162  1  0.56366559  0.20056315  0.52076012  1
  O  O163  1  0.63875074  0.31609023  1.08433424  1
  O  O164  1  0.66973355  0.75973833  0.44193406  1
  O  O165  1  0.63527521  0.75004797  0.98802756  1
  O  O166  1  0.45222745  0.35120314  0.14089617  1
  O  O167  1  0.39967264  0.23963866  0.61805033  1
  O  O168  1  0.51390187  0.75086109  0.15680367  1
  O  O169  1  0.51669824  0.70347184  0.60960795  1
  O  O170  1  0.97663459  0.22359934  0.08873526  1
  O  O171  1  0.95927531  0.27981240  0.64693795  1
  O  O172  1  0.99256921  0.72455347  0.09998101  1
  O  O173  1  1.00481183  0.73240747  0.60674851  1
  O  O174  1  0.02438237  0.22268879  0.39100564  1
  O  O175  1  0.02103252  0.26665521  0.86344151  1
  O  O176  1  0.02064880  0.70081784  0.41233229  1
  O  O177  1  0.00852240  0.82352543  0.90121447  1
  O  O178  1  0.47077804  0.28496096  0.41268131  1
  O  O179  1  0.47333607  0.23388118  0.90153852  1
  O  O180  1  0.49719424  0.72194218  0.32809035  1
  O  O181  1  0.61021657  0.81854277  0.88062355  1
  O  O182  1  0.21258814  0.03706244  0.45061502  1
  O  O183  1  0.10732999  0.07395440  0.96762155  1
  O  O184  1  0.19858604  0.66567619  0.46185584  1
  O  O185  1  0.31216812  0.66790150  0.96595792  1
  O  O186  1  0.76090355  0.11093654  0.47131481  1
  O  O187  1  0.74841584  0.11001215  0.96821844  1
  O  O188  1  0.66037229  0.55849325  0.49234769  1
  O  O189  1  0.81791437  0.57355204  1.00531017  1
  O  O190  1  0.18080470  0.30385130  -0.00713920  1
  O  O191  1  0.24629900  0.33277440  0.52354642  1
  O  O192  1  0.26870168  1.01495831  0.07140823  1
  O  O193  1  0.25296466  0.84511167  0.50747618  1
  O  O194  1  0.76083762  0.39902915  -0.03396851  1
  O  O195  1  0.71079357  0.39647208  0.50561098  1
  O  O196  1  0.75345387  0.82648207  -0.06051143  1
  O  O197  1  0.71648874  0.91859639  0.55085354  1
  O  O198  1  0.02508938  0.46808293  0.22328445  1
  O  O199  1  0.10274111  0.51077710  0.75616382  1
  O  O200  1  0.14121021  0.96244778  0.22487841  1
  O  O201  1  0.14736098  1.07864489  0.75857295  1
  O  O202  1  0.68361687  0.53505439  0.33560552  1
  O  O203  1  0.63833474  0.49419327  0.80849416  1
  O  O204  1  0.65753743  0.99001476  0.22904494  1
  O  O205  1  0.64247068  1.01772399  0.77338165  1
  O  O206  1  0.43892072  0.01251202  0.24757518  1
  O  O207  1  0.38416660  0.01282296  0.74431821  1
  O  O208  1  0.47870233  0.57317557  0.28646878  1
  O  O209  1  0.37356604  0.47184083  0.75058737  1
  O  O210  1  0.86648881  -0.01323654  0.24935649  1
  O  O211  1  0.84569973  0.05645512  0.74315805  1
  O  O212  1  0.86274767  0.50886554  0.28890768  1
  O  O213  1  0.88358327  0.51734608  0.75799864  1
  O  O214  1  0.19410822  0.43829992  0.26379007  1
  O  O215  1  0.10565677  0.39737246  0.86788753  1
  O  O216  1  0.12583157  0.86082978  0.33166970  1
  O  O217  1  0.11030410  0.91869361  0.82808808  1
  O  O218  1  0.56409208  0.40165116  0.41074297  1
  O  O219  1  0.57026879  0.35391143  0.83337543  1
  O  O220  1  0.66347073  0.82689565  0.40583298  1
  O  O221  1  0.73716227  0.78900755  0.81752146  1
  O  O222  1  0.41302075  0.22925147  0.20225009  1
  O  O223  1  0.37590553  0.07964746  0.60056435  1
  O  O224  1  0.42897339  0.62773988  0.15437565  1
  O  O225  1  0.39730388  0.61675163  0.66989079  1
  O  O226  1  0.84976773  0.12737371  0.14494157  1
  O  O227  1  0.84138526  0.17702441  0.63765627  1
  O  O228  1  0.88345975  0.59255189  0.15616242  1
  O  O229  1  0.87297259  0.62537399  0.63585165  1
  O  O230  1  0.25758823  0.28353440  0.15473450  1
  O  O231  1  0.22287193  0.18428760  0.59983148  1
  O  O232  1  0.29170152  0.70810537  0.12430628  1
  O  O233  1  0.21357034  0.73404433  0.60752114  1
  O  O234  1  0.63446202  0.38460743  0.09622718  1
  O  O235  1  0.75765038  0.28832345  0.61492329  1
  O  O236  1  0.77937366  0.74153598  0.12078806  1
  O  O237  1  0.73153439  0.69067982  0.60264746  1
  O  O238  1  0.19111860  0.21364852  0.41612553  1
  O  O239  1  0.27849368  0.25915319  0.87795604  1
  O  O240  1  0.25109727  0.75880343  0.35660834  1
  O  O241  1  0.30596155  0.83373544  0.99577073  1
  O  O242  1  0.73996541  0.23816140  0.37815235  1
  O  O243  1  0.69882558  0.25503843  0.91997115  1
  O  O244  1  0.72795016  0.71688027  0.41510584  1
  O  O245  1  0.74331123  0.68000139  0.93418968  1
  O  O246  1  -0.06841998  0.07985344  0.03132792  1
  O  O247  1  -0.02984365  0.07975633  0.49312283  1
  O  O248  1  -0.00552077  0.64619470  -0.05867855  1
  O  O249  1  -0.03919549  0.59299580  0.53395026  1
  O  O250  1  0.50981131  0.13243684  0.04071796  1
  O  O251  1  0.50049635  0.15555515  0.51644405  1
  O  O252  1  0.49888925  0.63138650  0.01140049  1
  O  O253  1  0.43948712  0.60111169  0.50340217  1
  O  O254  1  0.46770413  0.39893381  0.50877456  1
  O  O255  1  0.50941357  0.36541365  0.98204110  1
  O  O256  1  0.56036309  0.88967182  0.52618211  1
  O  O257  1  0.49853152  0.85649687  1.00311127  1
  O  O258  1  1.13191853  0.41805279  0.40587569  1
  O  O259  1  1.02351371  0.36268813  0.98893787  1
  O  O260  1  0.98924507  0.91937047  0.54593148  1
  O  O261  1  1.04790499  0.84679105  0.95932751  1
  O  O262  1  0.43344187  0.48279358  0.41606226  1
  O  O263  1  0.59940662  0.50300846  0.95211850  1
  O  O264  1  0.52153452  0.96812821  0.38417932  1
  O  O265  1  0.47539063  1.04089238  0.86627306  1
  O  O266  1  0.99900731  0.50982067  0.38291382  1
  O  O267  1  0.99428777  0.49387012  0.89205218  1
  O  O268  1  1.01038662  0.98196404  0.37519599  1
  O  O269  1  0.98683681  0.99798704  0.82007481  1
  O  O270  1  0.00353685  0.03054492  0.15823954  1
  O  O271  1  0.00689182  0.04050466  0.64337332  1
  O  O272  1  0.02390645  0.53661720  0.05485988  1
  O  O273  1  -0.00830502  0.48954407  0.64844871  1
  O  O274  1  0.55472319  -0.00736997  0.12123994  1
  O  O275  1  0.44711453  -0.12218763  0.65544288  1
  O  O276  1  0.50632869  0.50152874  0.10051820  1
  O  O277  1  0.48714610  0.51188331  0.62096441  1
  O  O278  1  0.22743704  0.47656970  0.21334623  1
  O  O279  1  0.22119466  0.35441137  0.75341163  1
  O  O280  1  0.23486884  0.86390237  0.23447853  1
  O  O281  1  0.19718044  0.86226170  0.69326722  1
  O  O282  1  0.74439666  0.40940391  0.32263954  1
  O  O283  1  0.71094252  0.39018197  0.80119310  1
  O  O284  1  0.77073666  0.86409384  0.26103868  1
  O  O285  1  0.75321516  0.92889188  0.71049809  1
  O  O286  1  0.16574138  0.12243914  0.15724730  1
  O  O287  1  0.22293233  0.21883961  0.85958519  1
  O  O288  1  0.26954055  0.64910340  0.27841934  1
  O  O289  1  0.28345237  0.61390263  0.76263640  1
  O  O290  1  0.76275861  0.11831545  0.26533373  1
  O  O291  1  0.75661348  0.16114326  0.80273036  1
  O  O292  1  0.76968837  0.62021626  0.25066496  1
  O  O293  1  0.75615282  0.60116170  0.73804102  1
  O  O294  1  0.42677247  0.10569435  0.36925095  1
  O  O295  1  0.35509435  0.12237159  0.84716717  1
  O  O296  1  0.34172816  0.67915296  0.41462834  1
  O  O297  1  0.40466560  0.57603746  0.85143803  1
  O  O298  1  0.86135170  0.14569612  0.35740568  1
  O  O299  1  0.88866510  0.10292905  0.87562195  1
  O  O300  1  0.88576926  0.65161803  0.35132914  1
  O  O301  1  0.86694086  0.64636256  0.84334786  1
  O  O302  1  0.04922304  0.36690646  0.15220863  1
  O  O303  1  0.10965855  0.40864202  0.61237970  1
  O  O304  1  0.12293417  0.85215749  0.13072591  1
  O  O305  1  0.13522676  0.84838986  0.57964236  1
  O  O306  1  0.61503383  0.32083537  0.25324096  1
  O  O307  1  0.66479451  0.39939513  0.66348554  1
  O  O308  1  0.64247989  0.85691748  0.12527495  1
  O  O309  1  0.57492821  1.02447624  0.60403833  1
  O  O310  1  0.12850783  0.26171640  0.27426639  1
  O  O311  1  0.08839200  0.24748434  0.71923910  1
  O  O312  1  0.13319113  0.75835694  0.23011983  1
  O  O313  1  0.10750166  0.71309034  0.79949630  1
  O  O314  1  0.59990558  0.26109616  0.28866913  1
  O  O315  1  0.64023378  0.25504645  0.73019020  1
  O  O316  1  0.63946336  0.72176993  0.26114273  1
  O  O317  1  0.61944941  0.82565652  0.67789883  1
  O  O318  1  0.33574135  0.33639347  0.24230584  1
  O  O319  1  0.30461391  0.15673057  0.70910460  1
  O  O320  1  0.38147796  0.77737511  0.22903011  1
  O  O321  1  0.38378475  0.73370530  0.78763280  1
  O  O322  1  0.84722540  0.25995781  0.24498501  1
  O  O323  1  0.88361269  0.24795284  0.78066072  1
  O  O324  1  0.89164789  0.73358261  0.21828286  1
  O  O325  1  0.84861021  0.73023907  0.71734007  1
  O  O326  1  0.33607587  0.48555353  0.56785577  1
  O  O327  1  0.39076483  0.48733003  0.96094498  1
  O  O328  1  0.42435025  0.95248283  0.51124729  1
  O  O329  1  0.39137404  0.96081043  0.96496370  1
  O  O330  1  0.86845270  0.46202557  0.47686247  1
  O  O331  1  0.88227192  0.42790696  1.06273296  1
  O  O332  1  0.85506432  0.99909921  0.57668660  1
  O  O333  1  0.88812060  0.96209007  0.94540971  1
  O  O334  1  0.16618172  0.03345651  -0.05352070  1
  O  O335  1  -0.02237810  -0.07977271  0.38830132  1
  O  O336  1  0.13165271  0.56855473  -0.07225185  1
  O  O337  1  0.15044234  0.45982515  0.45954020  1
  O  O338  1  0.66322579  -0.03317566  0.01873893  1
  O  O339  1  0.61117295  0.04374204  0.54788630  1
  O  O340  1  0.65686788  0.51991534  -0.01104582  1
  O  O341  1  0.59584848  0.59917985  0.48933628  1
  O  O342  1  0.34709540  0.37962271  0.08701079  1
  O  O343  1  0.27913523  0.32810446  0.72515072  1
  O  O344  1  0.40568836  0.90801823  0.11556366  1
  O  O345  1  0.32340465  0.79429517  0.63961041  1
  O  O346  1  0.82601435  0.27427718  0.04839747  1
  O  O347  1  0.85667600  0.38320468  0.61591816  1
  O  O348  1  0.89642748  0.86114457  0.12089563  1
  O  O349  1  0.82800366  0.82947224  0.62144196  1
  O  O350  1  0.10701435  0.10802462  0.31739080  1
  O  O351  1  0.08598806  0.12795116  0.92383625  1
  O  O352  1  0.15405768  0.62789708  0.34450511  1
  O  O353  1  0.16015813  0.73117390  0.84262977  1
  O  O354  1  0.65048942  0.10706062  0.35566533  1
  O  O355  1  0.60920986  0.13081200  0.88278176  1
  O  O356  1  0.57781003  0.63372232  0.42414967  1
  O  O357  1  0.64297337  0.68308772  0.84620255  1
