# generated using pymatgen
data_V51Zn51O256
_symmetry_space_group_name_H-M   'P 1'
_cell_length_a   17.63499297
_cell_length_b   17.54212278
_cell_length_c   17.74845861
_cell_angle_alpha   90.31176268
_cell_angle_beta   90.29236169
_cell_angle_gamma   90.10926340
_symmetry_Int_Tables_number   1
_chemical_formula_structural   V51Zn51O256
_chemical_formula_sum   'V51 Zn51 O256'
_cell_volume   5490.41513880
_cell_formula_units_Z   1
loop_
 _symmetry_equiv_pos_site_id
 _symmetry_equiv_pos_as_xyz
  1  'x, y, z'
loop_
 _atom_site_type_symbol
 _atom_site_label
 _atom_site_symmetry_multiplicity
 _atom_site_fract_x
 _atom_site_fract_y
 _atom_site_fract_z
 _atom_site_occupancy
  V  V0  1  0.92438612  -0.01271743  0.31805013  1
  V  V1  1  0.86806720  0.74952891  0.16638613  1
  V  V2  1  0.53737835  0.55672802  0.54767812  1
  V  V3  1  0.39720154  0.50903875  0.89629539  1
  V  V4  1  0.39743692  0.85970046  0.59067123  1
  V  V5  1  -0.01440199  0.60626051  0.10867926  1
  V  V6  1  -0.03992688  0.08964242  0.57344236  1
  V  V7  1  0.08536069  0.65910725  0.33774662  1
  V  V8  1  0.77197726  0.39015879  0.60768244  1
  V  V9  1  0.86755238  0.13827762  0.78716276  1
  V  V10  1  -0.03220337  0.34827381  0.40855459  1
  V  V11  1  0.41589824  0.85576256  -0.04163367  1
  V  V12  1  0.25444478  -0.05926101  0.23113094  1
  V  V13  1  0.20809519  0.09451984  0.35428174  1
  V  V14  1  0.74584909  0.75375148  0.43645562  1
  V  V15  1  0.59194684  0.75982084  0.34992689  1
  V  V16  1  0.50413222  0.42972825  0.42054596  1
  V  V17  1  0.88305273  0.14940090  0.23232136  1
  V  V18  1  0.72372653  0.85675838  0.64744079  1
  V  V19  1  -0.02475511  0.62262554  0.62793842  1
  V  V20  1  0.50866453  -0.01120882  0.55050534  1
  V  V21  1  0.39809957  0.33454163  0.06619614  1
  V  V22  1  0.22967975  0.57308701  0.45265932  1
  V  V23  1  0.36122300  0.00964117  0.88354487  1
  V  V24  1  0.85632130  0.89136769  0.43750236  1
  V  V25  1  0.61437700  0.29897416  0.39595219  1
  V  V26  1  0.57200482  0.92391438  0.87713800  1
  V  V27  1  0.51673381  0.03302947  0.00790365  1
  V  V28  1  0.51193200  0.30313297  0.75176876  1
  V  V29  1  0.66086948  0.39413325  0.79808115  1
  V  V30  1  0.17970811  0.84780133  0.09247428  1
  V  V31  1  0.11900607  0.41079956  0.60473921  1
  V  V32  1  0.16337857  -0.01853320  0.59763051  1
  V  V33  1  0.89604193  0.78799873  0.66464804  1
  V  V34  1  0.02779864  0.22626129  0.79991615  1
  V  V35  1  0.27726057  0.19888393  0.07640123  1
  V  V36  1  0.13881676  0.38090722  0.82880499  1
  V  V37  1  0.59826548  0.86983554  0.21746287  1
  V  V38  1  0.02660571  0.28247563  0.18441428  1
  V  V39  1  0.03219960  0.84514504  0.35960096  1
  V  V40  1  0.14118791  0.93449472  0.74685444  1
  V  V41  1  0.34807394  0.63978569  0.75020009  1
  V  V42  1  0.69957870  0.09451232  0.41408798  1
  V  V43  1  0.74142277  0.50731510  0.27187052  1
  V  V44  1  0.73054569  0.00123470  0.24010132  1
  V  V45  1  0.02318114  0.00422161  0.02261943  1
  V  V46  1  0.35650789  0.58847148  0.24454710  1
  V  V47  1  0.66704861  0.53240180  0.65252312  1
  V  V48  1  0.62575830  0.52930330  0.13132198  1
  V  V49  1  0.21919752  0.46255786  0.22901610  1
  V  V50  1  0.86235761  0.89720403  -0.02590859  1
  Zn  Zn51  1  0.07378983  1.01108815  0.43978374  1
  Zn  Zn52  1  0.97712285  1.01735215  0.74271636  1
  Zn  Zn53  1  0.86862716  0.33902311  0.75423439  1
  Zn  Zn54  1  0.42447731  0.93064998  0.13739801  1
  Zn  Zn55  1  0.71651805  0.26122480  0.72760969  1
  Zn  Zn56  1  0.31816457  -0.00289188  0.48801993  1
  Zn  Zn57  1  0.56360900  0.15607252  0.49735072  1
  Zn  Zn58  1  0.68884573  0.94350102  0.06748036  1
  Zn  Zn59  1  0.86437226  0.00623185  0.12487770  1
  Zn  Zn60  1  0.94589402  0.42263771  0.59793268  1
  Zn  Zn61  1  0.18821060  0.93087382  0.91774239  1
  Zn  Zn62  1  0.46722116  0.44656955  0.22722885  1
  Zn  Zn63  1  0.23945505  0.74629238  0.23760207  1
  Zn  Zn64  1  0.11469413  0.15735759  0.64321012  1
  Zn  Zn65  1  0.74457742  0.21002425  0.29464629  1
  Zn  Zn66  1  0.17555566  0.58709608  0.64693349  1
  Zn  Zn67  1  0.90684573  0.70838782  1.00599466  1
  Zn  Zn68  1  0.99584280  0.89594473  0.16630660  1
  Zn  Zn69  1  0.45979378  0.92859840  0.73136506  1
  Zn  Zn70  1  0.32319120  0.43845483  0.35544492  1
  Zn  Zn71  1  0.22167204  0.27524422  0.25589665  1
  Zn  Zn72  1  0.15570330  0.40487650  0.43103021  1
  Zn  Zn73  1  0.22627998  0.33888104  0.99800638  1
  Zn  Zn74  1  0.69791486  0.47550910  0.46102534  1
  Zn  Zn75  1  0.81092452  0.81640347  0.28564856  1
  Zn  Zn76  1  0.06500074  0.75271243  0.19303056  1
  Zn  Zn77  1  0.49921053  0.47377614  0.03798538  1
  Zn  Zn78  1  0.02181766  0.26781209  0.54562642  1
  Zn  Zn79  1  0.48039946  0.08805354  0.82334042  1
  Zn  Zn80  1  0.08455949  0.21121854  0.00634026  1
  Zn  Zn81  1  0.87052466  0.34890646  0.24605603  1
  Zn  Zn82  1  0.43309570  0.18678842  0.95375402  1
  Zn  Zn83  1  0.95569433  0.74557108  0.47756504  1
  Zn  Zn84  1  0.32396821  0.35880912  0.78798712  1
  Zn  Zn85  1  0.53686011  0.57887503  0.33920824  1
  Zn  Zn86  1  0.79541968  0.01579094  0.55598536  1
  Zn  Zn87  1  0.01706515  0.47333606  0.24595666  1
  Zn  Zn88  1  0.80426126  0.57464834  0.12605316  1
  Zn  Zn89  1  0.59059208  0.32791658  0.57492946  1
  Zn  Zn90  1  0.82168761  0.92996287  0.78289867  1
  Zn  Zn91  1  0.00270738  0.15149341  0.38882875  1
  Zn  Zn92  1  0.69231797  0.68938983  0.23013758  1
  Zn  Zn93  1  0.57614246  0.76114458  0.54661076  1
  Zn  Zn94  1  0.50268538  0.50026257  0.74352637  1
  Zn  Zn95  1  0.32525720  0.50431373  0.07965134  1
  Zn  Zn96  1  0.31084035  0.84279647  0.78564644  1
  Zn  Zn97  1  0.65145312  0.92813241  0.41162847  1
  Zn  Zn98  1  0.96431602  0.12738121  0.91484863  1
  Zn  Zn99  1  0.05531002  0.52495175  0.74701940  1
  Zn  Zn100  1  0.68787854  0.46101522  0.98925457  1
  Zn  Zn101  1  -0.00637606  0.91145273  0.55674850  1
  O  O102  1  0.13523905  0.10871925  0.15852531  1
  O  O103  1  0.15231351  0.07795535  0.58180698  1
  O  O104  1  0.07400414  0.57949515  0.11551798  1
  O  O105  1  0.12827782  0.48615628  0.67207344  1
  O  O106  1  0.64412731  0.16433662  0.15357693  1
  O  O107  1  0.60545913  0.10341552  0.71877134  1
  O  O108  1  0.62828117  0.62240834  0.15203977  1
  O  O109  1  0.69199904  0.61998941  0.66980471  1
  O  O110  1  0.40795629  0.42662629  0.42565158  1
  O  O111  1  0.34784715  0.43094687  0.86942058  1
  O  O112  1  0.36914956  0.84715647  0.39324003  1
  O  O113  1  0.35946518  0.89201119  0.87529910  1
  O  O114  1  0.89109406  0.33321219  0.35432683  1
  O  O115  1  0.94331541  0.42749903  0.77288652  1
  O  O116  1  0.89627414  0.87628152  0.33845582  1
  O  O117  1  0.85515388  0.93322225  0.88573517  1
  O  O118  1  0.21379440  0.01886216  0.28604738  1
  O  O119  1  0.26521239  0.01020861  0.89975554  1
  O  O120  1  0.24074134  0.47308801  0.42348817  1
  O  O121  1  0.22086764  0.56429936  0.93883304  1
  O  O122  1  0.70528839  0.01465321  0.35254014  1
  O  O123  1  0.68275248  0.11456495  0.88945296  1
  O  O124  1  0.72571073  0.51928275  0.36600131  1
  O  O125  1  0.79004535  0.51554124  0.90536846  1
  O  O126  1  0.24243550  0.45952124  0.13431481  1
  O  O127  1  0.19624404  0.35821387  0.60454945  1
  O  O128  1  0.20587137  0.93428120  0.14337260  1
  O  O129  1  0.25040976  0.95860167  0.56539713  1
  O  O130  1  0.72356667  0.51064491  0.08771102  1
  O  O131  1  0.76147065  0.47918158  0.64865688  1
  O  O132  1  0.75562996  1.00699883  0.13842889  1
  O  O133  1  0.73223765  0.93932727  0.59915882  1
  O  O134  1  -0.02623231  0.36937609  0.20348254  1
  O  O135  1  0.05852661  0.32378592  0.79627275  1
  O  O136  1  0.02941823  0.84031610  0.25895138  1
  O  O137  1  0.05590772  0.95804268  0.78745313  1
  O  O138  1  0.52373515  0.46365776  0.32308635  1
  O  O139  1  0.54539353  0.39991884  0.77005004  1
  O  O140  1  0.50518778  0.88443904  0.19971481  1
  O  O141  1  0.54311020  0.89134587  0.78999937  1
  O  O142  1  0.50950577  0.13568586  0.22173119  1
  O  O143  1  0.50141537  0.19744293  0.79559667  1
  O  O144  1  0.44542730  0.60459492  0.28388530  1
  O  O145  1  0.43637288  0.68352257  0.76835177  1
  O  O146  1  0.97430390  0.21204235  0.23273480  1
  O  O147  1  0.97907374  0.11817847  0.79833872  1
  O  O148  1  0.94268056  0.54639853  0.19516975  1
  O  O149  1  1.06416445  0.61968188  0.67370986  1
  O  O150  1  0.37331276  0.23380614  0.03678544  1
  O  O151  1  0.38073876  0.36213141  0.59702127  1
  O  O152  1  0.40754734  0.76341519  -0.05280586  1
  O  O153  1  0.32919746  0.81456355  0.54798186  1
  O  O154  1  0.83527409  0.29488183  -0.05509158  1
  O  O155  1  0.84441780  0.23475407  0.50450763  1
  O  O156  1  0.89883963  0.80563265  -0.03314162  1
  O  O157  1  0.84963503  0.78285238  0.45576276  1
  O  O158  1  0.19511641  0.24795995  0.50568033  1
  O  O159  1  0.19659442  0.23150945  1.01935966  1
  O  O160  1  0.18931821  0.77055614  0.49096486  1
  O  O161  1  0.15235767  0.70526433  0.97063380  1
  O  O162  1  0.60861914  0.25405801  0.49076850  1
  O  O163  1  0.60711782  0.19809721  1.10548658  1
  O  O164  1  0.64016289  0.77728948  0.44895457  1
  O  O165  1  0.54651176  0.64137673  0.93510753  1
  O  O166  1  0.47965550  0.19285137  0.19548800  1
  O  O167  1  0.53210392  0.28492212  0.65910642  1
  O  O168  1  0.47090902  0.72166246  0.12322520  1
  O  O169  1  0.47995382  0.81260296  0.57331633  1
  O  O170  1  1.03459649  0.26166778  0.08947007  1
  O  O171  1  1.00275962  0.17449722  0.60730533  1
  O  O172  1  0.98086564  0.70037778  0.14754689  1
  O  O173  1  0.96358183  0.81491408  0.60093353  1
  O  O174  1  -0.00159904  0.25145484  0.43744568  1
  O  O175  1  0.04143868  0.21369280  0.89953788  1
  O  O176  1  0.02500778  0.73393099  0.37856429  1
  O  O177  1  0.06680036  0.64180471  0.89667400  1
  O  O178  1  0.52170610  0.32896349  0.37779317  1
  O  O179  1  0.49101932  0.24767252  0.85854184  1
  O  O180  1  0.50293067  0.76472049  0.37033121  1
  O  O181  1  0.55147977  0.70707809  0.91307952  1
  O  O182  1  0.27059494  0.07019263  0.42621334  1
  O  O183  1  0.27629813  0.10691818  1.08493665  1
  O  O184  1  0.21485299  0.58704973  0.54767301  1
  O  O185  1  0.24223266  0.58306121  1.00296578  1
  O  O186  1  0.71316279  0.06810644  0.50621086  1
  O  O187  1  0.73885983  0.18070711  1.01833220  1
  O  O188  1  0.74891336  0.66973371  0.47379797  1
  O  O189  1  0.69236725  0.69849135  0.97251721  1
  O  O190  1  0.31757715  0.38489707  0.03222747  1
  O  O191  1  0.18060350  0.28549382  0.44310873  1
  O  O192  1  0.19991711  0.85990338  -0.00100236  1
  O  O193  1  0.32102077  0.89777333  0.39868611  1
  O  O194  1  0.75360458  0.36540643  0.01323500  1
  O  O195  1  0.77556837  0.40844545  0.51494961  1
  O  O196  1  0.77745497  0.89875881  0.01698230  1
  O  O197  1  0.75628710  0.88271927  0.43543966  1
  O  O198  1  0.12294652  0.46063127  0.23065374  1
  O  O199  1  0.10844817  0.47346359  0.82834573  1
  O  O200  1  0.08705927  1.10035678  0.20732448  1
  O  O201  1  0.18252781  1.01397887  0.70684945  1
  O  O202  1  0.65652031  0.48349060  0.22165293  1
  O  O203  1  0.66222478  0.48118112  0.74899698  1
  O  O204  1  0.63628758  0.97955363  0.22686913  1
  O  O205  1  0.65047977  1.05287831  0.70087868  1
  O  O206  1  0.34735893  -0.04467519  0.21299370  1
  O  O207  1  0.40522626  0.00818263  0.78915768  1
  O  O208  1  0.36826235  0.47870470  0.26456800  1
  O  O209  1  0.39916641  0.55136443  0.72783367  1
  O  O210  1  0.92063528  -0.02667855  0.21875578  1
  O  O211  1  0.86411168  0.03855302  0.75573728  1
  O  O212  1  0.80830007  0.43953134  0.25017120  1
  O  O213  1  0.91155795  0.49126936  0.80460513  1
  O  O214  1  0.06721128  0.37077241  0.36478509  1
  O  O215  1  0.15708863  0.35749473  0.92116249  1
  O  O216  1  0.12006161  0.85971393  0.38325971  1
  O  O217  1  0.20394507  0.88370663  0.80926335  1
  O  O218  1  0.66463669  0.37900714  0.40921841  1
  O  O219  1  0.65988506  0.41871987  0.89007981  1
  O  O220  1  0.61417159  0.86836748  0.32691895  1
  O  O221  1  0.66305818  0.90755305  0.88911637  1
  O  O222  1  0.41902991  0.15313826  0.34862955  1
  O  O223  1  0.32108982  0.19072650  0.61858245  1
  O  O224  1  0.36673692  0.57991929  0.14752424  1
  O  O225  1  0.35586385  0.66189274  0.65542034  1
  O  O226  1  0.89760771  0.11483752  0.14497196  1
  O  O227  1  0.86474392  0.09769468  0.58305290  1
  O  O228  1  0.84664722  0.67263439  0.09467838  1
  O  O229  1  0.91635108  0.68805471  0.68333779  1
  O  O230  1  0.27282187  0.24381605  0.16146356  1
  O  O231  1  0.13214307  0.22672391  0.54628880  1
  O  O232  1  0.22894111  0.77312458  0.12819434  1
  O  O233  1  0.12959611  0.74842397  0.51809318  1
  O  O234  1  0.77438640  0.20689036  0.07204018  1
  O  O235  1  0.78469976  0.23358389  0.53918494  1
  O  O236  1  0.76983852  0.76576050  0.18532711  1
  O  O237  1  0.80555584  0.79517829  0.62258701  1
  O  O238  1  0.34310214  0.24440971  0.47456161  1
  O  O239  1  0.29410244  0.23334758  0.84904864  1
  O  O240  1  0.14999243  0.62432533  0.40372053  1
  O  O241  1  0.19664810  0.72183118  0.92040253  1
  O  O242  1  0.76235636  0.16620792  0.39270122  1
  O  O243  1  0.77108475  0.32860729  0.94735371  1
  O  O244  1  0.74233934  0.74383814  0.33872423  1
  O  O245  1  0.62741851  0.76001786  0.78391356  1
  O  O246  1  0.02407024  0.10457147  0.00493014  1
  O  O247  1  -0.01372693  0.07885737  0.47897131  1
  O  O248  1  -0.03213157  0.62017526  0.01057497  1
  O  O249  1  -0.02017272  0.65938846  0.53927642  1
  O  O250  1  0.51650951  0.13117755  -0.00268554  1
  O  O251  1  0.50330855  0.08755548  0.54755681  1
  O  O252  1  0.51962595  0.72166754  0.07483405  1
  O  O253  1  0.54979265  0.65329620  0.54668914  1
  O  O254  1  0.53844910  0.40290330  0.51194603  1
  O  O255  1  0.47268623  0.36424948  1.01431509  1
  O  O256  1  0.44936254  0.97858168  0.35156850  1
  O  O257  1  0.51883000  0.87105311  0.94837015  1
  O  O258  1  0.94119495  0.38757405  0.49162428  1
  O  O259  1  0.96843262  0.41908891  0.99617147  1
  O  O260  1  0.97796227  0.85586626  0.45287151  1
  O  O261  1  1.02033148  0.78758678  0.85392558  1
  O  O262  1  0.54207689  0.53021715  0.44325961  1
  O  O263  1  0.48348231  0.51348127  0.85662941  1
  O  O264  1  0.49981182  1.01739143  0.32395687  1
  O  O265  1  0.54845497  1.02523124  0.88406607  1
  O  O266  1  1.01385861  0.43499414  0.35871199  1
  O  O267  1  0.95496749  0.55298149  0.79815654  1
  O  O268  1  1.01524224  0.96352228  0.35345678  1
  O  O269  1  1.05370934  0.77457584  0.79469617  1
  O  O270  1  0.04794834  -0.01653327  0.11192236  1
  O  O271  1  -0.01033048  0.01153510  0.62975394  1
  O  O272  1  -0.08768049  0.52211814  0.12276187  1
  O  O273  1  -0.05575855  0.52916533  0.62710642  1
  O  O274  1  0.47641612  0.01867070  0.09388489  1
  O  O275  1  0.52181417  -0.03636416  0.64184812  1
  O  O276  1  0.52942288  0.48890044  0.14692325  1
  O  O277  1  0.56025253  0.53261729  0.65635594  1
  O  O278  1  0.24744249  0.37888191  0.28832600  1
  O  O279  1  0.21884049  0.36582477  0.77545247  1
  O  O280  1  0.24222344  0.85412928  0.27115114  1
  O  O281  1  0.22428302  0.77351535  0.65137560  1
  O  O282  1  0.69254339  0.32392936  0.15962434  1
  O  O283  1  0.75909678  0.35911436  0.77875520  1
  O  O284  1  0.77242189  0.91861793  0.25960048  1
  O  O285  1  0.73305133  0.88067297  0.74161371  1
  O  O286  1  0.23125308  0.17906003  0.31517033  1
  O  O287  1  0.29836811  0.18460823  0.68377329  1
  O  O288  1  0.24878752  0.54898082  0.26714294  1
  O  O289  1  0.25610214  0.60104554  0.72515116  1
  O  O290  1  0.79263182  0.09742293  0.25265597  1
  O  O291  1  0.78826187  0.18054755  0.74570309  1
  O  O292  1  0.76642160  0.59682641  0.23158751  1
  O  O293  1  0.74739554  0.65860345  0.82981945  1
  O  O294  1  0.40952995  0.23917438  0.49472298  1
  O  O295  1  0.38586412  0.11306618  0.88753749  1
  O  O296  1  0.30846206  0.61399679  0.42898676  1
  O  O297  1  0.34328300  0.59556838  0.84341347  1
  O  O298  1  0.93708612  0.09754896  0.31210507  1
  O  O299  1  0.85695439  0.13760923  0.88323289  1
  O  O300  1  0.87716065  0.59952442  0.38485928  1
  O  O301  1  0.75157777  0.72707804  0.94982737  1
  O  O302  1  0.11965177  0.46568392  0.03081144  1
  O  O303  1  0.03343501  0.35211957  0.61717409  1
  O  O304  1  0.08360026  0.82863973  0.11199118  1
  O  O305  1  0.12523730  0.89400602  0.65791679  1
  O  O306  1  0.63625488  0.32427171  0.11843902  1
  O  O307  1  0.69413144  0.32788587  0.62927951  1
  O  O308  1  0.64538767  0.86589451  0.13366768  1
  O  O309  1  0.64413123  0.80766113  0.62133448  1
  O  O310  1  0.11400882  0.28236492  0.22364279  1
  O  O311  1  0.09781581  0.19000372  0.74236776  1
  O  O312  1  0.13464048  0.70446537  0.26274277  1
  O  O313  1  0.17276922  0.72869012  0.66781151  1
  O  O314  1  0.64806923  0.25401674  0.31544283  1
  O  O315  1  0.62597822  0.29306912  0.78247964  1
  O  O316  1  0.60469670  0.76633034  0.23845584  1
  O  O317  1  0.60186723  0.70908790  0.74442837  1
  O  O318  1  0.40397671  0.21797684  0.32785173  1
  O  O319  1  0.41574693  0.32689680  0.74760118  1
  O  O320  1  0.31616090  0.67765802  0.25981712  1
  O  O321  1  0.30734242  0.72607879  0.78043533  1
  O  O322  1  0.83100885  0.24037025  0.23442454  1
  O  O323  1  0.92607782  0.24290865  0.77341563  1
  O  O324  1  0.89333450  0.73679058  0.25813504  1
  O  O325  1  0.89762708  0.84992317  0.73812060  1
  O  O326  1  0.44702421  0.53717609  0.55929566  1
  O  O327  1  0.40340222  0.51709312  0.99595619  1
  O  O328  1  0.40918430  0.95387667  0.53370191  1
  O  O329  1  0.42233382  0.99038920  0.96091066  1
  O  O330  1  0.88874671  0.54027611  0.41905053  1
  O  O331  1  0.83665637  0.56537276  0.92330065  1
  O  O332  1  0.85904403  0.99531178  0.39166214  1
  O  O333  1  0.92058025  0.97262860  1.02669269  1
  O  O334  1  0.08238102  -0.03702458  -0.04058532  1
  O  O335  1  0.09663991  -0.05171591  0.52479939  1
  O  O336  1  0.09339909  0.50437028  -0.01997182  1
  O  O337  1  0.10612982  0.45033439  0.51650553  1
  O  O338  1  0.60870749  0.00227840  0.02213595  1
  O  O339  1  0.57299736  -0.04539954  0.48641839  1
  O  O340  1  0.59911364  0.51376836  0.02653091  1
  O  O341  1  0.65141424  0.51812677  0.55101463  1
  O  O342  1  0.41792114  0.36088336  0.15595118  1
  O  O343  1  0.33646478  0.39597958  0.55613475  1
  O  O344  1  0.38960981  0.87071774  0.05166931  1
  O  O345  1  0.37388988  0.86805499  0.69123251  1
  O  O346  1  0.89992003  0.41367167  0.00654939  1
  O  O347  1  0.86181549  0.35763715  0.64135275  1
  O  O348  1  0.90403596  0.83598737  0.13315275  1
  O  O349  1  0.87845865  0.93790715  0.52299384  1
  O  O350  1  0.11232565  0.10037592  0.38569997  1
  O  O351  1  0.23941203  0.19272101  0.83106849  1
  O  O352  1  0.03312847  0.58777210  0.30379707  1
  O  O353  1  0.10071703  0.64217994  0.83637366  1
  O  O354  1  0.60626935  0.12377150  0.40312332  1
  O  O355  1  0.65504981  0.17836288  0.88750374  1
  O  O356  1  0.61107355  0.66006847  0.33424232  1
  O  O357  1  0.69160949  0.62173876  0.84864800  1
