# generated using pymatgen
data_V51Zn51O256
_symmetry_space_group_name_H-M   'P 1'
_cell_length_a   17.11184981
_cell_length_b   17.70489840
_cell_length_c   17.91854430
_cell_angle_alpha   88.59127959
_cell_angle_beta   90.38733829
_cell_angle_gamma   89.29258872
_symmetry_Int_Tables_number   1
_chemical_formula_structural   V51Zn51O256
_chemical_formula_sum   'V51 Zn51 O256'
_cell_volume   5426.47611780
_cell_formula_units_Z   1
loop_
 _symmetry_equiv_pos_site_id
 _symmetry_equiv_pos_as_xyz
  1  'x, y, z'
loop_
 _atom_site_type_symbol
 _atom_site_label
 _atom_site_symmetry_multiplicity
 _atom_site_fract_x
 _atom_site_fract_y
 _atom_site_fract_z
 _atom_site_occupancy
  V  V0  1  0.38845091  0.49453653  0.89435280  1
  V  V1  1  0.43503298  0.13086369  0.63784692  1
  V  V2  1  0.67148489  0.64199114  0.89853603  1
  V  V3  1  0.01601502  0.49215674  -0.02528628  1
  V  V4  1  0.08767951  0.80037796  0.36142677  1
  V  V5  1  0.29972614  0.59062475  0.38852825  1
  V  V6  1  0.35612723  0.35458025  0.00894052  1
  V  V7  1  0.59583965  0.18826825  0.84402453  1
  V  V8  1  -0.00941523  0.26291792  0.69732828  1
  V  V9  1  0.11181676  -0.00763895  0.61314438  1
  V  V10  1  0.32624363  0.24709097  0.13168473  1
  V  V11  1  0.24911981  0.15348081  0.37090924  1
  V  V12  1  0.10877702  0.75674038  0.85137368  1
  V  V13  1  0.25140373  0.00142824  0.27037273  1
  V  V14  1  0.30476029  0.73478451  -0.02779464  1
  V  V15  1  0.53783253  0.13119106  0.14892900  1
  V  V16  1  0.47522049  0.00399339  0.50868994  1
  V  V17  1  0.28580113  0.23217276  0.54400642  1
  V  V18  1  0.53545937  0.24777407  0.26798878  1
  V  V19  1  0.13041009  0.11383556  0.49184289  1
  V  V20  1  0.90173125  0.70727698  0.08585120  1
  V  V21  1  0.85200119  0.04889037  0.81192728  1
  V  V22  1  0.87519515  0.92874803  -0.02261109  1
  V  V23  1  0.71032106  0.23215742  -0.02693267  1
  V  V24  1  0.61975792  0.06123332  0.43656611  1
  V  V25  1  0.50115967  0.34374812  0.89849605  1
  V  V26  1  0.13971796  0.66361789  0.00673378  1
  V  V27  1  0.50020316  0.75817955  0.26432862  1
  V  V28  1  0.74541902  0.35144477  0.13706957  1
  V  V29  1  0.49477767  0.37368852  0.36375332  1
  V  V30  1  0.83162169  0.38121191  -0.04172690  1
  V  V31  1  0.50590574  -0.00542252  0.06583794  1
  V  V32  1  0.12132418  -0.01984366  0.12617151  1
  V  V33  1  0.00760087  0.92785892  0.84553697  1
  V  V34  1  0.45899647  0.63739545  0.15734606  1
  V  V35  1  0.87803964  0.82878419  0.55260573  1
  V  V36  1  0.66002164  0.85682625  0.19630112  1
  V  V37  1  0.60286722  0.88963407  0.72140181  1
  V  V38  1  0.70939622  0.71965426  0.58327386  1
  V  V39  1  0.25383877  0.60957115  0.87528901  1
  V  V40  1  0.90865785  0.61841370  0.32820874  1
  V  V41  1  0.24584655  0.51283832  0.72432597  1
  V  V42  1  0.25875810  0.84561713  0.18364247  1
  V  V43  1  0.77219466  0.00032409  0.24840320  1
  V  V44  1  -0.01050388  0.00319263  0.46675108  1
  V  V45  1  0.23786279  0.85155910  0.59138509  1
  V  V46  1  0.37401025  0.12932808  0.24972740  1
  V  V47  1  0.72032652  0.59578325  0.37333749  1
  V  V48  1  0.46570058  0.77819035  0.77490961  1
  V  V49  1  0.73039228  0.35572247  0.63532421  1
  V  V50  1  0.58642187  0.80066905  0.89935040  1
  Zn  Zn51  1  0.41562514  0.89545849  0.63309568  1
  Zn  Zn52  1  0.51645591  0.57847481  0.34517482  1
  Zn  Zn53  1  0.06120648  0.47863170  0.80910278  1
  Zn  Zn54  1  0.96948491  0.21226096  0.50108504  1
  Zn  Zn55  1  0.13567481  0.85715085  0.98312435  1
  Zn  Zn56  1  0.90680894  0.44812396  0.68600379  1
  Zn  Zn57  1  0.85087524  0.10737774  -0.03057151  1
  Zn  Zn58  1  0.93280413  0.96396110  0.67149255  1
  Zn  Zn59  1  0.81833610  0.76292429  0.39253764  1
  Zn  Zn60  1  0.09365564  0.61683238  0.33053684  1
  Zn  Zn61  1  0.20291046  0.12551734  0.15717742  1
  Zn  Zn62  1  0.78135421  0.69701577  0.23013202  1
  Zn  Zn63  1  0.53357014  0.59499423  0.81997209  1
  Zn  Zn64  1  0.26826630  0.73287834  0.73229594  1
  Zn  Zn65  1  0.62267816  0.72124234  0.42089166  1
  Zn  Zn66  1  0.31991548  0.36411969  0.79161760  1
  Zn  Zn67  1  1.01214873  0.57310645  0.16532892  1
  Zn  Zn68  1  0.43997275  0.17925656  0.43320145  1
  Zn  Zn69  1  0.31392121  0.56524876  0.56079956  1
  Zn  Zn70  1  0.07778860  0.05798424  0.31517654  1
  Zn  Zn71  1  0.15228963  0.69648999  0.20267510  1
  Zn  Zn72  1  0.71575697  0.93932678  0.85109200  1
  Zn  Zn73  1  0.78703457  0.54431527  0.61151248  1
  Zn  Zn74  1  0.52434608  0.30070511  0.57753803  1
  Zn  Zn75  1  0.05810280  0.82861338  0.53653511  1
  Zn  Zn76  1  0.32710486  0.55552980  0.05055455  1
  Zn  Zn77  1  0.66994906  0.46107692  0.88716325  1
  Zn  Zn78  1  0.50381065  0.04980409  0.79366833  1
  Zn  Zn79  1  0.18991469  0.39817492  0.89763332  1
  Zn  Zn80  1  0.58578108  0.86816693  0.53262647  1
  Zn  Zn81  1  0.20098821  0.25765323  0.73293578  1
  Zn  Zn82  1  0.80947839  0.11245470  0.47475931  1
  Zn  Zn83  1  0.40795159  0.14175973  1.01091317  1
  Zn  Zn84  1  0.42363441  0.81676361  0.08671024  1
  Zn  Zn85  1  0.71356413  0.17943338  0.21702560  1
  Zn  Zn86  1  0.50988782  0.68785266  1.00019141  1
  Zn  Zn87  1  0.11999347  0.31306058  0.50181963  1
  Zn  Zn88  1  0.31400470  0.31852858  0.30873049  1
  Zn  Zn89  1  0.80862008  0.95595145  0.43194752  1
  Zn  Zn90  1  -0.03114589  0.76171412  -0.06734461  1
  Zn  Zn91  1  0.33161017  -0.01558338  0.09633556  1
  Zn  Zn92  1  0.43852446  0.45481109  0.71798057  1
  Zn  Zn93  1  0.19641430  0.93882384  0.43469723  1
  Zn  Zn94  1  -0.08059878  0.43689382  0.09184290  1
  Zn  Zn95  1  0.71039931  0.77048007  0.77063337  1
  Zn  Zn96  1  0.10102499  0.08459884  0.77350126  1
  Zn  Zn97  1  0.67941186  0.41441505  0.45419794  1
  Zn  Zn98  1  0.56199994  0.30332806  0.07506755  1
  Zn  Zn99  1  0.67030598  0.91843401  1.01019849  1
  Zn  Zn100  1  0.96537161  0.87289074  0.13646453  1
  Zn  Zn101  1  0.90864662  0.23450082  0.84668126  1
  O  O102  1  0.10961137  0.07807227  0.11892227  1
  O  O103  1  0.16646832  0.07338490  0.58355484  1
  O  O104  1  0.14105920  0.69306761  0.09501649  1
  O  O105  1  0.00841326  0.61364320  0.70532507  1
  O  O106  1  0.63505283  0.12628432  0.15432998  1
  O  O107  1  0.70359607  0.20608921  0.45664082  1
  O  O108  1  0.69599159  0.53844826  0.13161712  1
  O  O109  1  0.51367294  0.58430139  0.65773243  1
  O  O110  1  0.39443317  0.36940419  0.36061613  1
  O  O111  1  0.39265798  0.37810762  0.89731291  1
  O  O112  1  0.39549782  0.85196111  0.41819674  1
  O  O113  1  0.37931517  0.95341871  0.86279610  1
  O  O114  1  0.94045230  0.39475875  0.34014102  1
  O  O115  1  0.77934845  0.44471766  0.90474464  1
  O  O116  1  0.84455349  0.84689959  0.45637323  1
  O  O117  1  0.89634304  0.96987705  0.85639811  1
  O  O118  1  0.25587037  0.00969842  0.36624986  1
  O  O119  1  0.15399886  0.13496615  0.97543295  1
  O  O120  1  0.29400068  0.52570627  0.31882256  1
  O  O121  1  0.23017165  0.51712750  0.89061890  1
  O  O122  1  0.81532895  -0.04337924  0.32385104  1
  O  O123  1  0.75378261  0.03707860  0.81951525  1
  O  O124  1  0.71174319  0.50149237  0.40448899  1
  O  O125  1  0.64585350  0.55843320  0.84417353  1
  O  O126  1  0.23698489  0.48046435  0.10549448  1
  O  O127  1  0.24483276  0.56565710  0.64213451  1
  O  O128  1  0.24233953  1.01430836  0.14900319  1
  O  O129  1  0.23183295  1.04066705  0.85631597  1
  O  O130  1  0.62829007  0.49155248  0.01163100  1
  O  O131  1  0.71152380  0.45912292  0.63184779  1
  O  O132  1  0.79668812  1.00448771  0.14081346  1
  O  O133  1  0.75366158  1.10832255  0.61394855  1
  O  O134  1  -0.06939951  0.35110920  0.28910696  1
  O  O135  1  -0.03577011  0.35124528  0.65591010  1
  O  O136  1  0.00478303  0.82658284  0.28326581  1
  O  O137  1  -0.01104410  0.90580631  0.75647322  1
  O  O138  1  0.52960977  0.34890425  0.26957605  1
  O  O139  1  0.48255317  0.36545027  0.78456346  1
  O  O140  1  0.56337649  0.82891915  0.21640996  1
  O  O141  1  0.49064052  0.85367637  0.70225242  1
  O  O142  1  0.47918279  0.14336191  0.24799450  1
  O  O143  1  0.43837790  0.11560353  0.73376299  1
  O  O144  1  0.49671070  0.64649007  0.25555203  1
  O  O145  1  0.48657751  0.68403815  0.76851143  1
  O  O146  1  1.01793494  0.12868841  0.24511338  1
  O  O147  1  1.02291415  0.17022426  0.73475416  1
  O  O148  1  0.99588321  0.62301175  0.37849459  1
  O  O149  1  0.94442892  0.64561222  0.70532183  1
  O  O150  1  0.36472824  0.24450315  0.03063016  1
  O  O151  1  0.37542199  0.24652281  0.50020819  1
  O  O152  1  0.40103642  0.74179633  0.00746164  1
  O  O153  1  0.44596861  0.69028105  0.53886116  1
  O  O154  1  0.86349882  0.31191370  -0.09879728  1
  O  O155  1  0.80522531  0.29053301  0.36681694  1
  O  O156  1  0.88527829  0.72992296  -0.00938480  1
  O  O157  1  0.96196382  0.77923576  0.57234484  1
  O  O158  1  0.12071182  0.20179672  0.52756835  1
  O  O159  1  0.05463882  0.27141657  0.94091411  1
  O  O160  1  0.08579638  0.76719911  0.45279921  1
  O  O161  1  0.08533068  0.75142872  0.96861715  1
  O  O162  1  0.63743101  0.17744331  0.47060379  1
  O  O163  1  0.62225524  0.22919149  1.01390185  1
  O  O164  1  0.63400458  0.76498146  0.52210873  1
  O  O165  1  0.57242010  0.78181909  0.99227180  1
  O  O166  1  0.52306416  0.24046314  0.16125847  1
  O  O167  1  0.49549840  0.20309965  0.60768839  1
  O  O168  1  0.46098648  0.73643086  0.15336613  1
  O  O169  1  0.57163265  0.62509068  0.64869191  1
  O  O170  1  0.98800967  0.29733040  0.14460513  1
  O  O171  1  0.97528583  0.21976406  0.61244298  1
  O  O172  1  0.96644425  0.76840332  0.13108973  1
  O  O173  1  0.96699511  0.59170749  0.52515406  1
  O  O174  1  0.05296457  0.26200995  0.31848259  1
  O  O175  1  -0.00757377  0.30093857  0.79136641  1
  O  O176  1  -0.02083896  0.83590540  0.35338534  1
  O  O177  1  0.01546112  0.73372328  0.83186335  1
  O  O178  1  0.49135383  0.24331738  0.35693299  1
  O  O179  1  0.51400593  0.24829522  0.88165361  1
  O  O180  1  0.54210005  0.75745058  0.35303786  1
  O  O181  1  0.48059631  0.80421311  0.87150446  1
  O  O182  1  0.25127743  0.14966939  0.47397681  1
  O  O183  1  0.19713567  0.17820028  0.94099492  1
  O  O184  1  0.31147497  0.51370766  0.46291472  1
  O  O185  1  0.25484940  0.64382114  1.00184256  1
  O  O186  1  0.72419587  0.04576211  0.45988778  1
  O  O187  1  0.77595287  0.16676772  1.01273025  1
  O  O188  1  0.72698698  0.62444820  0.57120659  1
  O  O189  1  0.70851019  0.61857701  0.97926019  1
  O  O190  1  0.26341714  0.35541677  -0.02496606  1
  O  O191  1  0.22902443  0.30486692  0.50020786  1
  O  O192  1  0.24200402  0.80725242  -0.00942396  1
  O  O193  1  0.24915657  0.85981463  0.49675537  1
  O  O194  1  0.74209075  0.32457794  -0.01203582  1
  O  O195  1  0.75201097  0.38382982  0.53486060  1
  O  O196  1  0.77323802  0.92603364  -0.04778413  1
  O  O197  1  0.80256611  0.76251552  0.57738453  1
  O  O198  1  0.10113172  0.59996222  0.22493685  1
  O  O199  1  0.15041802  0.50273464  0.75260819  1
  O  O200  1  0.14956516  1.00151599  0.25413628  1
  O  O201  1  0.12688308  1.00407787  0.70571772  1
  O  O202  1  0.63692121  0.52923203  0.16814783  1
  O  O203  1  0.52181764  0.53042895  0.72403565  1
  O  O204  1  0.68315524  0.94718586  0.23528331  1
  O  O205  1  0.57456361  0.97538635  0.75199964  1
  O  O206  1  0.36483936  0.03366804  0.24667106  1
  O  O207  1  0.34819580  -0.03305448  0.79910836  1
  O  O208  1  0.44299449  0.45975645  0.17369186  1
  O  O209  1  0.35334276  0.48545025  0.79581830  1
  O  O210  1  0.86153015  -0.01017832  0.18356576  1
  O  O211  1  0.88299678  0.04741554  0.72172598  1
  O  O212  1  0.92705932  0.57125030  0.24749509  1
  O  O213  1  0.96522557  0.45137927  0.77257774  1
  O  O214  1  0.08157986  0.31048322  0.35776593  1
  O  O215  1  0.21723455  0.33261544  0.81460954  1
  O  O216  1  0.14621122  0.87599874  0.35959014  1
  O  O217  1  0.09781775  0.86176360  0.87100105  1
  O  O218  1  0.59544081  0.34401949  0.42478795  1
  O  O219  1  0.58902082  0.38688549  0.88822539  1
  O  O220  1  0.69348742  0.88955593  0.42226394  1
  O  O221  1  0.62536879  0.89110493  0.90694811  1
  O  O222  1  0.36103088  0.14737256  0.14389753  1
  O  O223  1  0.34207404  0.14543717  0.60556574  1
  O  O224  1  0.36656564  0.60572178  0.13607543  1
  O  O225  1  0.39754440  0.66626812  0.58547635  1
  O  O226  1  0.99167728  0.24200238  0.10471553  1
  O  O227  1  0.86437119  0.20002922  0.47996733  1
  O  O228  1  0.95061780  0.62191581  0.08809070  1
  O  O229  1  0.84155203  0.53714081  0.70585015  1
  O  O230  1  0.22877108  0.23023279  0.12661428  1
  O  O231  1  0.25879787  0.25601985  0.63689953  1
  O  O232  1  0.25216351  0.75076935  0.19845117  1
  O  O233  1  0.24979581  0.76020928  0.62494259  1
  O  O234  1  0.76356400  0.25785805  0.16360726  1
  O  O235  1  0.77806914  0.27453849  0.61268026  1
  O  O236  1  0.81258521  0.69963983  0.12960369  1
  O  O237  1  0.68606649  0.72883373  0.67378846  1
  O  O238  1  0.23694312  0.24598424  0.35215679  1
  O  O239  1  0.34348018  0.18570108  0.86685194  1
  O  O240  1  0.28114958  0.63701861  0.47967074  1
  O  O241  1  0.30282412  0.72237164  0.87973429  1
  O  O242  1  0.77107243  0.35190431  0.37216517  1
  O  O243  1  0.69413013  0.21454176  0.87591204  1
  O  O244  1  0.73816069  0.68860582  0.41782505  1
  O  O245  1  0.68296501  0.74640425  0.87845846  1
  O  O246  1  0.01452498  0.21451002  -0.07063828  1
  O  O247  1  0.02176226  0.11054837  0.48488248  1
  O  O248  1  0.09997001  0.57790285  0.00762836  1
  O  O249  1  0.02614609  0.60899328  0.55909646  1
  O  O250  1  0.51247639  0.13249844  0.05565557  1
  O  O251  1  0.51773161  0.09889233  0.46870070  1
  O  O252  1  0.51732208  0.61590388  0.08303696  1
  O  O253  1  0.58004783  0.53934001  0.53061684  1
  O  O254  1  0.52473821  0.34308801  0.46771138  1
  O  O255  1  0.48249720  0.34327348  0.99970674  1
  O  O256  1  0.47509552  0.90191576  0.54110416  1
  O  O257  1  0.49030525  0.90068349  1.07543808  1
  O  O258  1  1.01223306  0.31097916  0.48817871  1
  O  O259  1  0.93182872  0.42639511  0.97202106  1
  O  O260  1  0.98730797  0.90845362  0.49339397  1
  O  O261  1  0.95942526  0.87565118  0.93235967  1
  O  O262  1  0.51302519  0.46835427  0.36197718  1
  O  O263  1  0.48425855  0.50854039  0.88324614  1
  O  O264  1  0.43027432  0.89326093  0.37521545  1
  O  O265  1  0.45117393  0.98076718  0.87519303  1
  O  O266  1  1.08192740  0.46966982  0.37119042  1
  O  O267  1  1.08546485  0.44393277  0.91453940  1
  O  O268  1  1.00132864  1.00421521  0.37260434  1
  O  O269  1  1.04898036  1.01502424  0.84546391  1
  O  O270  1  0.03035236  -0.04748673  0.15905002  1
  O  O271  1  0.01232357  0.00822013  0.60312568  1
  O  O272  1  0.01353501  0.48518267  0.08426741  1
  O  O273  1  0.06893520  0.46146161  0.59488684  1
  O  O274  1  0.51574321  0.02807920  0.15894990  1
  O  O275  1  0.46425218  0.03859377  0.60221526  1
  O  O276  1  0.47992889  0.51190423  0.20204409  1
  O  O277  1  0.39950059  0.49938922  0.60690593  1
  O  O278  1  0.23371991  0.39453030  0.26847320  1
  O  O279  1  0.27667548  0.42668445  0.69517340  1
  O  O280  1  0.27933801  0.90360899  0.26312358  1
  O  O281  1  0.23031124  1.00762201  0.91721768  1
  O  O282  1  0.76049117  0.40205914  0.21128952  1
  O  O283  1  0.68376858  0.32885545  0.71588775  1
  O  O284  1  0.69955016  0.83447983  0.37888523  1
  O  O285  1  0.70450731  0.88199939  0.76065488  1
  O  O286  1  0.25055140  0.12097595  0.26339184  1
  O  O287  1  0.31185017  0.17252677  0.80445121  1
  O  O288  1  0.31031233  0.67546027  0.34280723  1
  O  O289  1  0.26577538  0.61773186  0.77833363  1
  O  O290  1  0.76001799  0.09303919  0.26844325  1
  O  O291  1  0.71811112  0.11401542  0.67343093  1
  O  O292  1  0.72577048  0.61155110  0.27900518  1
  O  O293  1  0.82582258  0.73932840  0.79381430  1
  O  O294  1  0.35882777  0.14509042  0.35409152  1
  O  O295  1  0.37199729  0.12259921  0.90587166  1
  O  O296  1  0.40450658  0.59011128  0.38858950  1
  O  O297  1  0.35827837  0.59024695  0.90968077  1
  O  O298  1  0.94893946  0.14724744  0.28085054  1
  O  O299  1  0.87846284  0.13233946  0.86377900  1
  O  O300  1  0.83747299  0.57787243  0.38415889  1
  O  O301  1  0.76711080  0.63016525  0.82574581  1
  O  O302  1  0.11232403  0.39160877  0.21887667  1
  O  O303  1  0.12171045  0.41329612  0.58571508  1
  O  O304  1  0.16874172  0.87586352  0.15599961  1
  O  O305  1  0.13390152  0.88651762  0.60234828  1
  O  O306  1  0.64644991  0.36281742  0.11320605  1
  O  O307  1  0.63496569  0.33393672  0.59678063  1
  O  O308  1  0.67729142  0.86403613  0.10319936  1
  O  O309  1  0.62753109  0.89367313  0.62960232  1
  O  O310  1  0.17905549  0.36027574  0.22249145  1
  O  O311  1  0.08959537  0.28354509  0.69011467  1
  O  O312  1  0.12667365  0.72606598  0.30774177  1
  O  O313  1  0.16437706  0.75919199  0.77377350  1
  O  O314  1  0.62982694  0.22503734  0.28219740  1
  O  O315  1  0.59185292  0.19699783  0.75352078  1
  O  O316  1  0.72127505  0.79168109  0.23767385  1
  O  O317  1  0.58640515  0.80044554  0.78325999  1
  O  O318  1  0.35213008  0.25275354  0.22935457  1
  O  O319  1  0.42013296  0.32401469  0.75445934  1
  O  O320  1  0.41385697  0.79513030  0.27651863  1
  O  O321  1  0.36721693  0.78129097  0.75415774  1
  O  O322  1  0.90737328  0.19808850  0.24893005  1
  O  O323  1  0.89236204  0.23674813  0.72923603  1
  O  O324  1  0.86731286  0.71290093  0.30870167  1
  O  O325  1  0.82943046  0.67567627  0.83482133  1
  O  O326  1  0.42061085  0.43571047  0.56876208  1
  O  O327  1  0.36705534  0.46835071  0.99779393  1
  O  O328  1  0.39306174  1.01019958  0.46221624  1
  O  O329  1  0.40688710  1.02799231  1.03221916  1
  O  O330  1  0.88258597  0.48776979  0.58870514  1
  O  O331  1  0.97971985  0.55988915  0.92198970  1
  O  O332  1  0.88660590  1.02518578  0.47670184  1
  O  O333  1  0.90237171  1.01876618  1.00042377  1
  O  O334  1  0.12541141  -0.05083949  0.03459074  1
  O  O335  1  0.11249840  -0.00101748  0.48583974  1
  O  O336  1  0.18314255  0.50939389  0.14206479  1
  O  O337  1  0.10775304  0.44806993  0.43317338  1
  O  O338  1  0.59289705  0.00069531  0.01986719  1
  O  O339  1  0.57793138  -0.02841521  0.47045961  1
  O  O340  1  0.56291872  0.47851612  0.03697212  1
  O  O341  1  0.57641800  0.47375586  0.50683166  1
  O  O342  1  0.34237903  0.35324684  0.10725982  1
  O  O343  1  0.46280620  0.38851757  0.61863404  1
  O  O344  1  0.32964303  0.87267008  0.11501852  1
  O  O345  1  0.30575553  0.90811379  0.63377738  1
  O  O346  1  0.82682538  0.39092080  0.07102495  1
  O  O347  1  0.81248003  0.38293827  0.69100260  1
  O  O348  1  0.87861170  0.88537655  0.06222157  1
  O  O349  1  0.86726480  0.90360956  0.60924759  1
  O  O350  1  0.14437364  0.12025585  0.38441579  1
  O  O351  1  0.16571460  0.16788262  0.78625173  1
  O  O352  1  0.19609702  0.58967327  0.37836689  1
  O  O353  1  0.16038727  0.66397624  0.89029776  1
  O  O354  1  0.61342612  0.06693618  0.34692421  1
  O  O355  1  0.57063099  0.09787254  0.86692659  1
  O  O356  1  0.61197107  0.61402407  0.38960180  1
  O  O357  1  0.56441462  0.66118554  0.90932921  1
