# generated using pymatgen
data_V51Zn51O256
_symmetry_space_group_name_H-M   'P 1'
_cell_length_a   17.25104855
_cell_length_b   17.39975467
_cell_length_c   17.25073770
_cell_angle_alpha   91.26422663
_cell_angle_beta   90.64405894
_cell_angle_gamma   90.69615209
_symmetry_Int_Tables_number   1
_chemical_formula_structural   V51Zn51O256
_chemical_formula_sum   'V51 Zn51 O256'
_cell_volume   5176.06505135
_cell_formula_units_Z   1
loop_
 _symmetry_equiv_pos_site_id
 _symmetry_equiv_pos_as_xyz
  1  'x, y, z'
loop_
 _atom_site_type_symbol
 _atom_site_label
 _atom_site_symmetry_multiplicity
 _atom_site_fract_x
 _atom_site_fract_y
 _atom_site_fract_z
 _atom_site_occupancy
  V  V0  1  0.24616906  0.50705722  0.24270365  1
  V  V1  1  0.09884657  0.64035313  0.47459014  1
  V  V2  1  0.65465265  0.85078171  0.22864113  1
  V  V3  1  0.91290644  0.04572652  0.36042368  1
  V  V4  1  0.00238889  -0.02658523  0.50253304  1
  V  V5  1  0.02586164  0.61394905  0.64042070  1
  V  V6  1  0.50049719  0.36508376  0.87450855  1
  V  V7  1  0.87018580  0.37588911  0.49583607  1
  V  V8  1  0.52590085  0.22050247  0.74879998  1
  V  V9  1  0.62398069  0.74859439  0.87846823  1
  V  V10  1  0.25200138  0.48881171  0.79791685  1
  V  V11  1  0.13772107  0.11797118  0.48617067  1
  V  V12  1  -0.00360737  0.57417092  0.07308463  1
  V  V13  1  -0.01540899  0.77236009  0.74178196  1
  V  V14  1  0.09181579  0.82980700  0.24392225  1
  V  V15  1  0.81981566  0.86313656  0.51446060  1
  V  V16  1  0.66623948  0.11236281  -0.01088593  1
  V  V17  1  0.36280489  0.11145331  0.74709404  1
  V  V18  1  0.40390635  0.12078461  0.24960879  1
  V  V19  1  0.86363353  0.62965732  0.71925672  1
  V  V20  1  0.65405751  0.00899438  0.12648147  1
  V  V21  1  0.85987406  -0.01853874  0.85239366  1
  V  V22  1  0.88683174  0.50585042  0.86476693  1
  V  V23  1  -0.02968216  0.67442523  0.30231927  1
  V  V24  1  0.62736658  0.37027125  0.75526079  1
  V  V25  1  0.77931313  0.75419185  0.00273501  1
  V  V26  1  0.49280420  0.86381598  0.87630774  1
  V  V27  1  0.15976955  0.73199810  -0.04628364  1
  V  V28  1  0.74615765  0.36070660  0.63479756  1
  V  V29  1  0.59737772  0.32885781  0.38071170  1
  V  V30  1  -0.03186649  0.84719818  0.37760650  1
  V  V31  1  -0.02894607  0.35674002  0.86060167  1
  V  V32  1  0.28140681  0.65777256  0.37204712  1
  V  V33  1  0.14321824  -0.01887033  0.61102198  1
  V  V34  1  0.75542126  0.62797454  0.87655255  1
  V  V35  1  0.85238753  0.13114427  0.74546519  1
  V  V36  1  0.52628325  0.15441677  0.57727369  1
  V  V37  1  0.62598855  0.86543899  0.73727746  1
  V  V38  1  0.79782399  0.90563882  0.11142551  1
  V  V39  1  0.60135476  0.58885727  0.51667276  1
  V  V40  1  0.31144118  0.24352357  0.61097850  1
  V  V41  1  0.38912758  0.88160469  0.04500461  1
  V  V42  1  0.17993648  0.23230918  0.87438844  1
  V  V43  1  0.51936040  0.00206382  -0.00389632  1
  V  V44  1  0.65556163  0.23434932  0.88118709  1
  V  V45  1  0.14398073  0.89344549  0.77067880  1
  V  V46  1  0.85094652  0.27019204  0.15213680  1
  V  V47  1  0.55145338  0.44428425  0.03024935  1
  V  V48  1  0.02132071  0.13446676  0.62980778  1
  V  V49  1  0.27587471  0.09336104  0.89556415  1
  V  V50  1  0.74813384  0.50233220  0.74150087  1
  Zn  Zn51  1  0.07645993  0.56182591  0.89043377  1
  Zn  Zn52  1  0.38931061  0.42255128  0.66046555  1
  Zn  Zn53  1  0.31572715  0.05993580  0.56350236  1
  Zn  Zn54  1  0.57906253  0.54383233  0.87236045  1
  Zn  Zn55  1  0.97340749  0.70926256  0.93963601  1
  Zn  Zn56  1  0.04346871  0.49198081  0.31507520  1
  Zn  Zn57  1  0.07599609  0.01295398  0.31896167  1
  Zn  Zn58  1  0.32656088  0.31230021  0.24085909  1
  Zn  Zn59  1  0.82428899  0.56711088  0.04396676  1
  Zn  Zn60  1  0.69455872  0.43570413  0.92015278  1
  Zn  Zn61  1  0.84393357  0.20120848  0.93897189  1
  Zn  Zn62  1  0.96609388  0.94456702  0.20135636  1
  Zn  Zn63  1  0.49196873  0.94378850  0.19524530  1
  Zn  Zn64  1  0.40946659  0.24345417  0.42633195  1
  Zn  Zn65  1  0.68662263  0.18329829  0.66755383  1
  Zn  Zn66  1  0.59178348  0.20121496  0.23592695  1
  Zn  Zn67  1  0.18459810  0.29564292  0.07682445  1
  Zn  Zn68  1  0.20000233  0.56475056  0.61902812  1
  Zn  Zn69  1  0.54042577  0.33952670  0.58886343  1
  Zn  Zn70  1  0.09566922  0.72343935  0.10009927  1
  Zn  Zn71  1  0.11575166  0.29838275  0.67655041  1
  Zn  Zn72  1  0.80510238  0.80577252  0.79494024  1
  Zn  Zn73  1  0.31192300  0.69448200  0.05693502  1
  Zn  Zn74  1  0.92602226  0.70533737  0.50287276  1
  Zn  Zn75  1  0.20634425  0.91535808  0.95169589  1
  Zn  Zn76  1  0.92142075  0.94880824  0.67580274  1
  Zn  Zn77  1  0.06991253  0.45499570  0.53324340  1
  Zn  Zn78  1  0.59698917  0.83044547  0.04555505  1
  Zn  Zn79  1  0.66649915  0.67835687  0.70090232  1
  Zn  Zn80  1  0.45330727  0.57828224  0.40935808  1
  Zn  Zn81  1  0.43470231  0.47931558  0.27427837  1
  Zn  Zn82  1  0.52227850  1.01786660  0.70021405  1
  Zn  Zn83  1  0.26460027  0.85324186  0.33056239  1
  Zn  Zn84  1  1.00187944  0.38156777  0.15013626  1
  Zn  Zn85  1  0.31884739  0.03775816  0.06479374  1
  Zn  Zn86  1  0.53322438  0.37093471  0.19045624  1
  Zn  Zn87  1  0.96785327  0.20663841  0.45519531  1
  Zn  Zn88  1  0.46867166  0.16111214  0.91070899  1
  Zn  Zn89  1  0.05879148  0.80393324  0.57158401  1
  Zn  Zn90  1  0.79062167  0.91244463  0.32663366  1
  Zn  Zn91  1  0.24664860  1.04959468  0.37623974  1
  Zn  Zn92  1  0.85795160  0.04933603  0.57026003  1
  Zn  Zn93  1  0.30318362  0.80654340  0.83272955  1
  Zn  Zn94  1  0.14534995  0.08900883  0.76733656  1
  Zn  Zn95  1  0.33023733  0.30144171  0.78830122  1
  Zn  Zn96  1  0.65858249  0.78797429  0.56354817  1
  Zn  Zn97  1  0.82068399  0.30949297  0.80225365  1
  Zn  Zn98  1  0.68798480  0.04633214  0.79282186  1
  Zn  Zn99  1  0.70579353  0.92391538  0.93485008  1
  Zn  Zn100  1  0.79740494  0.74849733  0.21331608  1
  Zn  Zn101  1  0.18255800  0.72349777  0.71802633  1
  O  O102  1  0.18838341  0.11706437  0.15128993  1
  O  O103  1  0.12655654  0.09400216  0.60046750  1
  O  O104  1  0.06793053  0.62207836  0.12627464  1
  O  O105  1  0.12344192  0.63680679  0.67079890  1
  O  O106  1  0.65312388  0.11012093  0.09389321  1
  O  O107  1  0.62611253  0.15844249  0.57369962  1
  O  O108  1  0.53022178  0.67429784  0.14581296  1
  O  O109  1  0.61255684  0.61863619  0.61612862  1
  O  O110  1  0.33926016  0.28241918  0.34637915  1
  O  O111  1  0.40726608  0.33776709  0.86405595  1
  O  O112  1  0.33375231  0.85708570  0.46332185  1
  O  O113  1  0.39380624  0.85465245  0.88046013  1
  O  O114  1  0.85823408  0.34645829  0.39882998  1
  O  O115  1  0.87041093  0.40180908  0.85102976  1
  O  O116  1  0.85299729  0.87785083  0.41807652  1
  O  O117  1  0.86494360  0.88236987  0.85102456  1
  O  O118  1  0.27022780  -0.04288918  0.32895074  1
  O  O119  1  0.26211807  -0.00179871  0.89162433  1
  O  O120  1  0.27803663  0.53355449  0.34486993  1
  O  O121  1  0.29125698  0.50637363  0.88761919  1
  O  O122  1  0.82124936  0.02009452  0.33195633  1
  O  O123  1  0.75596768  -0.00588921  0.86557252  1
  O  O124  1  0.86182997  0.55097162  0.37529642  1
  O  O125  1  0.75148359  0.51475363  0.86340655  1
  O  O126  1  0.21907853  0.51417492  0.14780302  1
  O  O127  1  0.20263160  0.49056295  0.70108395  1
  O  O128  1  0.20721036  1.04847912  0.14309336  1
  O  O129  1  0.23985715  0.98757630  0.61032084  1
  O  O130  1  0.64885848  0.56123990  0.14855968  1
  O  O131  1  0.73757683  0.48327291  0.64580465  1
  O  O132  1  0.76583230  0.99869481  0.11217177  1
  O  O133  1  0.70445770  1.03088028  0.47901362  1
  O  O134  1  0.00090232  0.40587238  0.26221832  1
  O  O135  1  -0.00092583  0.34340418  0.77068606  1
  O  O136  1  -0.06759991  0.86275203  0.28644689  1
  O  O137  1  -0.03231563  0.86707151  0.73159921  1
  O  O138  1  0.42384874  0.37402467  0.22593965  1
  O  O139  1  0.52634848  0.34819276  0.75773948  1
  O  O140  1  0.55449074  0.86080404  0.22967859  1
  O  O141  1  0.51237584  0.86179546  0.77960919  1
  O  O142  1  0.50492264  0.13000941  0.22365145  1
  O  O143  1  0.55489711  0.12876219  0.73982640  1
  O  O144  1  0.46168788  0.58528065  0.29951026  1
  O  O145  1  0.49282692  0.58272973  0.74041916  1
  O  O146  1  1.07339873  0.16438672  0.23922669  1
  O  O147  1  1.04646481  0.11815412  0.72473150  1
  O  O148  1  0.98174454  0.57777136  0.28140814  1
  O  O149  1  0.96851496  0.62010380  0.72860453  1
  O  O150  1  0.42509194  0.21902790  0.01625071  1
  O  O151  1  0.34030460  0.26017536  0.51780880  1
  O  O152  1  0.36371227  0.78755561  0.03361814  1
  O  O153  1  0.48812137  0.81984524  0.40236527  1
  O  O154  1  0.84869246  0.25302685  0.04228834  1
  O  O155  1  0.88728551  0.27357164  0.50555794  1
  O  O156  1  0.87256359  0.74652337  -0.02668429  1
  O  O157  1  0.85271381  0.77513133  0.54105531  1
  O  O158  1  0.14496797  0.21093365  0.48315803  1
  O  O159  1  0.16542541  0.26500568  0.96921803  1
  O  O160  1  0.11498732  0.73143292  0.50985643  1
  O  O161  1  0.06948158  0.76190307  0.98626628  1
  O  O162  1  0.58511279  0.32338634  0.48284262  1
  O  O163  1  0.64147270  0.22278308  0.97954715  1
  O  O164  1  0.60706800  0.69607126  0.51562184  1
  O  O165  1  0.66126614  0.75875710  0.98427102  1
  O  O166  1  0.54648293  0.26488445  0.16389199  1
  O  O167  1  0.51426777  0.24224082  0.64208071  1
  O  O168  1  0.51373543  0.72570414  0.10104879  1
  O  O169  1  0.43539108  0.75026487  0.65469236  1
  O  O170  1  0.96348369  0.26916995  0.15940724  1
  O  O171  1  1.03343367  0.23056235  0.62627645  1
  O  O172  1  0.88062717  0.69586113  0.26009913  1
  O  O173  1  1.00316239  0.73567978  0.64354194  1
  O  O174  1  0.01981679  0.28640548  0.40777289  1
  O  O175  1  -0.06876756  0.27339282  0.89623562  1
  O  O176  1  -0.05654346  0.74491773  0.39518061  1
  O  O177  1  -0.00808378  0.74158475  0.83483262  1
  O  O178  1  0.49148745  0.32613335  0.38443198  1
  O  O179  1  0.53375645  0.24076562  0.86071546  1
  O  O180  1  0.38332743  0.74281803  0.20817203  1
  O  O181  1  0.52592784  0.75835439  0.89821741  1
  O  O182  1  0.24508417  0.09130748  0.48213646  1
  O  O183  1  0.28236958  0.11374750  0.99277007  1
  O  O184  1  0.20200774  0.64688187  0.42672041  1
  O  O185  1  0.20874770  0.54755091  1.03359358  1
  O  O186  1  0.75111459  0.07762753  0.50929533  1
  O  O187  1  0.76200717  0.12044943  0.98204907  1
  O  O188  1  0.69308381  0.57245490  0.49039612  1
  O  O189  1  0.75998037  0.63562686  0.97972070  1
  O  O190  1  0.36599835  0.25893248  0.01917438  1
  O  O191  1  0.29804154  0.42766409  0.52325247  1
  O  O192  1  0.29669914  0.92919903  0.03216164  1
  O  O193  1  0.33090785  0.90676451  0.51829737  1
  O  O194  1  0.75487123  0.41940465  0.01952469  1
  O  O195  1  0.76564478  0.37880976  0.51708246  1
  O  O196  1  0.77392719  0.86472682  0.01082815  1
  O  O197  1  0.72086440  0.85703131  0.50536347  1
  O  O198  1  0.14884926  0.49034223  0.26860244  1
  O  O199  1  0.15922687  0.49693688  0.83856966  1
  O  O200  1  0.07813350  0.93255736  0.24078087  1
  O  O201  1  0.12640861  0.98583332  0.72042553  1
  O  O202  1  0.53643800  0.47373824  0.23553812  1
  O  O203  1  0.63769742  0.47210158  0.76752519  1
  O  O204  1  0.65102223  1.01531409  0.22104166  1
  O  O205  1  0.61383496  0.97253411  0.74203425  1
  O  O206  1  0.43174903  0.02142156  0.26051184  1
  O  O207  1  0.41128844  0.02998926  0.72922681  1
  O  O208  1  0.34715903  0.50783196  0.20856096  1
  O  O209  1  0.34390163  0.46219319  0.75277057  1
  O  O210  1  0.96614090  0.03874418  0.26962534  1
  O  O211  1  0.88745467  0.01964679  0.75574862  1
  O  O212  1  0.81065836  0.53467320  0.22733779  1
  O  O213  1  0.85252362  0.51582731  0.74866363  1
  O  O214  1  0.17114624  0.31980742  0.37280376  1
  O  O215  1  0.07519299  0.36443375  0.90699442  1
  O  O216  1  0.06474537  0.83518680  0.35815351  1
  O  O217  1  0.12278830  0.91781145  0.86273809  1
  O  O218  1  0.61007221  0.42784243  0.38417928  1
  O  O219  1  0.63585107  0.35258944  0.86586720  1
  O  O220  1  0.68295469  0.88529722  0.31958448  1
  O  O221  1  0.63579256  0.85610028  0.87177221  1
  O  O222  1  0.36352162  0.09138031  0.15843254  1
  O  O223  1  0.34432479  0.14454900  0.63874147  1
  O  O224  1  0.36159034  0.60625966  0.07401980  1
  O  O225  1  0.28852376  0.64334702  0.60914048  1
  O  O226  1  0.83378454  0.17240221  0.13502141  1
  O  O227  1  0.91035997  0.11988393  0.64136717  1
  O  O228  1  0.90711592  0.60852867  0.10335421  1
  O  O229  1  0.85342721  0.61918787  0.62566453  1
  O  O230  1  0.25627079  0.27751895  0.16141023  1
  O  O231  1  0.21545253  0.24997988  0.62865837  1
  O  O232  1  0.20191196  0.70594237  0.04505933  1
  O  O233  1  0.27398578  0.71021453  0.57346953  1
  O  O234  1  0.76282403  0.31141585  0.16186712  1
  O  O235  1  0.75325166  0.26543841  0.62571352  1
  O  O236  1  0.78359173  0.73949314  0.09865730  1
  O  O237  1  0.72576070  0.73151367  0.62816407  1
  O  O238  1  0.19176427  0.35691958  0.43075515  1
  O  O239  1  0.27872948  0.23336181  0.86047186  1
  O  O240  1  0.29106958  0.75135718  0.34896632  1
  O  O241  1  0.22123746  0.80487895  0.91812799  1
  O  O242  1  0.69288865  0.30239844  0.39695461  1
  O  O243  1  0.75519006  0.25967772  0.88091360  1
  O  O244  1  0.76091544  0.69533880  0.38721246  1
  O  O245  1  0.75000765  0.73341790  0.86758737  1
  O  O246  1  0.06688787  0.13800249  0.04173990  1
  O  O247  1  0.02287803  0.12500974  0.50906042  1
  O  O248  1  0.01151436  0.60455736  -0.02652130  1
  O  O249  1  0.00134441  0.63245648  0.53515950  1
  O  O250  1  0.53489687  0.10084382  -0.02232521  1
  O  O251  1  0.47882355  0.18192632  0.49472485  1
  O  O252  1  0.47956068  0.49378060  0.06524393  1
  O  O253  1  0.49084718  0.59011533  0.51502107  1
  O  O254  1  0.46715769  0.41489842  0.59147629  1
  O  O255  1  0.51510613  0.35918357  0.97654827  1
  O  O256  1  0.50224206  0.84233296  0.46918045  1
  O  O257  1  0.49973866  0.87541118  1.00549696  1
  O  O258  1  0.96924520  0.39451227  0.50876844  1
  O  O259  1  1.03276911  0.40520434  0.95589222  1
  O  O260  1  0.98858729  0.87117411  0.50094587  1
  O  O261  1  1.06332290  0.96103210  1.03791460  1
  O  O262  1  0.42136404  0.47242480  0.38605120  1
  O  O263  1  0.50154343  0.46358100  0.86243515  1
  O  O264  1  0.57528787  0.98269703  0.38601744  1
  O  O265  1  0.51663512  0.96543526  0.89596216  1
  O  O266  1  1.06251650  0.47801237  0.42094778  1
  O  O267  1  0.98529922  0.50069439  0.84776048  1
  O  O268  1  0.99425395  0.96417434  0.38901516  1
  O  O269  1  1.02117033  1.13141826  0.98687678  1
  O  O270  1  0.03664793  0.00121327  0.09415246  1
  O  O271  1  0.00071969  -0.00477888  0.60519088  1
  O  O272  1  0.00165340  0.47819992  0.09246973  1
  O  O273  1  0.02303165  0.51843827  0.62625958  1
  O  O274  1  0.54783669  -0.00738199  0.10485053  1
  O  O275  1  0.49694462  0.06307665  0.60048740  1
  O  O276  1  0.59908708  0.40470532  0.10889301  1
  O  O277  1  0.44099075  0.57824069  0.68925729  1
  O  O278  1  0.26381333  0.40793822  0.25385834  1
  O  O279  1  0.24854601  0.38561992  0.80090250  1
  O  O280  1  0.18694240  0.81469220  0.25047596  1
  O  O281  1  0.24045242  0.87851500  0.76722948  1
  O  O282  1  0.76866173  0.48526368  0.25553317  1
  O  O283  1  0.75068587  0.37849626  0.74223045  1
  O  O284  1  0.78328086  0.86767690  0.20842522  1
  O  O285  1  0.72468984  0.86139290  0.73880016  1
  O  O286  1  0.31283981  0.10965265  0.29541791  1
  O  O287  1  0.26517536  0.09550265  0.76321926  1
  O  O288  1  0.24656405  0.61541388  0.25614530  1
  O  O289  1  0.27417841  0.58427382  0.77263181  1
  O  O290  1  0.69028646  0.17173032  0.24674488  1
  O  O291  1  0.75229164  0.10917514  0.71899775  1
  O  O292  1  0.65087277  0.59953194  0.20865698  1
  O  O293  1  0.74414517  0.61192375  0.74989615  1
  O  O294  1  0.43028307  0.15155586  0.34837431  1
  O  O295  1  0.37787757  0.11009888  0.86207639  1
  O  O296  1  0.36413052  0.64143991  0.42506421  1
  O  O297  1  0.27694352  0.71762744  0.77327980  1
  O  O298  1  0.91544807  0.14231532  0.37733459  1
  O  O299  1  0.85577077  0.13014200  0.84530119  1
  O  O300  1  0.89263424  0.58243283  0.43189475  1
  O  O301  1  0.85725796  0.61802320  0.85416971  1
  O  O302  1  0.10319890  0.34491983  0.13006074  1
  O  O303  1  0.11556568  0.38500989  0.60497126  1
  O  O304  1  0.06732327  0.81756758  0.14683041  1
  O  O305  1  0.12527261  0.88312466  0.61268473  1
  O  O306  1  0.75264448  0.47598364  0.06892149  1
  O  O307  1  0.63832020  0.36391085  0.64456040  1
  O  O308  1  0.66271738  0.89055154  0.12181399  1
  O  O309  1  0.59905529  0.84354760  0.64365531  1
  O  O310  1  0.08926644  0.22265816  0.27723713  1
  O  O311  1  0.13722302  0.26553658  0.79075964  1
  O  O312  1  0.04150085  0.72652613  0.25823275  1
  O  O313  1  0.10259313  0.79820829  0.74752078  1
  O  O314  1  0.60832217  0.34460275  0.27808571  1
  O  O315  1  0.63962688  0.25240886  0.75501044  1
  O  O316  1  0.67918915  0.75542639  0.22301238  1
  O  O317  1  0.61826516  0.75114238  0.77041620  1
  O  O318  1  0.39044571  0.21537957  0.21474676  1
  O  O319  1  0.42209651  0.20286484  0.75978554  1
  O  O320  1  0.43497584  0.74129670  0.25746410  1
  O  O321  1  0.24020744  0.76382401  0.61437056  1
  O  O322  1  0.85668490  0.26011872  0.25058106  1
  O  O323  1  0.85986597  0.22871975  0.73617299  1
  O  O324  1  0.74613362  0.64277638  0.33999336  1
  O  O325  1  0.87208643  0.73484915  0.73612546  1
  O  O326  1  0.31306237  0.48092644  0.57156180  1
  O  O327  1  0.32871364  0.41856011  1.03849349  1
  O  O328  1  0.37731028  0.97164328  0.51192199  1
  O  O329  1  0.42193623  1.00332999  1.01857901  1
  O  O330  1  0.86821920  0.46797828  0.46182536  1
  O  O331  1  0.87911815  0.50936587  0.96250613  1
  O  O332  1  0.91138578  1.02448984  0.47522207  1
  O  O333  1  0.91330321  1.00956276  0.92725917  1
  O  O334  1  0.14036946  -0.05505265  0.04523116  1
  O  O335  1  0.10546162  -0.01292648  0.50108557  1
  O  O336  1  0.15268987  0.50543878  0.04017094  1
  O  O337  1  0.13801448  0.55559837  0.52594895  1
  O  O338  1  0.64410582  0.00353784  -0.00880753  1
  O  O339  1  0.54059261  0.00303392  0.44475952  1
  O  O340  1  0.61628073  0.50020366  -0.02847843  1
  O  O341  1  0.58988873  0.49644618  0.54652794  1
  O  O342  1  0.26310869  0.38961374  0.02984612  1
  O  O343  1  0.35177452  0.31577165  0.67666089  1
  O  O344  1  0.40369073  0.89491323  0.14166902  1
  O  O345  1  0.41402181  0.78647907  0.59818535  1
  O  O346  1  0.88795461  0.37049115  0.12990767  1
  O  O347  1  0.85970438  0.38788649  0.60334221  1
  O  O348  1  0.89587967  0.91299988  0.11801350  1
  O  O349  1  0.84276749  0.93613495  0.58894106  1
  O  O350  1  0.13436361  0.08489225  0.37976051  1
  O  O351  1  0.16941601  0.12683280  0.87498559  1
  O  O352  1  0.04819503  0.64170838  0.39025959  1
  O  O353  1  0.14584498  0.65425262  0.89274150  1
  O  O354  1  0.58074964  0.22582187  0.34973996  1
  O  O355  1  0.65399991  0.13128670  0.86801986  1
  O  O356  1  0.57726254  0.58963147  0.41265849  1
  O  O357  1  0.63923380  0.63672744  0.86846907  1
