# generated using pymatgen
data_V51Zn51O256
_symmetry_space_group_name_H-M   'P 1'
_cell_length_a   18.20028904
_cell_length_b   17.32803066
_cell_length_c   17.78711626
_cell_angle_alpha   90.02697171
_cell_angle_beta   90.24122427
_cell_angle_gamma   88.97207652
_symmetry_Int_Tables_number   1
_chemical_formula_structural   V51Zn51O256
_chemical_formula_sum   'V51 Zn51 O256'
_cell_volume   5608.66185608
_cell_formula_units_Z   1
loop_
 _symmetry_equiv_pos_site_id
 _symmetry_equiv_pos_as_xyz
  1  'x, y, z'
loop_
 _atom_site_type_symbol
 _atom_site_label
 _atom_site_symmetry_multiplicity
 _atom_site_fract_x
 _atom_site_fract_y
 _atom_site_fract_z
 _atom_site_occupancy
  V  V0  1  0.21064467  0.14171964  0.84967177  1
  V  V1  1  -0.00615469  0.62423428  0.59022685  1
  V  V2  1  0.01724055  0.74369475  0.26314406  1
  V  V3  1  0.36116522  0.38219672  0.48105872  1
  V  V4  1  0.61355708  0.43428962  0.30806462  1
  V  V5  1  -0.00399426  0.68117366  0.80311514  1
  V  V6  1  0.65725274  -0.00161437  0.61851269  1
  V  V7  1  0.59559993  0.39794505  0.71876647  1
  V  V8  1  0.50825427  0.86623918  0.86794861  1
  V  V9  1  0.15582868  0.64711292  0.06058429  1
  V  V10  1  0.61694028  0.03130370  0.09267463  1
  V  V11  1  0.55686397  0.64313223  0.54010322  1
  V  V12  1  0.11772924  0.08069854  0.53100541  1
  V  V13  1  0.78345901  -0.02654830  0.24127895  1
  V  V14  1  0.86922310  0.46318873  0.34465345  1
  V  V15  1  0.77552595  0.62751320  0.40272448  1
  V  V16  1  -0.03527889  0.49510505  0.00061552  1
  V  V17  1  -0.02465894  0.26961635  0.77371311  1
  V  V18  1  0.77415365  0.77183192  0.51334351  1
  V  V19  1  0.75515582  0.23445987  0.48241902  1
  V  V20  1  0.47125947  0.32939493  0.35248967  1
  V  V21  1  0.52602227  0.80219864  0.24049815  1
  V  V22  1  0.90383989  0.87757412  0.52073007  1
  V  V23  1  0.36589637  0.59564782  0.73419093  1
  V  V24  1  0.51177449  0.54356277  0.00756120  1
  V  V25  1  0.12821205  0.15677498  0.06922123  1
  V  V26  1  0.86492561  0.63864495  0.26231098  1
  V  V27  1  0.15416423  0.89550215  0.25856715  1
  V  V28  1  0.11354809  0.31661687  0.86284904  1
  V  V29  1  0.44045466  0.25674214  0.10997827  1
  V  V30  1  -0.00814249  0.61781916  0.13492412  1
  V  V31  1  -0.00302673  0.87438055  0.36909519  1
  V  V32  1  0.40545241  0.77520530  0.14601175  1
  V  V33  1  0.73496729  0.77177059  0.04574393  1
  V  V34  1  0.21188279  0.29373214  0.06746548  1
  V  V35  1  0.65498345  0.87889877  0.29877324  1
  V  V36  1  0.61115253  0.10301042  0.46443283  1
  V  V37  1  -0.02493939  -0.02512688  0.02293517  1
  V  V38  1  0.69272526  0.59748728  0.05439127  1
  V  V39  1  0.69920217  0.87124144  0.72487476  1
  V  V40  1  0.90826212  0.34457696  0.49823388  1
  V  V41  1  0.85614711  0.24753151  0.64555428  1
  V  V42  1  0.62741724  0.73583633  0.79945988  1
  V  V43  1  0.80144932  0.10575700  0.37035703  1
  V  V44  1  0.37125473  0.08503629  0.15394606  1
  V  V45  1  0.23924649  0.73450370  0.53174606  1
  V  V46  1  0.40076818  0.52649755  0.35086493  1
  V  V47  1  0.88273510  0.76370838  0.13396837  1
  V  V48  1  0.68794358  0.16199211  0.84734096  1
  V  V49  1  0.75854677  0.63038442  0.83778150  1
  V  V50  1  0.06554005  0.46177318  0.63681466  1
  Zn  Zn51  1  0.89409127  0.53342510  0.52662809  1
  Zn  Zn52  1  0.65165346  0.08663990  0.26864330  1
  Zn  Zn53  1  0.95936222  0.93809547  0.19354843  1
  Zn  Zn54  1  0.26277256  0.07712970  0.01046757  1
  Zn  Zn55  1  0.99518422  0.80890934  0.67986909  1
  Zn  Zn56  1  0.83953950  0.73070393  0.70541434  1
  Zn  Zn57  1  0.87252366  0.50518140  0.14696398  1
  Zn  Zn58  1  0.82947832  0.80522159  0.33219452  1
  Zn  Zn59  1  0.94517592  0.03467688  0.43119225  1
  Zn  Zn60  1  0.32116393  0.30596180  0.23656784  1
  Zn  Zn61  1  0.17816072  0.90422136  0.43622079  1
  Zn  Zn62  1  0.14815953  0.45881949  -0.01746932  1
  Zn  Zn63  1  0.34243411  0.90850540  0.22191405  1
  Zn  Zn64  1  0.28527952  0.01668817  0.58292598  1
  Zn  Zn65  1  0.75465725  0.30815424  0.33273655  1
  Zn  Zn66  1  0.30697598  0.24736943  0.39064262  1
  Zn  Zn67  1  0.21128537  0.18883643  0.22403790  1
  Zn  Zn68  1  0.35395866  0.21250920  0.94685526  1
  Zn  Zn69  1  0.72767251  0.44043827  0.44393149  1
  Zn  Zn70  1  -0.05710078  0.47689203  0.79329943  1
  Zn  Zn71  1  0.44716955  0.49376564  0.61334116  1
  Zn  Zn72  1  0.28916364  0.27700235  0.80202547  1
  Zn  Zn73  1  0.93986754  0.69657582  0.43551590  1
  Zn  Zn74  1  0.70239020  0.70980446  0.20807544  1
  Zn  Zn75  1  0.45568722  0.43531542  0.19678802  1
  Zn  Zn76  1  0.77070400  0.08212923  0.70932362  1
  Zn  Zn77  1  0.60729777  1.00510694  0.94454728  1
  Zn  Zn78  1  0.54956644  0.54941219  0.81053060  1
  Zn  Zn79  1  0.18395127  0.59517241  0.63083464  1
  Zn  Zn80  1  0.46183268  0.68481607  0.37739787  1
  Zn  Zn81  1  0.02019123  0.15874329  0.92252703  1
  Zn  Zn82  1  0.04328240  0.27391744  0.59303527  1
  Zn  Zn83  1  0.71800082  0.45890335  0.93885797  1
  Zn  Zn84  1  0.78503514  -0.04573479  0.03640039  1
  Zn  Zn85  1  0.79260495  0.37584164  0.78433532  1
  Zn  Zn86  1  0.06451232  0.80861266  0.08352688  1
  Zn  Zn87  1  0.90884441  0.67197789  0.95992888  1
  Zn  Zn88  1  0.59061829  0.56940888  0.38305684  1
  Zn  Zn89  1  0.83377761  0.06987981  0.55664709  1
  Zn  Zn90  1  0.19660884  0.39178444  0.56856989  1
  Zn  Zn91  1  0.08783661  0.05440942  0.33336879  1
  Zn  Zn92  1  0.60201535  0.79588050  0.59659210  1
  Zn  Zn93  1  0.01538093  0.53147304  0.27681376  1
  Zn  Zn94  1  0.45904519  0.20849301  0.46573478  1
  Zn  Zn95  1  0.06770498  0.80277728  0.54484937  1
  Zn  Zn96  1  0.70806298  0.66482700  0.64997120  1
  Zn  Zn97  1  0.71748572  -0.05747492  0.45961418  1
  Zn  Zn98  1  0.56531838  0.36147401  0.02220670  1
  Zn  Zn99  1  0.12507340  1.02701041  0.93281416  1
  Zn  Zn100  1  0.56333961  0.86091373  0.05740234  1
  Zn  Zn101  1  0.22597626  0.78206828  0.14236998  1
  O  O102  1  0.13240378  0.15069172  0.16564156  1
  O  O103  1  0.09796075  0.04681490  0.61930432  1
  O  O104  1  0.08956286  0.61965361  0.13261416  1
  O  O105  1  0.07427941  0.58347038  0.63632637  1
  O  O106  1  0.62844806  0.09746553  0.16589645  1
  O  O107  1  0.43300759  0.25757515  0.64976311  1
  O  O108  1  0.69639341  0.61778287  0.14801831  1
  O  O109  1  0.64479425  0.62543844  0.57497868  1
  O  O110  1  0.37894304  0.32913145  0.32545817  1
  O  O111  1  0.37376571  0.35474396  0.84296377  1
  O  O112  1  0.39131167  0.84180825  0.40764000  1
  O  O113  1  0.42357097  0.84859617  0.88827880  1
  O  O114  1  0.84182070  0.37558032  0.31666703  1
  O  O115  1  0.78141105  0.38835346  0.88817986  1
  O  O116  1  0.90313476  0.87649371  0.37597631  1
  O  O117  1  0.88067329  0.97025984  0.79580042  1
  O  O118  1  0.27334956  -0.04032990  0.41906622  1
  O  O119  1  0.23734794  0.05683564  0.90674047  1
  O  O120  1  0.18057970  0.50773871  0.44716327  1
  O  O121  1  0.22749811  0.69984369  0.88916850  1
  O  O122  1  0.77047495  0.01853874  0.40485366  1
  O  O123  1  0.64274980  0.06766587  0.85967562  1
  O  O124  1  0.78647260  0.51400536  0.38112751  1
  O  O125  1  0.71432637  0.54970558  0.86664708  1
  O  O126  1  0.24690409  0.52010736  0.18347904  1
  O  O127  1  0.16916680  0.48775403  0.61694846  1
  O  O128  1  0.30682934  0.90926513  -0.02525850  1
  O  O129  1  0.22392142  0.95983218  0.63857256  1
  O  O130  1  0.75411149  0.35727065  0.12698896  1
  O  O131  1  0.79571402  0.48971795  0.59222190  1
  O  O132  1  0.77061403  0.96849314  0.14847556  1
  O  O133  1  0.74039460  1.05307104  0.60782944  1
  O  O134  1  -0.07456666  0.31753668  0.15667879  1
  O  O135  1  -0.06974010  0.34773691  0.80606814  1
  O  O136  1  0.00863855  0.85655099  0.26135995  1
  O  O137  1  0.08850613  0.73869632  0.77632933  1
  O  O138  1  0.52509897  0.38455042  0.28289794  1
  O  O139  1  0.52328737  0.41931692  0.65292001  1
  O  O140  1  0.54738719  0.88219034  0.29481206  1
  O  O141  1  0.50491385  0.90239153  0.76320163  1
  O  O142  1  0.40082012  0.06112065  0.37317894  1
  O  O143  1  0.32302050  0.16079913  0.64099058  1
  O  O144  1  0.51569210  0.72019456  0.29040641  1
  O  O145  1  0.46083189  0.60247435  0.76209939  1
  O  O146  1  1.04929014  0.15309673  0.29118628  1
  O  O147  1  0.96209378  0.19313036  0.83420921  1
  O  O148  1  0.98603731  0.63874789  0.25400353  1
  O  O149  1  0.96815346  0.59126232  0.78777011  1
  O  O150  1  0.37749507  0.25544282  0.03746704  1
  O  O151  1  0.36678018  0.26175835  0.47347772  1
  O  O152  1  0.40716287  0.76493331  0.02553679  1
  O  O153  1  0.31294451  0.76273665  0.58560862  1
  O  O154  1  0.87368681  0.26624762  -0.03238445  1
  O  O155  1  0.85731826  0.27637214  0.45418407  1
  O  O156  1  0.88307909  0.74125773  0.04023572  1
  O  O157  1  0.88796939  0.77603296  0.49635648  1
  O  O158  1  0.10007829  0.17903837  0.55451034  1
  O  O159  1  0.12195536  0.27855659  1.08148835  1
  O  O160  1  0.14433582  0.73607837  0.49296322  1
  O  O161  1  0.11513353  0.72840873  1.02237898  1
  O  O162  1  0.66561483  0.18120718  0.49017803  1
  O  O163  1  0.62820528  0.40888577  0.96023252  1
  O  O164  1  0.68138854  0.77546591  0.51755303  1
  O  O165  1  0.64466259  0.78670774  1.06096230  1
  O  O166  1  0.52537787  0.28045106  0.07642276  1
  O  O167  1  0.48064054  0.23842521  0.60307007  1
  O  O168  1  0.50775480  0.79560525  0.13445115  1
  O  O169  1  0.52358398  0.72664807  0.58291513  1
  O  O170  1  0.96659629  0.29426928  0.10712899  1
  O  O171  1  0.96018980  0.24800408  0.67174307  1
  O  O172  1  0.99181286  0.73730818  0.14900799  1
  O  O173  1  1.00848223  0.72275969  0.59545646  1
  O  O174  1  0.02110378  0.20539503  0.34554141  1
  O  O175  1  0.05832147  0.28042056  0.92784839  1
  O  O176  1  0.00136123  0.75712469  0.36498894  1
  O  O177  1  -0.01216731  0.70295430  0.89568395  1
  O  O178  1  0.50136396  0.23705367  0.36332931  1
  O  O179  1  0.41484423  0.32820706  0.89518151  1
  O  O180  1  0.43400623  0.79279673  0.43685065  1
  O  O181  1  0.54605851  0.77019342  0.84446737  1
  O  O182  1  0.21393006  0.09661505  0.54620656  1
  O  O183  1  0.22230787  0.19701190  1.02454666  1
  O  O184  1  0.24533340  0.63006453  0.53565430  1
  O  O185  1  0.23257938  0.67816099  1.10863103  1
  O  O186  1  0.80841844  0.14147186  0.47570579  1
  O  O187  1  0.71342023  0.14893878  0.93982738  1
  O  O188  1  0.80919825  0.61428945  0.49141249  1
  O  O189  1  0.73995495  0.67517959  1.00612711  1
  O  O190  1  0.22114390  0.37858674  0.01935598  1
  O  O191  1  0.26725195  0.36754635  0.49770161  1
  O  O192  1  0.26720797  0.85475130  -0.03945460  1
  O  O193  1  0.22090426  0.83664575  0.51591837  1
  O  O194  1  0.78328914  0.30677547  0.16597663  1
  O  O195  1  0.72441285  0.32787496  0.44575462  1
  O  O196  1  0.76759236  0.84733792  -0.00180174  1
  O  O197  1  0.79119976  0.87578962  0.51551686  1
  O  O198  1  0.16639838  0.40187306  0.33581571  1
  O  O199  1  0.02931455  0.45483895  0.72351604  1
  O  O200  1  0.12851949  0.99043528  0.25325353  1
  O  O201  1  0.04387461  1.00202148  0.75526907  1
  O  O202  1  0.61524254  0.52031051  0.26601269  1
  O  O203  1  0.60095465  0.50588368  0.71492188  1
  O  O204  1  0.66380421  0.97101867  0.26612452  1
  O  O205  1  0.70948745  0.97351262  0.71910656  1
  O  O206  1  0.39522420  -0.00008041  0.19948001  1
  O  O207  1  0.34085319  -0.00117656  0.80836681  1
  O  O208  1  0.38810695  0.49138950  0.25938692  1
  O  O209  1  0.39873306  0.49190717  0.71652620  1
  O  O210  1  0.87552681  -0.02693627  0.25410144  1
  O  O211  1  0.87529101  0.00486495  0.73520660  1
  O  O212  1  0.85780415  0.52561201  0.25219381  1
  O  O213  1  0.84033614  0.46724087  0.76012628  1
  O  O214  1  0.12017451  0.36821378  0.37318986  1
  O  O215  1  0.13287097  0.41024888  0.88341334  1
  O  O216  1  0.12383281  0.86717270  0.35336467  1
  O  O217  1  0.14987662  0.89261752  0.82082930  1
  O  O218  1  0.62842511  0.45694780  0.40442544  1
  O  O219  1  0.55497402  0.43103815  0.81090521  1
  O  O220  1  0.66211350  0.87438644  0.39321736  1
  O  O221  1  0.65687392  0.85767764  0.80920561  1
  O  O222  1  0.35305670  0.06702838  0.05970484  1
  O  O223  1  0.35409568  0.10176127  0.61301202  1
  O  O224  1  0.39256057  0.68642210  0.16737733  1
  O  O225  1  0.38058692  0.59471341  0.63078203  1
  O  O226  1  0.88337762  0.15172480  0.11488441  1
  O  O227  1  0.85130629  0.14444777  0.64639705  1
  O  O228  1  0.88363022  0.63507577  0.15509746  1
  O  O229  1  0.91159148  0.60111414  0.62748528  1
  O  O230  1  0.24901727  0.29138821  0.15919586  1
  O  O231  1  0.26027218  0.38280321  0.70481849  1
  O  O232  1  0.31998685  0.83137733  0.13621534  1
  O  O233  1  0.18886364  0.71519595  0.62285269  1
  O  O234  1  0.87520086  0.17042803  0.18053097  1
  O  O235  1  0.77017703  0.25015162  0.57655712  1
  O  O236  1  0.77680596  0.76549088  0.14013689  1
  O  O237  1  0.79110301  0.72824933  0.60213565  1
  O  O238  1  0.25462676  0.24193822  0.30499403  1
  O  O239  1  0.19553760  0.25726783  0.85716840  1
  O  O240  1  0.28525947  0.72165358  0.45019687  1
  O  O241  1  0.11011271  0.92168221  0.87877891  1
  O  O242  1  0.75716030  0.20118757  0.36047670  1
  O  O243  1  0.72116255  0.25331114  0.85884306  1
  O  O244  1  0.78121124  0.73916343  0.40974329  1
  O  O245  1  0.70523876  0.71841519  0.85932791  1
  O  O246  1  0.04113156  0.16302781  0.03494131  1
  O  O247  1  0.02230416  0.07488209  0.50210830  1
  O  O248  1  -0.03184129  0.60067587  0.03418216  1
  O  O249  1  -0.02128249  0.60841372  0.49165960  1
  O  O250  1  0.46300743  0.15018010  -0.07445079  1
  O  O251  1  0.52235822  0.12574732  0.49041283  1
  O  O252  1  0.60073679  0.59011398  0.02711164  1
  O  O253  1  0.54471365  0.65593299  0.44114454  1
  O  O254  1  0.46659489  0.36536470  0.44209231  1
  O  O255  1  0.47982632  0.44253437  1.03944292  1
  O  O256  1  0.42549438  0.90533100  0.56269445  1
  O  O257  1  0.55574498  0.90367184  0.95016658  1
  O  O258  1  0.99630957  0.30870299  0.49979713  1
  O  O259  1  1.04751052  0.45556587  1.02349937  1
  O  O260  1  1.00379990  0.86494869  0.47789249  1
  O  O261  1  1.01669932  0.88364149  1.02221298  1
  O  O262  1  0.49209015  0.52211593  0.36819249  1
  O  O263  1  0.51658752  0.53554649  0.91032068  1
  O  O264  1  0.39390077  0.95038099  0.60715785  1
  O  O265  1  0.50135057  0.96234509  0.81208464  1
  O  O266  1  0.96543612  0.46574749  0.34000911  1
  O  O267  1  0.94783797  0.48848361  0.90786931  1
  O  O268  1  1.01315813  0.97691097  0.36558174  1
  O  O269  1  1.01685753  1.03519476  0.95322494  1
  O  O270  1  -0.01216450  0.00633437  0.11535206  1
  O  O271  1  0.01535580  0.06547074  0.74318182  1
  O  O272  1  -0.01054112  0.52260577  0.16698800  1
  O  O273  1  -0.00443809  0.47148432  0.57333040  1
  O  O274  1  0.55704405  0.06872281  0.02704054  1
  O  O275  1  0.59045675  0.05213705  0.64971172  1
  O  O276  1  0.51494195  0.47200684  0.10989639  1
  O  O277  1  0.50642630  0.56181378  0.55883134  1
  O  O278  1  0.20687281  0.46451548  0.19124229  1
  O  O279  1  0.24142816  0.39857964  0.77444649  1
  O  O280  1  0.24812830  0.89306070  0.27011478  1
  O  O281  1  0.21309751  0.91946577  0.80871003  1
  O  O282  1  0.68426604  0.37414505  0.28033720  1
  O  O283  1  0.68245709  0.38420279  0.76559547  1
  O  O284  1  0.76072204  0.87338796  0.27984113  1
  O  O285  1  0.78511723  0.83160225  0.72714722  1
  O  O286  1  0.29339694  0.11771345  0.19430499  1
  O  O287  1  0.21371892  0.11824943  0.76116348  1
  O  O288  1  0.18276959  0.56985353  0.32131805  1
  O  O289  1  0.27073574  0.59087648  0.70384143  1
  O  O290  1  0.76518734  0.07639948  0.27155506  1
  O  O291  1  0.68987165  0.16225712  0.74288922  1
  O  O292  1  0.77196506  0.65697025  0.28021362  1
  O  O293  1  0.77190354  0.64307661  0.73738471  1
  O  O294  1  0.43964798  0.00371752  0.38668032  1
  O  O295  1  0.31463602  0.18332962  0.85746333  1
  O  O296  1  0.37730501  0.62337050  0.36069416  1
  O  O297  1  0.33319238  0.56541222  0.81845457  1
  O  O298  1  0.89448723  0.10073254  0.36009279  1
  O  O299  1  0.77385192  0.11003047  0.81555037  1
  O  O300  1  0.88500526  0.62863229  0.36084546  1
  O  O301  1  0.83907621  0.63795551  0.88483458  1
  O  O302  1  0.07199560  0.38446562  0.21225555  1
  O  O303  1  0.10497722  0.36058905  0.61458704  1
  O  O304  1  0.14075793  0.84613368  0.16617954  1
  O  O305  1  0.07948012  0.85338510  0.63852719  1
  O  O306  1  0.67758178  0.23145154  0.07690921  1
  O  O307  1  0.64979189  0.37069543  0.64353027  1
  O  O308  1  0.57986480  0.94652707  0.12380147  1
  O  O309  1  0.64265765  0.89228092  0.62944151  1
  O  O310  1  0.05910382  0.32337470  0.24429174  1
  O  O311  1  0.06914283  0.29689659  0.77320476  1
  O  O312  1  0.10518405  0.72776941  0.26059796  1
  O  O313  1  0.10081721  0.66210242  0.78290434  1
  O  O314  1  0.73214296  0.19813160  0.10296725  1
  O  O315  1  0.55257959  0.31431664  0.73992206  1
  O  O316  1  0.63591218  0.79166878  0.23680833  1
  O  O317  1  0.64999870  0.76006562  0.70135513  1
  O  O318  1  0.43827742  0.16567670  0.15726644  1
  O  O319  1  0.29193271  0.31028593  0.69553717  1
  O  O320  1  0.42192130  0.82515292  0.23908225  1
  O  O321  1  0.36528469  0.69353967  0.74450043  1
  O  O322  1  0.96492786  0.24433818  0.32690410  1
  O  O323  1  0.81818215  0.28248117  0.72458083  1
  O  O324  1  0.88461985  0.74578735  0.25093361  1
  O  O325  1  0.93769237  0.74701851  0.74499555  1
  O  O326  1  0.35380393  0.46611109  0.42081850  1
  O  O327  1  0.44558753  0.60558817  1.02075904  1
  O  O328  1  0.31253408  0.97597821  0.47801981  1
  O  O329  1  0.47192664  1.09304031  0.88384516  1
  O  O330  1  0.88353021  0.44064428  0.45779721  1
  O  O331  1  0.89224551  0.45774220  1.05503971  1
  O  O332  1  0.89307193  0.98503724  0.51169447  1
  O  O333  1  0.88167905  0.97500962  1.00418914  1
  O  O334  1  0.15822026  0.06295538  0.03691362  1
  O  O335  1  0.13666305  -0.01944471  0.50414144  1
  O  O336  1  0.17034432  0.56848919  0.00354759  1
  O  O337  1  0.11775246  0.53360199  0.45527515  1
  O  O338  1  0.68941756  0.00503640  0.02423153  1
  O  O339  1  0.64038725  0.01003126  0.51022015  1
  O  O340  1  0.73949546  0.51359925  0.03552105  1
  O  O341  1  0.73697270  0.48313700  0.55402805  1
  O  O342  1  0.41042995  0.33155603  0.17127410  1
  O  O343  1  0.39256254  0.41446367  0.56386885  1
  O  O344  1  0.34989752  0.74260143  -0.00582891  1
  O  O345  1  0.34283262  0.96266572  0.74946692  1
  O  O346  1  0.82860173  0.28364033  0.01611536  1
  O  O347  1  0.87760172  0.33847474  0.59112260  1
  O  O348  1  0.89790117  0.85775531  0.14002774  1
  O  O349  1  0.92110117  0.87126190  0.61260360  1
  O  O350  1  0.13186094  0.09528141  0.42723247  1
  O  O351  1  0.11606750  0.13029609  0.87555777  1
  O  O352  1  0.11485127  0.57987653  0.32609722  1
  O  O353  1  0.23762026  0.75597648  0.84794697  1
  O  O354  1  0.61510601  0.09565522  0.36952225  1
  O  O355  1  0.59861757  0.19406171  0.84922690  1
  O  O356  1  0.68391668  0.61900272  0.40191986  1
  O  O357  1  0.60363789  0.64206466  0.78858982  1
