# generated using pymatgen
data_V51Zn51O256
_symmetry_space_group_name_H-M   'P 1'
_cell_length_a   17.54269900
_cell_length_b   17.35111929
_cell_length_c   17.73128811
_cell_angle_alpha   89.10531085
_cell_angle_beta   90.83348182
_cell_angle_gamma   91.04077298
_symmetry_Int_Tables_number   1
_chemical_formula_structural   V51Zn51O256
_chemical_formula_sum   'V51 Zn51 O256'
_cell_volume   5395.04888892
_cell_formula_units_Z   1
loop_
 _symmetry_equiv_pos_site_id
 _symmetry_equiv_pos_as_xyz
  1  'x, y, z'
loop_
 _atom_site_type_symbol
 _atom_site_label
 _atom_site_symmetry_multiplicity
 _atom_site_fract_x
 _atom_site_fract_y
 _atom_site_fract_z
 _atom_site_occupancy
  V  V0  1  0.87947460  0.76370446  0.55818019  1
  V  V1  1  0.11731390  0.61343438  0.48699147  1
  V  V2  1  0.38627380  0.51001837  0.85895080  1
  V  V3  1  0.50616497  0.60952156  0.15198584  1
  V  V4  1  0.70520716  0.25298828  -0.01007222  1
  V  V5  1  0.70677667  0.26980851  0.48481891  1
  V  V6  1  0.74232297  0.38091985  0.10832279  1
  V  V7  1  0.38060002  0.70647304  0.10020801  1
  V  V8  1  0.31565978  0.69606563  0.66246332  1
  V  V9  1  0.10627628  0.48031267  0.13928935  1
  V  V10  1  0.61808805  0.09805995  0.46710113  1
  V  V11  1  0.61843683  0.49388231  0.14273891  1
  V  V12  1  0.23660701  0.49346113  0.27934293  1
  V  V13  1  0.02207888  0.64095775  0.14919508  1
  V  V14  1  0.51514826  0.52952314  0.55515271  1
  V  V15  1  0.59672525  0.25418009  0.34250167  1
  V  V16  1  0.06762617  0.85090414  0.37165427  1
  V  V17  1  0.28417366  0.86503683  0.14085718  1
  V  V18  1  0.92470992  0.65974944  0.71465757  1
  V  V19  1  0.39456031  0.48598891  0.38059875  1
  V  V20  1  0.65690738  0.59717125  0.66610834  1
  V  V21  1  0.25741390  0.38435673  0.14628630  1
  V  V22  1  0.36510033  0.03746267  0.42372229  1
  V  V23  1  0.28071159  0.26709546  -0.04470326  1
  V  V24  1  0.37391196  0.88041492  -0.03513669  1
  V  V25  1  0.01133838  0.36728182  0.87746493  1
  V  V26  1  0.73466592  0.13145167  0.33835993  1
  V  V27  1  0.72990679  0.88779827  0.53915923  1
  V  V28  1  0.76146249  0.64664339  0.93279655  1
  V  V29  1  0.02685084  0.83625985  0.93960527  1
  V  V30  1  0.89530102  0.01358689  0.93430374  1
  V  V31  1  0.45043771  0.26296938  0.62107182  1
  V  V32  1  0.59354636  -0.00797155  0.15839123  1
  V  V33  1  0.91789779  0.10708708  0.39054643  1
  V  V34  1  -0.01601480  0.51382628  -0.01457208  1
  V  V35  1  0.52224361  0.08129546  0.59911943  1
  V  V36  1  0.14250514  0.61565689  0.00889126  1
  V  V37  1  0.60219939  0.30187518  0.85792937  1
  V  V38  1  0.76271206  0.44588257  0.71342486  1
  V  V39  1  0.70814339  0.60742143  0.42641301  1
  V  V40  1  0.57946469  0.81402326  0.78709279  1
  V  V41  1  0.48675852  0.12888099  0.14125590  1
  V  V42  1  0.23915857  0.13505360  0.36230476  1
  V  V43  1  0.35888597  0.36208356  0.49920484  1
  V  V44  1  0.82790067  0.60904240  0.26137682  1
  V  V45  1  0.18810076  0.24391577  0.50000109  1
  V  V46  1  0.83544557  0.24163487  0.59931457  1
  V  V47  1  0.14798421  -0.01002843  0.11272110  1
  V  V48  1  0.87886636  0.86686529  0.03701908  1
  V  V49  1  0.59076837  0.09262924  -0.05820655  1
  V  V50  1  0.86271399  0.74951113  0.15319371  1
  Zn  Zn51  1  0.06359466  0.53181961  0.30676611  1
  Zn  Zn52  1  0.71840228  0.35116522  0.30801598  1
  Zn  Zn53  1  0.94698396  0.45252995  0.70362906  1
  Zn  Zn54  1  0.09948236  0.02170016  0.30372576  1
  Zn  Zn55  1  0.31340433  0.07391857  0.18590701  1
  Zn  Zn56  1  0.26839290  0.70220447  0.25501477  1
  Zn  Zn57  1  0.52944239  0.18185127  0.77269230  1
  Zn  Zn58  1  0.67020064  0.94801233  0.35592219  1
  Zn  Zn59  1  0.43322392  0.42218102  0.69019664  1
  Zn  Zn60  1  0.85164701  0.31311765  0.79342888  1
  Zn  Zn61  1  0.15402402  0.42147201  -0.02566987  1
  Zn  Zn62  1  0.44975383  0.19515385  0.44347774  1
  Zn  Zn63  1  0.61111295  0.42853695  0.43646854  1
  Zn  Zn64  1  0.90716777  0.44564770  0.18155356  1
  Zn  Zn65  1  0.15992529  0.13095285  0.60638207  1
  Zn  Zn66  1  0.49140872  0.83204870  0.10810099  1
  Zn  Zn67  1  0.72505578  0.41750237  0.90062673  1
  Zn  Zn68  1  0.93945649  0.68483334  0.99715563  1
  Zn  Zn69  1  0.43073237  0.70843414  0.50619499  1
  Zn  Zn70  1  0.57531269  0.60448320  0.84177172  1
  Zn  Zn71  1  0.11467048  0.65456824  0.69199485  1
  Zn  Zn72  1  0.21526963  0.45930260  0.48063646  1
  Zn  Zn73  1  0.61293849  0.74130062  0.53177409  1
  Zn  Zn74  1  0.48354564  0.22704760  0.96845181  1
  Zn  Zn75  1  0.84668932  0.76988909  0.87753267  1
  Zn  Zn76  1  0.29480928  0.56998571  0.10984309  1
  Zn  Zn77  1  0.82798385  0.15516947  0.91945982  1
  Zn  Zn78  1  0.73068390  0.76843357  0.67558623  1
  Zn  Zn79  1  0.04184895  0.65018799  0.85624924  1
  Zn  Zn80  1  0.72412461  -0.01053443  0.01752296  1
  Zn  Zn81  1  0.02424679  0.34236131  0.57696015  1
  Zn  Zn82  1  0.66475674  0.19230095  0.17301294  1
  Zn  Zn83  1  0.53013808  0.87343523  0.60372255  1
  Zn  Zn84  1  0.38986873  0.72000113  0.89535782  1
  Zn  Zn85  1  0.91649711  0.27267561  0.45236667  1
  Zn  Zn86  1  0.33246105  0.13902235  0.55538870  1
  Zn  Zn87  1  0.33958888  0.53489077  0.58458124  1
  Zn  Zn88  1  0.57201867  0.30184583  0.08345664  1
  Zn  Zn89  1  0.24491143  0.77400834  0.43678303  1
  Zn  Zn90  1  0.64674637  0.29296238  0.66075757  1
  Zn  Zn91  1  0.53214017  0.06989169  0.30842319  1
  Zn  Zn92  1  0.10742749  0.79515178  0.08666660  1
  Zn  Zn93  1  0.80099465  0.07147103  0.52752234  1
  Zn  Zn94  1  0.19926907  0.91448922  0.98408813  1
  Zn  Zn95  1  0.42160452  1.03860971  0.02426115  1
  Zn  Zn96  1  0.56658134  0.53971749  0.31218746  1
  Zn  Zn97  1  0.26330405  0.33619737  0.34564761  1
  Zn  Zn98  1  0.80623314  0.55955516  0.08165668  1
  Zn  Zn99  1  0.20335811  0.95617030  0.46588088  1
  Zn  Zn100  1  -0.02888408  0.18038076  0.84458197  1
  Zn  Zn101  1  0.69489014  0.68002311  0.12934009  1
  O  O102  1  0.19409186  0.07330022  0.16985073  1
  O  O103  1  0.05714825  0.08157077  0.65169263  1
  O  O104  1  0.11959054  0.58210976  0.13088366  1
  O  O105  1  0.11107939  0.62494819  0.58536709  1
  O  O106  1  0.59075995  0.11182462  0.15090945  1
  O  O107  1  0.62360446  0.08424254  0.56902740  1
  O  O108  1  0.60875384  0.61069017  0.12375520  1
  O  O109  1  0.67453274  0.68559755  0.62029304  1
  O  O110  1  0.36312904  0.36542977  0.39673304  1
  O  O111  1  0.42995952  0.42224086  0.87425263  1
  O  O112  1  0.34010052  0.91448798  0.39668534  1
  O  O113  1  0.35718977  0.82424974  0.88584395  1
  O  O114  1  0.86469363  0.33916421  0.36169479  1
  O  O115  1  0.86542444  0.21279895  0.83668658  1
  O  O116  1  0.97211489  0.87148020  0.38102857  1
  O  O117  1  0.90045074  0.84375528  0.93774396  1
  O  O118  1  0.25430151  0.03546478  0.40656218  1
  O  O119  1  0.21012191  -0.00497195  0.85625691  1
  O  O120  1  0.21095795  0.44341566  0.36991096  1
  O  O121  1  0.28902105  0.49394471  0.86060840  1
  O  O122  1  0.74119996  0.03387778  0.33495252  1
  O  O123  1  0.80268591  0.05066391  0.96031628  1
  O  O124  1  0.78211273  0.43532668  0.36105317  1
  O  O125  1  0.73465487  0.53600635  0.91099913  1
  O  O126  1  0.25148176  0.48732456  0.17268967  1
  O  O127  1  0.24784333  0.47917681  0.58368905  1
  O  O128  1  0.30941088  0.95413971  0.17072274  1
  O  O129  1  0.24158697  0.99724425  0.60366757  1
  O  O130  1  0.71871293  0.48518902  0.09725098  1
  O  O131  1  0.73686531  0.54853686  0.70704308  1
  O  O132  1  0.68188772  0.99882382  0.11857336  1
  O  O133  1  0.75775273  0.97638353  0.57063379  1
  O  O134  1  -0.03226497  0.35687969  0.22510362  1
  O  O135  1  -0.04853928  0.38295852  0.79690305  1
  O  O136  1  0.07088363  0.90793177  0.28559486  1
  O  O137  1  0.01813594  0.90599334  0.84924888  1
  O  O138  1  0.46531846  0.37009925  0.21417036  1
  O  O139  1  0.51592299  0.39453513  0.74827511  1
  O  O140  1  0.48683641  0.87143532  0.36839538  1
  O  O141  1  0.52384224  0.83620132  0.70774593  1
  O  O142  1  0.46864315  0.13312510  0.23445164  1
  O  O143  1  0.54042891  0.11031593  0.68915301  1
  O  O144  1  0.50817125  0.61289350  0.24715371  1
  O  O145  1  0.56782553  0.71994282  0.85704674  1
  O  O146  1  0.99379404  0.06694826  0.31870354  1
  O  O147  1  1.02956926  0.11120503  0.77135320  1
  O  O148  1  1.01794794  0.60265433  0.23869874  1
  O  O149  1  1.02583605  0.67671634  0.74652684  1
  O  O150  1  0.38114676  0.27286354  -0.01953279  1
  O  O151  1  0.41199337  0.27443225  0.50799724  1
  O  O152  1  0.36646350  0.70712110  0.00580195  1
  O  O153  1  0.33853413  0.65472151  0.56556333  1
  O  O154  1  0.79514526  0.21968218  0.00045101  1
  O  O155  1  0.81113907  0.25737681  0.48979926  1
  O  O156  1  0.86897971  0.75493477  0.04629250  1
  O  O157  1  0.86997831  0.73337694  0.47155342  1
  O  O158  1  0.11790890  0.30166320  0.53351953  1
  O  O159  1  0.19415769  0.23842750  0.91396469  1
  O  O160  1  0.15637564  0.70854847  0.48037297  1
  O  O161  1  0.15801027  0.70810255  1.04029118  1
  O  O162  1  0.61546901  0.22590594  0.46926217  1
  O  O163  1  0.58285822  0.29195977  0.97100253  1
  O  O164  1  0.53709704  0.73128364  0.35228008  1
  O  O165  1  0.63973092  0.82509405  0.97313606  1
  O  O166  1  0.49483183  0.22214123  0.09330373  1
  O  O167  1  0.54405539  0.28479295  0.61133979  1
  O  O168  1  0.48653897  0.71488504  0.12067511  1
  O  O169  1  0.41367763  0.69545731  0.67962299  1
  O  O170  1  1.06358580  0.17425609  0.09638332  1
  O  O171  1  0.92933279  0.28124485  0.56717628  1
  O  O172  1  1.05580076  0.73169802  0.16240815  1
  O  O173  1  0.94238116  0.83524663  0.56072797  1
  O  O174  1  -0.03141616  0.24352187  0.28315596  1
  O  O175  1  0.02192591  0.26976877  0.88922331  1
  O  O176  1  0.04463655  0.76434199  0.33203342  1
  O  O177  1  0.00427865  0.74053858  0.90957737  1
  O  O178  1  0.50191474  0.24050291  0.36124397  1
  O  O179  1  0.50741063  0.25207742  0.86066533  1
  O  O180  1  0.47401751  0.70802425  0.37261692  1
  O  O181  1  0.49516060  0.75181583  0.85077812  1
  O  O182  1  0.14410269  0.15401623  0.49682204  1
  O  O183  1  0.28768942  0.16886532  0.97243182  1
  O  O184  1  0.21704334  0.58655884  0.47891633  1
  O  O185  1  0.22983837  0.56750216  1.02218748  1
  O  O186  1  0.72173887  0.12073314  0.46056804  1
  O  O187  1  0.65477452  0.15731709  0.99117963  1
  O  O188  1  0.75186531  0.57403905  0.50091132  1
  O  O189  1  0.74271225  0.64122476  1.02939914  1
  O  O190  1  0.24894916  0.36914034  -0.03965682  1
  O  O191  1  0.26039002  0.35036672  0.50147426  1
  O  O192  1  0.29201110  0.86679168  0.02769251  1
  O  O193  1  0.22478879  0.85563607  0.50072296  1
  O  O194  1  0.72931587  0.36282317  -0.00196879  1
  O  O195  1  0.69287183  0.36571242  0.48439611  1
  O  O196  1  0.78642651  0.89248302  0.03417037  1
  O  O197  1  0.72716145  0.89048263  0.44443862  1
  O  O198  1  0.12604802  0.46871542  0.24133458  1
  O  O199  1  0.15195487  0.49245494  0.71622967  1
  O  O200  1  0.17352350  1.00803539  0.22023253  1
  O  O201  1  0.13254585  0.93978648  0.72224129  1
  O  O202  1  0.63436264  0.49318257  0.23653732  1
  O  O203  1  0.59585412  0.61245027  0.73607943  1
  O  O204  1  0.59722055  0.99227413  0.26050420  1
  O  O205  1  0.68480844  1.00913166  0.72859576  1
  O  O206  1  0.32113734  -0.09983574  0.32994912  1
  O  O207  1  0.35481223  -0.05395381  0.74433483  1
  O  O208  1  0.33531361  0.47556663  0.29313515  1
  O  O209  1  0.37006119  0.47992416  0.76003559  1
  O  O210  1  0.92419783  0.03088829  0.30699451  1
  O  O211  1  0.87713105  -0.02809265  0.85318336  1
  O  O212  1  0.87991556  0.52526241  0.25260928  1
  O  O213  1  0.92109110  0.56355102  0.72509238  1
  O  O214  1  0.02050026  0.40779527  0.39778657  1
  O  O215  1  0.10188465  0.40626050  0.87605122  1
  O  O216  1  0.16544856  0.82024886  0.36325560  1
  O  O217  1  0.12560698  0.84553804  0.94139953  1
  O  O218  1  0.61217572  0.35766084  0.35136042  1
  O  O219  1  0.61892179  0.39908558  0.86011075  1
  O  O220  1  0.66533076  0.83286401  0.32309527  1
  O  O221  1  0.58232927  0.88963308  0.84100143  1
  O  O222  1  0.38361123  0.10484619  0.10752583  1
  O  O223  1  0.43425249  0.15420868  0.59629726  1
  O  O224  1  0.40747188  0.59921975  0.11265144  1
  O  O225  1  0.29863126  0.59374113  0.67740526  1
  O  O226  1  0.90383505  0.14259471  0.17338412  1
  O  O227  1  0.84107935  0.14364429  0.60285544  1
  O  O228  1  0.92197184  0.65594646  0.12706489  1
  O  O229  1  0.92357837  0.68483379  0.61977208  1
  O  O230  1  0.25314343  0.28399312  0.05298265  1
  O  O231  1  0.25367369  0.21741768  0.57280026  1
  O  O232  1  0.29794288  0.67625164  0.15429726  1
  O  O233  1  0.21208798  0.69709382  0.66499259  1
  O  O234  1  0.68802548  0.27116424  0.09593806  1
  O  O235  1  0.72040218  0.25080193  0.58949662  1
  O  O236  1  0.76577988  0.76114404  0.15340435  1
  O  O237  1  0.78843525  0.80984997  0.58776427  1
  O  O238  1  0.22557175  0.23890851  0.39717190  1
  O  O239  1  0.31639845  0.28548282  0.86556146  1
  O  O240  1  0.35344630  0.77030305  0.46071746  1
  O  O241  1  0.18408844  0.82591633  0.81239414  1
  O  O242  1  0.71284327  0.25142562  0.36928797  1
  O  O243  1  0.69646418  0.26508118  0.88775513  1
  O  O244  1  0.66217053  0.69162444  0.45017339  1
  O  O245  1  0.73877531  0.73679791  0.89998129  1
  O  O246  1  -0.08508255  0.09147091  0.12846465  1
  O  O247  1  -0.02680145  0.18313431  0.42298516  1
  O  O248  1  0.02416140  0.62012503  0.03340260  1
  O  O249  1  0.01904086  0.63001783  0.48026784  1
  O  O250  1  0.49446039  0.11128632  -0.02834198  1
  O  O251  1  0.51563863  0.11456816  0.48765890  1
  O  O252  1  0.61330737  0.77395120  0.01386938  1
  O  O253  1  0.49194897  0.61381879  0.50900622  1
  O  O254  1  0.52801799  0.44963475  0.50243994  1
  O  O255  1  0.58026374  0.51678525  0.98123419  1
  O  O256  1  0.50965115  0.77767409  0.54343918  1
  O  O257  1  0.45920020  0.85693317  1.00530514  1
  O  O258  1  0.98443259  0.38100982  0.45971908  1
  O  O259  1  0.97234052  0.41167813  0.96051731  1
  O  O260  1  1.06698047  0.83230371  0.46855763  1
  O  O261  1  1.01250265  0.83631845  1.03653812  1
  O  O262  1  0.48555624  0.47375420  0.35047216  1
  O  O263  1  0.47554497  0.55386980  0.82511679  1
  O  O264  1  0.44051100  1.03536717  0.36283148  1
  O  O265  1  0.32693399  1.09449761  0.79462325  1
  O  O266  1  0.98905216  0.47207806  0.36738250  1
  O  O267  1  0.98441361  0.55589600  0.89914245  1
  O  O268  1  1.10796620  0.94918411  0.40244704  1
  O  O269  1  1.01425987  0.94888168  0.91177244  1
  O  O270  1  0.05621385  0.00014522  0.11507412  1
  O  O271  1  0.01574532  0.12286656  0.69755892  1
  O  O272  1  0.01042256  0.46650113  0.13599556  1
  O  O273  1  0.02586692  0.42937231  0.63773624  1
  O  O274  1  0.49873463  0.02109493  0.11266508  1
  O  O275  1  0.50498027  -0.01548800  0.60260121  1
  O  O276  1  0.51508703  0.50777338  0.13363179  1
  O  O277  1  0.44320080  0.51428495  0.62402995  1
  O  O278  1  0.25118000  0.34016113  0.23381571  1
  O  O279  1  0.18574342  0.26438224  0.70311413  1
  O  O280  1  0.25103881  0.80927354  0.21318061  1
  O  O281  1  0.28589004  0.93597180  0.73600854  1
  O  O282  1  0.73538791  0.36161875  0.20351676  1
  O  O283  1  0.78323878  0.40441120  0.80629226  1
  O  O284  1  0.63836032  0.81597643  0.25354103  1
  O  O285  1  0.95761884  0.89839836  0.69903418  1
  O  O286  1  0.29260297  0.12804149  0.28372320  1
  O  O287  1  0.26056832  0.07170739  0.62724258  1
  O  O288  1  0.22731259  0.58893150  0.28356276  1
  O  O289  1  0.13540888  0.55342789  0.75030252  1
  O  O290  1  0.73734384  0.15790607  0.24558758  1
  O  O291  1  0.71976971  0.07022582  0.72463161  1
  O  O292  1  0.76933950  0.60373880  0.18156997  1
  O  O293  1  0.82285296  0.69442061  0.73729074  1
  O  O294  1  0.34667303  0.14108640  0.43952745  1
  O  O295  1  0.27059165  0.12497800  0.76591919  1
  O  O296  1  0.38212251  0.57856345  0.39027437  1
  O  O297  1  0.37181214  0.61681060  0.85711871  1
  O  O298  1  0.83574374  0.15553318  0.35940553  1
  O  O299  1  0.94471351  0.10080979  0.92087573  1
  O  O300  1  0.77461012  0.61474230  0.34451432  1
  O  O301  1  0.85995722  0.65284696  0.91929709  1
  O  O302  1  0.16102458  0.40210681  0.09461254  1
  O  O303  1  0.15402545  0.32404645  0.72643364  1
  O  O304  1  0.17390245  0.88410652  0.11093356  1
  O  O305  1  0.12607231  0.88928844  0.67513468  1
  O  O306  1  0.60699769  0.39895853  0.11497692  1
  O  O307  1  0.68929693  0.39762281  0.67309385  1
  O  O308  1  0.57003612  0.89472365  0.14434146  1
  O  O309  1  0.64044156  0.85655319  0.57240668  1
  O  O310  1  0.04224087  0.21685538  0.14662631  1
  O  O311  1  0.13875914  0.20042959  0.69711848  1
  O  O312  1  0.28082558  0.71569283  0.35872872  1
  O  O313  1  0.13916250  0.77377992  0.79323055  1
  O  O314  1  0.60270387  0.25084671  0.24672861  1
  O  O315  1  0.61485241  0.26781584  0.76308983  1
  O  O316  1  0.63305022  0.74303102  0.23969624  1
  O  O317  1  0.67288933  0.79742024  0.75639332  1
  O  O318  1  0.43119360  0.31657363  0.24411255  1
  O  O319  1  0.44067188  0.24308888  0.71427207  1
  O  O320  1  0.46887283  0.86233085  0.30205068  1
  O  O321  1  0.31450054  0.73004070  0.75247292  1
  O  O322  1  0.93034637  0.28938969  0.24189767  1
  O  O323  1  0.83544723  0.27508427  0.68909891  1
  O  O324  1  0.87454883  0.70061081  0.24991256  1
  O  O325  1  0.88122177  0.74567662  0.77162717  1
  O  O326  1  0.37465775  0.46870013  0.49102412  1
  O  O327  1  0.39563433  0.51451079  0.95535698  1
  O  O328  1  0.38038037  1.00714372  0.51065467  1
  O  O329  1  0.37495194  0.97892291  0.94588120  1
  O  O330  1  0.84477125  0.40553473  0.39187637  1
  O  O331  1  0.89727431  0.52843436  1.03096164  1
  O  O332  1  0.89157579  1.05036791  0.46413341  1
  O  O333  1  0.92017185  0.96143928  1.02419562  1
  O  O334  1  0.18215102  0.01531705  0.02365965  1
  O  O335  1  0.17291939  -0.00181236  0.56512047  1
  O  O336  1  0.08984291  0.50132839  0.01156317  1
  O  O337  1  0.10938437  0.51208032  0.50395945  1
  O  O338  1  0.62598290  0.00338928  -0.03709873  1
  O  O339  1  0.60948681  0.00699896  0.43147834  1
  O  O340  1  0.56738025  0.58567597  -0.03807443  1
  O  O341  1  0.60646638  0.53878957  0.60214190  1
  O  O342  1  0.34470288  0.38959017  0.11634450  1
  O  O343  1  0.39218990  0.35522455  0.61247553  1
  O  O344  1  0.37712730  0.80876421  0.13483033  1
  O  O345  1  0.30935270  0.78149780  0.61130235  1
  O  O346  1  0.83908413  0.39403601  0.10709217  1
  O  O347  1  0.84175375  0.43343878  0.66247683  1
  O  O348  1  0.89867918  0.84326804  0.14967287  1
  O  O349  1  0.97065996  0.96734343  0.70446124  1
  O  O350  1  0.14823208  0.11664798  0.33379679  1
  O  O351  1  0.16295380  0.04240528  0.83462558  1
  O  O352  1  0.10615960  0.60420301  0.38770382  1
  O  O353  1  0.13360471  0.62534062  0.91174266  1
  O  O354  1  0.61913629  0.13650879  0.35359081  1
  O  O355  1  0.59090722  0.11118863  0.84752661  1
  O  O356  1  0.63599348  0.53656597  0.39916896  1
  O  O357  1  0.69323073  0.59109233  0.86482090  1
