# generated using pymatgen
data_V51Zn51O256
_symmetry_space_group_name_H-M   'P 1'
_cell_length_a   17.27133347
_cell_length_b   17.16041605
_cell_length_c   17.13752163
_cell_angle_alpha   89.46248803
_cell_angle_beta   89.91999028
_cell_angle_gamma   90.21088511
_symmetry_Int_Tables_number   1
_chemical_formula_structural   V51Zn51O256
_chemical_formula_sum   'V51 Zn51 O256'
_cell_volume   5079.01155247
_cell_formula_units_Z   1
loop_
 _symmetry_equiv_pos_site_id
 _symmetry_equiv_pos_as_xyz
  1  'x, y, z'
loop_
 _atom_site_type_symbol
 _atom_site_label
 _atom_site_symmetry_multiplicity
 _atom_site_fract_x
 _atom_site_fract_y
 _atom_site_fract_z
 _atom_site_occupancy
  V  V0  1  0.75972187  0.74798997  -0.00330522  1
  V  V1  1  0.36487947  0.50225934  0.40770565  1
  V  V2  1  0.77851518  0.89715768  0.63827824  1
  V  V3  1  0.24478468  0.86485843  0.14130870  1
  V  V4  1  0.48410460  0.88219553  0.38524130  1
  V  V5  1  0.57481175  0.06267072  0.53047561  1
  V  V6  1  0.48425212  0.74839830  0.25850837  1
  V  V7  1  0.34935535  0.85521107  0.50950917  1
  V  V8  1  0.02107003  0.86737991  0.35143643  1
  V  V9  1  0.10443035  0.49740498  0.64690112  1
  V  V10  1  0.38469194  0.40365283  -0.00318354  1
  V  V11  1  -0.01281682  0.47940714  0.01725872  1
  V  V12  1  0.36494922  0.64544587  0.73384973  1
  V  V13  1  0.37493997  0.22770749  0.63936527  1
  V  V14  1  0.25987546  0.62563781  0.91376498  1
  V  V15  1  0.13736199  0.26613206  0.86406445  1
  V  V16  1  0.25716009  0.21940949  0.00349990  1
  V  V17  1  0.04035692  0.26092790  0.26772530  1
  V  V18  1  0.61164452  0.11330045  0.00414206  1
  V  V19  1  0.52383529  0.50427168  0.52027589  1
  V  V20  1  0.01306479  0.14563059  0.59657252  1
  V  V21  1  0.12363508  0.02676926  0.12895129  1
  V  V22  1  0.85216275  0.11735524  0.25278624  1
  V  V23  1  0.41022688  0.24006063  0.12038278  1
  V  V24  1  0.61454231  0.75838764  0.40147819  1
  V  V25  1  0.85499601  0.23034763  0.13226396  1
  V  V26  1  0.10991576  0.11949455  -0.01544178  1
  V  V27  1  0.85287830  0.34524810  0.00689055  1
  V  V28  1  0.26182562  0.03740207  0.23361519  1
  V  V29  1  0.60518977  0.76378965  0.90114076  1
  V  V30  1  0.00568017  -0.01183577  0.48937104  1
  V  V31  1  0.39281705  -0.06238482  0.86469822  1
  V  V32  1  0.24912188  -0.06062870  0.72668814  1
  V  V33  1  0.63640725  0.26118444  0.85473511  1
  V  V34  1  0.10896733  0.74603023  0.89013398  1
  V  V35  1  0.75466512  0.26625932  0.50917754  1
  V  V36  1  0.24701231  0.37088405  0.12178659  1
  V  V37  1  0.34697520  0.85212286  0.00446536  1
  V  V38  1  0.52073233  0.65370834  0.62407488  1
  V  V39  1  -0.02337874  0.42902649  0.34107459  1
  V  V40  1  0.77073878  0.87263191  0.11769047  1
  V  V41  1  0.27515745  0.24748363  0.49487166  1
  V  V42  1  0.36279429  0.01658014  0.38796356  1
  V  V43  1  0.48878787  0.40526196  0.85947786  1
  V  V44  1  0.57926213  0.89005283  0.78606267  1
  V  V45  1  0.62246981  0.61423535  0.00989433  1
  V  V46  1  0.86991069  -0.00714135  0.36910174  1
  V  V47  1  0.41130678  0.13156601  0.25027119  1
  V  V48  1  0.24506859  0.49120199  0.25821666  1
  V  V49  1  0.63521438  0.87854760  0.25593633  1
  V  V50  1  0.49582310  0.61695589  0.13649314  1
  Zn  Zn51  1  0.42489514  0.68568946  0.45496865  1
  Zn  Zn52  1  0.36085574  0.27618045  0.84538990  1
  Zn  Zn53  1  0.57984779  0.20557904  0.67077143  1
  Zn  Zn54  1  0.06739557  0.05304187  0.30344823  1
  Zn  Zn55  1  0.70104307  0.93628451  0.94645311  1
  Zn  Zn56  1  0.43116456  0.81470070  0.69039958  1
  Zn  Zn57  1  0.72238746  0.47980903  0.51890427  1
  Zn  Zn58  1  0.44861253  0.48623540  0.70379544  1
  Zn  Zn59  1  0.31153925  0.68221230  0.20068407  1
  Zn  Zn60  1  0.31949904  0.56278174  0.07782757  1
  Zn  Zn61  1  0.43701674  0.68378293  0.95833305  1
  Zn  Zn62  1  0.97027928  0.38113895  0.14920453  1
  Zn  Zn63  1  0.94783995  0.67693118  0.39432260  1
  Zn  Zn64  1  0.68414269  0.04721131  0.17874177  1
  Zn  Zn65  1  0.95592534  0.22697571  0.93457440  1
  Zn  Zn66  1  0.94312432  0.94379471  0.18733488  1
  Zn  Zn67  1  0.97860486  0.16382048  0.39795900  1
  Zn  Zn68  1  0.19970733  0.92346539  0.40929310  1
  Zn  Zn69  1  0.08310266  0.29789024  0.06684303  1
  Zn  Zn70  1  0.86694341  0.29139152  0.34604923  1
  Zn  Zn71  1  0.82750814  0.33797752  0.81407912  1
  Zn  Zn72  1  0.18625353  0.44553209  0.95131531  1
  Zn  Zn73  1  0.54770576  0.85545363  0.57062623  1
  Zn  Zn74  1  0.93305972  0.43722143  0.68124935  1
  Zn  Zn75  1  0.13817269  0.90355218  -0.00182776  1
  Zn  Zn76  1  0.01826023  0.34476573  0.54936271  1
  Zn  Zn77  1  0.28684871  0.78231238  0.81312097  1
  Zn  Zn78  1  0.18388768  0.44281584  0.45099005  1
  Zn  Zn79  1  0.16195153  0.66972087  0.72517298  1
  Zn  Zn80  1  0.95506187  0.68429590  0.99072286  1
  Zn  Zn81  1  0.92600230  0.50797986  0.51613646  1
  Zn  Zn82  1  0.18022053  0.25266375  0.65550005  1
  Zn  Zn83  1  0.67401137  0.72784713  0.70835942  1
  Zn  Zn84  1  0.55439672  0.59730261  0.81518768  1
  Zn  Zn85  1  0.41679388  0.93244618  0.19064247  1
  Zn  Zn86  1  0.40896024  0.44691042  0.17150546  1
  Zn  Zn87  1  0.28304869  0.06772445  0.57135812  1
  Zn  Zn88  1  0.51505483  0.26341892  -0.02186026  1
  Zn  Zn89  1  0.82220846  0.55945731  0.01089711  1
  Zn  Zn90  1  0.80220684  0.81961664  0.33289372  1
  Zn  Zn91  1  0.53036364  0.58834436  0.35297643  1
  Zn  Zn92  1  0.31892923  0.30497259  0.29844293  1
  Zn  Zn93  1  0.61997382  0.75469569  0.12408089  1
  Zn  Zn94  1  0.94793298  0.99943251  0.67736736  1
  Zn  Zn95  1  0.10833468  0.06492510  0.79154603  1
  Zn  Zn96  1  0.57189070  0.04626821  0.33980875  1
  Zn  Zn97  1  0.54300036  0.30125528  0.53736466  1
  Zn  Zn98  1  0.09274693  0.55535841  0.86032297  1
  Zn  Zn99  1  0.44578667  0.17503933  0.44929969  1
  Zn  Zn100  1  0.33293416  0.83774925  0.30081915  1
  Zn  Zn101  1  0.43641440  0.12112351  0.92063278  1
  O  O102  1  0.12491427  0.12437110  0.10224395  1
  O  O103  1  0.12845482  0.14804051  0.62388008  1
  O  O104  1  0.07639241  0.65342114  0.14293649  1
  O  O105  1  0.13077184  0.59598270  0.64164538  1
  O  O106  1  0.63474243  0.11205036  0.10089428  1
  O  O107  1  0.61256761  0.11988066  0.60645523  1
  O  O108  1  0.60625847  0.63791326  0.12270717  1
  O  O109  1  0.61854791  0.66335217  0.63295997  1
  O  O110  1  0.38784567  0.40796152  0.33872348  1
  O  O111  1  0.37977309  0.38931997  0.88794382  1
  O  O112  1  0.36387438  0.89505208  0.39141089  1
  O  O113  1  0.32071259  0.86180910  0.89315683  1
  O  O114  1  0.87904712  0.40310007  0.35719190  1
  O  O115  1  0.88456735  0.31758936  0.90683161  1
  O  O116  1  0.88668040  0.88832732  0.36158271  1
  O  O117  1  0.96278427  0.87019468  0.98641685  1
  O  O118  1  0.26546121  0.00581824  0.35088486  1
  O  O119  1  0.29471970  0.12200557  0.79611144  1
  O  O120  1  0.25498029  0.47859454  0.37116315  1
  O  O121  1  0.20990934  0.53955009  0.88298878  1
  O  O122  1  0.77628679  -0.00524712  0.38028524  1
  O  O123  1  0.79609773  -0.01308339  0.88699988  1
  O  O124  1  0.75102555  0.57855909  0.36557691  1
  O  O125  1  0.70470647  0.56381109  0.73416715  1
  O  O126  1  0.29188978  0.47779546  0.14771388  1
  O  O127  1  0.18524362  0.44924358  0.67667566  1
  O  O128  1  0.25170932  1.02312217  0.13507892  1
  O  O129  1  0.24437042  0.98646554  0.63763123  1
  O  O130  1  0.70911769  0.43565351  0.16127146  1
  O  O131  1  0.81729690  0.51769497  0.53820865  1
  O  O132  1  0.72941180  0.96292549  0.11809821  1
  O  O133  1  0.77070558  0.99792127  0.62633435  1
  O  O134  1  0.00537890  0.37618152  0.25618371  1
  O  O135  1  -0.04838050  0.46039923  0.82076172  1
  O  O136  1  0.00052089  0.87305375  0.25375285  1
  O  O137  1  -0.00061577  0.75318407  0.57193001  1
  O  O138  1  0.50427954  0.38017829  0.25598649  1
  O  O139  1  0.46989449  0.39212546  0.76218917  1
  O  O140  1  0.46202407  0.86470310  0.27150772  1
  O  O141  1  0.53884546  0.86920864  0.69168363  1
  O  O142  1  0.50592918  0.12172522  0.27133277  1
  O  O143  1  0.48414755  0.08414448  0.74165917  1
  O  O144  1  0.50149062  0.64109634  0.25585186  1
  O  O145  1  0.49083058  0.63896272  0.73000134  1
  O  O146  1  1.03025468  0.15623234  0.28670619  1
  O  O147  1  1.07835654  0.12678118  0.68778092  1
  O  O148  1  0.93756921  0.65760823  0.22809980  1
  O  O149  1  1.02395665  0.76514660  0.73709673  1
  O  O150  1  0.36404651  0.22625803  0.02658325  1
  O  O151  1  0.37536765  0.23750247  0.51622663  1
  O  O152  1  0.37243157  0.75812753  0.01256870  1
  O  O153  1  0.34729929  0.75914927  0.48753302  1
  O  O154  1  0.89174736  0.23742262  0.03004523  1
  O  O155  1  0.85436399  0.29314139  0.49624698  1
  O  O156  1  0.85792058  0.73090452  0.00628843  1
  O  O157  1  0.82364275  0.70271871  0.48581053  1
  O  O158  1  0.13204946  0.31044930  0.55427937  1
  O  O159  1  0.14080256  0.23456562  0.99076065  1
  O  O160  1  0.11946420  0.70900481  0.46037800  1
  O  O161  1  0.05719681  0.71384904  0.96916082  1
  O  O162  1  0.65352732  0.26481725  0.48077159  1
  O  O163  1  0.62186210  0.21170186  0.95123005  1
  O  O164  1  0.60292640  0.78511980  0.49747697  1
  O  O165  1  0.63592698  0.74930002  1.00492125  1
  O  O166  1  0.50335890  0.25245039  0.09610726  1
  O  O167  1  0.47760263  0.23962656  0.62403114  1
  O  O168  1  0.49815413  0.75126065  0.15904812  1
  O  O169  1  0.49074508  0.74984402  0.61235619  1
  O  O170  1  1.02694645  0.26762234  0.16056647  1
  O  O171  1  0.99618072  0.24264054  0.59189028  1
  O  O172  1  1.07379282  0.72153800  0.16325150  1
  O  O173  1  0.95575818  0.70466117  0.60115263  1
  O  O174  1  -0.02087362  0.27338142  0.36462598  1
  O  O175  1  0.03848949  0.25730009  0.86392281  1
  O  O176  1  0.00276089  0.76965917  0.37379573  1
  O  O177  1  0.03482864  0.79518060  0.80849973  1
  O  O178  1  0.51732276  0.25840256  0.44022131  1
  O  O179  1  0.45108836  0.22525654  0.89110294  1
  O  O180  1  0.48933386  0.76287118  0.38049619  1
  O  O181  1  0.50806913  0.75971058  0.90801520  1
  O  O182  1  0.23927636  0.15499059  0.50483982  1
  O  O183  1  0.24571051  0.12450227  1.00285120  1
  O  O184  1  0.22587206  0.63446273  0.46526001  1
  O  O185  1  0.24876249  0.61596737  1.01270452  1
  O  O186  1  0.75955281  0.16735862  0.52774049  1
  O  O187  1  0.77414520  0.04653836  0.83909517  1
  O  O188  1  0.77336892  0.66343288  0.51871380  1
  O  O189  1  0.73462940  0.63110384  1.01243803  1
  O  O190  1  0.27485235  0.39534285  0.00951647  1
  O  O191  1  0.18671834  0.32951101  0.49639445  1
  O  O192  1  0.24411479  0.86422542  0.02556026  1
  O  O193  1  0.25361941  0.88548320  0.49707717  1
  O  O194  1  0.75935962  0.34261421  0.00221750  1
  O  O195  1  0.72927334  0.37063802  0.50447626  1
  O  O196  1  0.76440569  0.86266059  0.00723949  1
  O  O197  1  0.85468432  0.86184391  0.58124433  1
  O  O198  1  0.15162302  0.48585734  0.24878584  1
  O  O199  1  0.08819595  0.51442593  0.75033004  1
  O  O200  1  0.15207626  1.03211464  0.23686500  1
  O  O201  1  0.18382199  0.98497235  0.78689688  1
  O  O202  1  0.62122722  0.48681151  0.29717737  1
  O  O203  1  0.64125069  0.52895391  0.75696176  1
  O  O204  1  0.62309465  0.98439523  0.25968111  1
  O  O205  1  0.61570310  0.97781796  0.78219299  1
  O  O206  1  0.37769362  0.02345366  0.24735408  1
  O  O207  1  0.34593643  -0.05425432  0.76755285  1
  O  O208  1  0.37658377  0.47003034  0.28301152  1
  O  O209  1  0.36997420  0.54423750  0.75397579  1
  O  O210  1  0.88251866  0.01160796  0.25631125  1
  O  O211  1  1.00036234  0.01358195  0.78180543  1
  O  O212  1  0.76056973  0.43565002  0.21030392  1
  O  O213  1  0.86553499  0.56399949  0.71318301  1
  O  O214  1  0.07864254  0.43106933  0.39999340  1
  O  O215  1  0.15114786  0.36209100  0.88539349  1
  O  O216  1  0.12178665  0.87595623  0.35043765  1
  O  O217  1  0.12046126  0.84449129  0.90553383  1
  O  O218  1  0.65049572  0.42902747  0.32873022  1
  O  O219  1  0.57830981  0.34606182  0.86432209  1
  O  O220  1  0.58514013  0.88480767  0.37075071  1
  O  O221  1  0.62177802  0.87026605  0.89628721  1
  O  O222  1  0.41036345  0.13533625  0.14402070  1
  O  O223  1  0.35202012  0.13115086  0.63886295  1
  O  O224  1  0.39160317  0.63425774  0.13130196  1
  O  O225  1  0.35925945  0.65229329  0.63824341  1
  O  O226  1  0.89112354  0.12999723  0.15550109  1
  O  O227  1  0.93260633  0.10811392  0.64349997  1
  O  O228  1  0.82356197  0.57159913  0.15249391  1
  O  O229  1  0.84051881  0.59886699  0.65536568  1
  O  O230  1  0.24753743  0.26806221  0.10357770  1
  O  O231  1  0.27829681  0.27763589  0.60598504  1
  O  O232  1  0.24143619  0.76728639  0.16154267  1
  O  O233  1  0.21373371  0.72975674  0.60739401  1
  O  O234  1  0.76329225  0.21871332  0.11619950  1
  O  O235  1  0.75959024  0.27330118  0.60914516  1
  O  O236  1  0.73653473  0.77045681  0.11567574  1
  O  O237  1  0.75585067  0.79438154  0.66173798  1
  O  O238  1  0.28342381  0.27629798  0.39827381  1
  O  O239  1  0.26225174  0.24853965  0.90340343  1
  O  O240  1  0.15142968  0.64165055  0.46748800  1
  O  O241  1  0.21430869  0.72221511  0.90110018  1
  O  O242  1  0.77600944  0.25110808  0.40308687  1
  O  O243  1  0.72758284  0.29009160  0.83417976  1
  O  O244  1  0.71134919  0.78053648  0.38473243  1
  O  O245  1  0.73859832  0.74980858  0.90097090  1
  O  O246  1  0.01429516  0.13458505  -0.01585522  1
  O  O247  1  0.01089292  0.11512563  0.49495816  1
  O  O248  1  -0.06658956  0.57664637  -0.00832190  1
  O  O249  1  -0.04365672  0.59775403  0.46535466  1
  O  O250  1  0.51320208  0.10079079  -0.00109719  1
  O  O251  1  0.48177569  0.09239638  0.51891347  1
  O  O252  1  0.50596539  0.62735783  0.02780339  1
  O  O253  1  0.49657011  0.62555781  0.52152914  1
  O  O254  1  0.50495129  0.40827314  0.53368213  1
  O  O255  1  0.48435224  0.37437122  0.98205694  1
  O  O256  1  0.46401944  0.87432311  0.48710120  1
  O  O257  1  0.53120807  0.94960500  1.06761301  1
  O  O258  1  1.01448636  0.42161420  0.45182494  1
  O  O259  1  0.99802662  0.37277456  1.02275401  1
  O  O260  1  1.02021109  0.89155457  0.47066881  1
  O  O261  1  1.01916717  0.87058787  1.04013406  1
  O  O262  1  0.48201285  0.50953747  0.41663554  1
  O  O263  1  0.51238843  0.50037890  0.86464512  1
  O  O264  1  0.47181314  0.98821246  0.37242943  1
  O  O265  1  0.48359472  0.90983049  0.82994101  1
  O  O266  1  0.97021337  0.52197963  0.31826218  1
  O  O267  1  0.95868688  0.53080876  0.83948248  1
  O  O268  1  1.00331113  0.98805251  0.36590999  1
  O  O269  1  0.94658848  1.04564597  0.84366229  1
  O  O270  1  0.02888502  0.00674108  0.14565842  1
  O  O271  1  0.02014303  -0.01067460  0.59036035  1
  O  O272  1  -0.00079723  0.49427571  0.11295779  1
  O  O273  1  -0.00211210  0.52421407  0.62758857  1
  O  O274  1  0.50052076  -0.01088758  0.11924224  1
  O  O275  1  0.47551541  0.03335193  0.69320550  1
  O  O276  1  0.49518847  0.51904455  0.15270320  1
  O  O277  1  0.50916722  0.53165800  0.62410733  1
  O  O278  1  0.25681377  0.36898396  0.22820149  1
  O  O279  1  0.26601645  0.39354139  0.75092037  1
  O  O280  1  0.26821614  0.90438846  0.23631878  1
  O  O281  1  0.22877623  0.84028756  0.73178403  1
  O  O282  1  0.69883640  0.28848166  0.23937870  1
  O  O283  1  0.84497111  0.39957802  0.72729762  1
  O  O284  1  0.73572831  0.86394758  0.24356295  1
  O  O285  1  0.71683815  0.89646285  0.72390714  1
  O  O286  1  0.28207327  0.13244546  0.24702035  1
  O  O287  1  0.24277584  0.12880023  0.74820899  1
  O  O288  1  0.26576097  0.58948544  0.24619944  1
  O  O289  1  0.26298863  0.66229824  0.76869298  1
  O  O290  1  0.75490792  0.10438075  0.24743597  1
  O  O291  1  0.81436158  0.17234584  0.73716707  1
  O  O292  1  0.76723347  0.60208392  0.18406091  1
  O  O293  1  0.71903112  0.63432444  0.76661058  1
  O  O294  1  0.38560650  0.11962765  0.36514751  1
  O  O295  1  0.38228049  0.03437042  0.88658894  1
  O  O296  1  0.36489023  0.60327084  0.40107629  1
  O  O297  1  0.35850096  0.62952005  0.89749075  1
  O  O298  1  0.88368327  0.11308814  0.35610015  1
  O  O299  1  0.93039917  0.11676149  0.83616302  1
  O  O300  1  0.85998223  0.71477540  0.31924485  1
  O  O301  1  0.89899409  0.68850658  0.83000070  1
  O  O302  1  0.15340276  0.39025425  0.10023851  1
  O  O303  1  0.04592671  0.40253686  0.66194594  1
  O  O304  1  0.15126069  0.90829684  0.12570642  1
  O  O305  1  0.17124699  0.77375553  0.57098687  1
  O  O306  1  0.55813103  0.33989558  0.23278565  1
  O  O307  1  0.61027721  0.30615619  0.62600428  1
  O  O308  1  0.60573035  0.86507727  0.16305491  1
  O  O309  1  0.71697061  0.89634081  0.55942608  1
  O  O310  1  0.12951538  0.27958685  0.29079614  1
  O  O311  1  0.16295036  0.25882138  0.76569440  1
  O  O312  1  0.09893520  0.62315843  0.30800059  1
  O  O313  1  0.08745232  0.75716664  0.69399811  1
  O  O314  1  0.66163901  0.23162404  0.26125487  1
  O  O315  1  0.60480462  0.20619665  0.77961198  1
  O  O316  1  0.59396558  0.77537659  0.28039327  1
  O  O317  1  0.61645595  0.77562265  0.79128693  1
  O  O318  1  0.39371804  0.24369300  0.23340865  1
  O  O319  1  0.36144277  0.25496725  0.73504494  1
  O  O320  1  0.37725248  0.74045347  0.27172535  1
  O  O321  1  0.38837913  0.74886500  0.76999088  1
  O  O322  1  0.85788377  0.23136560  0.24883621  1
  O  O323  1  0.86614608  0.22163452  0.73990713  1
  O  O324  1  0.88704445  0.70861264  0.23789595  1
  O  O325  1  0.87070815  0.72348452  0.77410574  1
  O  O326  1  0.34882672  0.47281145  0.49762239  1
  O  O327  1  0.39432206  0.49893664  1.01166631  1
  O  O328  1  0.34678875  1.02021679  0.48426547  1
  O  O329  1  0.42083651  0.91544658  0.97315147  1
  O  O330  1  0.80318840  0.54673842  0.32947794  1
  O  O331  1  0.87203525  0.45242167  1.00298158  1
  O  O332  1  0.90453023  1.00279857  0.47457179  1
  O  O333  1  0.96570464  0.92006310  0.93122583  1
  O  O334  1  0.12366991  0.01585207  0.01046276  1
  O  O335  1  0.12905835  0.01850169  0.46187640  1
  O  O336  1  0.07310954  0.50021652  -0.03985700  1
  O  O337  1  0.12938228  0.48095189  0.54916074  1
  O  O338  1  0.65478131  0.03694510  -0.04030249  1
  O  O339  1  0.57591012  -0.03410281  0.55757217  1
  O  O340  1  0.62422027  0.52033379  0.00884886  1
  O  O341  1  0.62188358  0.51192914  0.50497073  1
  O  O342  1  0.38319646  0.35588011  0.10537812  1
  O  O343  1  0.30230150  0.40893583  0.69223357  1
  O  O344  1  0.35292731  0.88199140  0.11274251  1
  O  O345  1  0.36738502  0.86372816  0.60785589  1
  O  O346  1  0.86630493  0.34157924  0.12363400  1
  O  O347  1  0.92611419  0.40789654  0.57060764  1
  O  O348  1  0.86711812  0.87994683  0.13440561  1
  O  O349  1  0.86395507  0.92212831  0.69902746  1
  O  O350  1  0.13424855  0.07762534  0.41410082  1
  O  O351  1  0.13252760  0.13013889  0.88260502  1
  O  O352  1  0.14202220  0.67942521  0.30024628  1
  O  O353  1  0.09680873  0.66222543  0.82185344  1
  O  O354  1  0.61575477  0.07498365  0.43768458  1
  O  O355  1  0.76362562  0.11353373  0.86824821  1
  O  O356  1  0.60721242  0.65784652  0.39486446  1
  O  O357  1  0.60806408  0.64472083  0.90363993  1
