# generated using pymatgen
data_V51Zn51O256
_symmetry_space_group_name_H-M   'P 1'
_cell_length_a   17.47668063
_cell_length_b   17.53796831
_cell_length_c   17.91071912
_cell_angle_alpha   90.28869965
_cell_angle_beta   89.84447879
_cell_angle_gamma   89.48457123
_symmetry_Int_Tables_number   1
_chemical_formula_structural   V51Zn51O256
_chemical_formula_sum   'V51 Zn51 O256'
_cell_volume   5489.42067603
_cell_formula_units_Z   1
loop_
 _symmetry_equiv_pos_site_id
 _symmetry_equiv_pos_as_xyz
  1  'x, y, z'
loop_
 _atom_site_type_symbol
 _atom_site_label
 _atom_site_symmetry_multiplicity
 _atom_site_fract_x
 _atom_site_fract_y
 _atom_site_fract_z
 _atom_site_occupancy
  V  V0  1  0.14674200  0.70109649  0.89443744  1
  V  V1  1  0.33722281  -0.04073392  0.85656388  1
  V  V2  1  0.79316287  0.69280545  0.02867560  1
  V  V3  1  -0.05318725  0.19998343  0.24985033  1
  V  V4  1  0.88654478  0.78688731  0.64833476  1
  V  V5  1  0.36887126  0.86290555  0.01362730  1
  V  V6  1  0.86220931  0.38834772  0.01449531  1
  V  V7  1  0.10561300  0.92868167  0.32546110  1
  V  V8  1  0.60300925  0.26385512  0.34746831  1
  V  V9  1  -0.04869124  0.19559397  0.63105155  1
  V  V10  1  0.26118465  0.48575940  0.75378558  1
  V  V11  1  0.01238752  0.48293434  0.02416118  1
  V  V12  1  0.19567531  0.65057488  0.39431450  1
  V  V13  1  0.69412645  0.39795298  0.13654064  1
  V  V14  1  0.30493210  0.10264620  0.35158850  1
  V  V15  1  0.13526145  0.80673042  0.77190347  1
  V  V16  1  0.34363462  0.10128248  0.72900323  1
  V  V17  1  0.28007914  0.48507311  0.27000135  1
  V  V18  1  0.85108803  0.40186517  0.51795664  1
  V  V19  1  -0.03475403  0.25727070  0.80318377  1
  V  V20  1  0.25851399  0.73043482  0.03485497  1
  V  V21  1  0.88995177  0.51014605  0.28637488  1
  V  V22  1  0.27292131  0.32174076  0.59312849  1
  V  V23  1  0.66903320  0.53530254  0.26537785  1
  V  V24  1  0.86575624  0.86084514  -0.03391141  1
  V  V25  1  0.59592509  0.22461442  0.89450432  1
  V  V26  1  0.67039365  0.39439215  0.83624380  1
  V  V27  1  0.39070159  0.60903734  0.78897787  1
  V  V28  1  0.76398689  0.63038934  0.85117804  1
  V  V29  1  0.11510803  0.03344526  0.61922267  1
  V  V30  1  0.33886214  0.67179872  0.63725301  1
  V  V31  1  0.09629935  0.06684269  -0.04035631  1
  V  V32  1  0.78239482  0.64979564  0.39000522  1
  V  V33  1  0.71437516  0.31607272  0.46499415  1
  V  V34  1  0.88083123  0.59932633  0.74390180  1
  V  V35  1  0.44557079  0.74756151  0.27795184  1
  V  V36  1  0.23179328  0.27966971  -0.01961944  1
  V  V37  1  -0.02257093  0.07001604  0.10090239  1
  V  V38  1  0.46055401  0.17464847  0.62885407  1
  V  V39  1  0.35136389  0.21427298  0.07001226  1
  V  V40  1  0.86326406  0.21022345  0.09349244  1
  V  V41  1  0.67472808  0.01309948  0.58394184  1
  V  V42  1  0.10865659  0.60680451  0.53365606  1
  V  V43  1  0.72242485  0.17554505  -0.00158250  1
  V  V44  1  -0.01594080  0.08679928  0.51686818  1
  V  V45  1  0.51839345  0.49572046  -0.00142137  1
  V  V46  1  0.72652276  0.83996993  0.11650388  1
  V  V47  1  0.60827546  0.73774585  0.82412779  1
  V  V48  1  0.60492614  0.64606004  0.05935885  1
  V  V49  1  0.11206736  0.30105677  0.86948826  1
  V  V50  1  0.00509391  0.56221220  0.64893352  1
  Zn  Zn51  1  0.59265076  0.64807857  0.37288848  1
  Zn  Zn52  1  0.08882030  0.07547676  0.22520969  1
  Zn  Zn53  1  0.17042365  0.03210070  0.79145373  1
  Zn  Zn54  1  0.97290353  0.78333175  0.81244049  1
  Zn  Zn55  1  0.57009482  0.55863840  0.81686851  1
  Zn  Zn56  1  0.52218176  0.80213030  0.08981557  1
  Zn  Zn57  1  0.27550024  0.28243884  0.77173205  1
  Zn  Zn58  1  0.75228403  0.22922689  0.63195515  1
  Zn  Zn59  1  0.34987069  0.90429725  0.33193142  1
  Zn  Zn60  1  0.72186846  0.50779608  0.99083047  1
  Zn  Zn61  1  0.86962217  0.54960535  0.10158617  1
  Zn  Zn62  1  0.18254703  0.62331680  0.71915294  1
  Zn  Zn63  1  0.34479092  0.56041309  0.08681203  1
  Zn  Zn64  1  0.44939368  0.71709480  0.94775931  1
  Zn  Zn65  1  0.18063918  1.04359257  0.46353455  1
  Zn  Zn66  1  0.89766329  0.59740939  0.51933130  1
  Zn  Zn67  1  1.00547441  0.92981333  0.68565867  1
  Zn  Zn68  1  0.10769492  0.50872288  0.85714079  1
  Zn  Zn69  1  0.71343400  0.70703710  0.20797522  1
  Zn  Zn70  1  0.84066589  0.39835056  0.72461436  1
  Zn  Zn71  1  0.18775019  0.89801259  0.93868359  1
  Zn  Zn72  1  0.71394396  0.71362055  0.68381356  1
  Zn  Zn73  1  0.35930492  0.71332183  0.46465379  1
  Zn  Zn74  1  0.54222088  0.13167660  0.47323039  1
  Zn  Zn75  1  0.00228115  0.37027925  0.59139533  1
  Zn  Zn76  1  0.56823709  0.91684634  0.48360291  1
  Zn  Zn77  1  0.02001205  0.28275621  0.01299149  1
  Zn  Zn78  1  0.66704359  0.80777149  0.97092788  1
  Zn  Zn79  1  0.39804093  0.21148086  0.88267823  1
  Zn  Zn80  1  0.18853481  0.43683441  0.45309594  1
  Zn  Zn81  1  0.79417068  0.27867252  0.85929891  1
  Zn  Zn82  1  0.61079741  0.14735408  0.73118164  1
  Zn  Zn83  1  0.30207896  0.77982015  0.79147148  1
  Zn  Zn84  1  0.95258736  0.66565172  0.92540785  1
  Zn  Zn85  1  0.76954616  0.37406831  0.31033568  1
  Zn  Zn86  1  0.17608928  0.14783129  0.09929798  1
  Zn  Zn87  1  0.38412380  0.47334742  0.65761840  1
  Zn  Zn88  1  0.52394078  0.30788728  0.51899838  1
  Zn  Zn89  1  0.92174529  0.26318310  0.43738158  1
  Zn  Zn90  1  0.08783413  0.50192646  0.31422495  1
  Zn  Zn91  1  0.72879337  0.82904587  0.41815044  1
  Zn  Zn92  1  0.42420425  0.35970323  0.31389557  1
  Zn  Zn93  1  0.12122347  0.23382384  0.67579388  1
  Zn  Zn94  1  0.68191081  0.49804434  0.44336925  1
  Zn  Zn95  1  0.53957586  0.29250736  0.03984227  1
  Zn  Zn96  1  -0.01448388  0.92129389  0.49702595  1
  Zn  Zn97  1  0.37187248  0.24975417  0.44783863  1
  Zn  Zn98  1  0.80348787  0.01407650  0.05133185  1
  Zn  Zn99  1  0.68379004  0.24514475  0.17524515  1
  Zn  Zn100  1  0.91131639  0.13456007  0.93137350  1
  Zn  Zn101  1  0.45111679  0.99524848  0.59297352  1
  O  O102  1  0.08117481  0.07636322  0.11085994  1
  O  O103  1  0.11557500  0.12936477  0.64035773  1
  O  O104  1  0.11252252  0.63885717  0.11588373  1
  O  O105  1  0.09705062  0.61152397  0.63749850  1
  O  O106  1  0.60444274  0.00620343  0.18800613  1
  O  O107  1  0.63283600  0.09310637  0.53212247  1
  O  O108  1  0.62495384  0.66065362  0.15056442  1
  O  O109  1  0.64674320  0.63268236  0.63595052  1
  O  O110  1  0.34468602  0.31667258  0.37150447  1
  O  O111  1  0.40969038  0.37688241  0.87366460  1
  O  O112  1  0.32386947  0.84800064  0.42939447  1
  O  O113  1  0.35843149  0.87404432  0.81348974  1
  O  O114  1  0.86672323  0.42206811  0.32243671  1
  O  O115  1  0.84260242  0.35363770  0.93065601  1
  O  O116  1  1.02615846  0.88956202  0.28466398  1
  O  O117  1  0.89415568  0.82507323  0.87882753  1
  O  O118  1  0.34595745  0.00458700  0.36419277  1
  O  O119  1  0.23700914  -0.03135682  0.85793159  1
  O  O120  1  0.26173056  0.45928207  0.36823172  1
  O  O121  1  0.37714137  0.42519413  0.91166441  1
  O  O122  1  0.74251293  -0.07608829  0.32514349  1
  O  O123  1  0.74150556  0.02648069  0.82167295  1
  O  O124  1  0.70262075  0.46928174  0.33208827  1
  O  O125  1  0.75898682  0.54563300  0.89216282  1
  O  O126  1  0.31332755  0.52175814  0.18448169  1
  O  O127  1  0.26440191  0.48071318  0.66053756  1
  O  O128  1  0.10706865  0.86445954  0.10254985  1
  O  O129  1  0.19376846  1.00921889  0.56634274  1
  O  O130  1  0.65712760  0.48291573  0.17755789  1
  O  O131  1  0.68213186  0.58713260  0.58507778  1
  O  O132  1  0.59468093  0.97033376  -0.00697799  1
  O  O133  1  0.76694244  1.04145573  0.57957186  1
  O  O134  1  0.00838268  0.26365778  0.22401755  1
  O  O135  1  -0.07038508  0.33857938  0.76607128  1
  O  O136  1  0.15006434  0.97480386  0.24654969  1
  O  O137  1  0.04522171  0.83851393  0.73758227  1
  O  O138  1  0.50840644  0.52233083  0.42511571  1
  O  O139  1  0.60338644  0.36351965  0.67869919  1
  O  O140  1  0.44234993  0.85238260  0.30818821  1
  O  O141  1  0.59312371  0.92815282  0.78721526  1
  O  O142  1  0.55475197  -0.04284547  0.18390753  1
  O  O143  1  0.50458704  0.13874652  0.70710870  1
  O  O144  1  0.45564396  0.65727043  0.24025661  1
  O  O145  1  0.48687484  0.60344200  0.76184366  1
  O  O146  1  0.97878708  0.10751182  0.21015249  1
  O  O147  1  0.96920035  0.18573234  0.72969810  1
  O  O148  1  1.11668091  0.65447162  0.18199393  1
  O  O149  1  0.99128613  0.57874588  0.74444635  1
  O  O150  1  0.32802248  0.22230974  -0.03281091  1
  O  O151  1  0.30312210  0.25295028  0.52896215  1
  O  O152  1  0.36416138  0.75108855  0.01504629  1
  O  O153  1  0.37104864  0.73111588  0.56563908  1
  O  O154  1  0.83065122  0.18733383  -0.00958765  1
  O  O155  1  0.82437250  0.32117933  0.45002724  1
  O  O156  1  0.88932563  0.68392658  0.01450496  1
  O  O157  1  0.94629350  0.77168940  0.55809079  1
  O  O158  1  0.09402696  0.25222634  0.39578689  1
  O  O159  1  0.12533642  0.28915492  0.97978383  1
  O  O160  1  0.15148300  0.84982157  0.56994531  1
  O  O161  1  0.15979112  0.72691262  0.99047374  1
  O  O162  1  0.61250597  0.32523249  0.45712185  1
  O  O163  1  0.61582166  0.21005760  0.99854509  1
  O  O164  1  0.59333230  0.71273090  0.49796216  1
  O  O165  1  0.67169347  0.69615799  1.00830495  1
  O  O166  1  0.44359529  0.24947938  0.07209445  1
  O  O167  1  0.50810975  0.25965213  0.61441209  1
  O  O168  1  0.48787329  0.78788482  0.19651434  1
  O  O169  1  0.49062658  0.82135001  0.65788102  1
  O  O170  1  0.96128391  0.21300018  0.07318724  1
  O  O171  1  1.02537479  0.26830235  0.61958751  1
  O  O172  1  0.97700444  0.72798119  0.22550203  1
  O  O173  1  0.93116797  0.82288576  0.50369663  1
  O  O174  1  -0.06867332  0.20763649  0.34537608  1
  O  O175  1  0.01242593  0.26717165  0.89767268  1
  O  O176  1  0.15551847  0.84875136  0.30342917  1
  O  O177  1  0.03570676  0.72063855  0.88408295  1
  O  O178  1  0.51610224  0.31250238  0.34463813  1
  O  O179  1  0.49812512  0.23718680  0.91422709  1
  O  O180  1  0.41256767  0.72321645  0.37080449  1
  O  O181  1  0.51886182  0.73767946  0.86274310  1
  O  O182  1  0.28699158  0.09318956  0.45454276  1
  O  O183  1  0.16413005  0.12970860  0.99432167  1
  O  O184  1  0.19942713  0.80676139  0.54250542  1
  O  O185  1  0.27935990  0.63186514  1.04553838  1
  O  O186  1  0.76839403  0.12692669  0.38846563  1
  O  O187  1  0.71891177  0.07954323  0.99931572  1
  O  O188  1  0.82596126  0.66536140  0.47441004  1
  O  O189  1  0.77317159  0.59747277  1.05473275  1
  O  O190  1  0.26223954  0.36610733  -0.00946933  1
  O  O191  1  0.21486344  0.37854524  0.53749446  1
  O  O192  1  0.26460306  0.84198485  -0.00834860  1
  O  O193  1  0.32407887  0.89120504  0.48713935  1
  O  O194  1  0.75325542  0.42250748  0.06143480  1
  O  O195  1  0.73292961  0.41318943  0.49660287  1
  O  O196  1  0.77638046  0.81367981  0.00860537  1
  O  O197  1  0.79789525  0.87414176  0.48221703  1
  O  O198  1  0.17694900  0.50100859  0.24286117  1
  O  O199  1  0.16029642  0.51634102  0.76329201  1
  O  O200  1  0.16890619  1.14290306  0.20401115  1
  O  O201  1  0.11340172  0.98827111  0.70805532  1
  O  O202  1  0.58217028  0.56461623  0.29477608  1
  O  O203  1  0.63048272  0.46955112  0.78980626  1
  O  O204  1  0.68583897  0.96516410  0.31550435  1
  O  O205  1  0.64959356  1.06216939  0.66611457  1
  O  O206  1  0.54644018  0.03132822  0.33616853  1
  O  O207  1  0.38358710  0.03122742  0.67089507  1
  O  O208  1  0.37756233  0.46020846  0.28997590  1
  O  O209  1  0.37814708  0.50214097  0.76809684  1
  O  O210  1  0.76526902  0.06361936  0.22658570  1
  O  O211  1  0.93342693  -0.03666234  0.77827753  1
  O  O212  1  0.84594150  0.51769559  0.20051094  1
  O  O213  1  0.85263249  0.50809729  0.74441815  1
  O  O214  1  0.10993509  0.42231082  0.38313193  1
  O  O215  1  0.10867177  0.39577710  0.86331723  1
  O  O216  1  0.17640960  0.94982819  0.40048379  1
  O  O217  1  0.13519062  0.83449497  0.86493072  1
  O  O218  1  0.56569687  0.47380868  0.42193913  1
  O  O219  1  0.68417115  0.41897030  0.92561916  1
  O  O220  1  0.62198175  0.84415857  0.42979959  1
  O  O221  1  0.66083570  0.80803421  0.86792882  1
  O  O222  1  0.34961833  0.12639766  0.09794708  1
  O  O223  1  0.36363831  0.17787276  0.65494956  1
  O  O224  1  0.49019733  0.43904705  0.17048061  1
  O  O225  1  0.38085361  0.58465885  0.62661901  1
  O  O226  1  0.87095820  0.09624876  0.09472923  1
  O  O227  1  0.86079537  0.23005930  0.63226889  1
  O  O228  1  0.98782059  0.71861465  0.29539948  1
  O  O229  1  0.90808605  0.60157295  0.63471028  1
  O  O230  1  0.24238180  0.24151788  0.07659071  1
  O  O231  1  0.22046522  0.28078784  0.67289114  1
  O  O232  1  0.24165049  0.75645079  0.12057178  1
  O  O233  1  0.24124937  0.66557240  0.63234707  1
  O  O234  1  0.73972311  0.20287061  0.09533645  1
  O  O235  1  0.72001975  0.24894370  0.53367594  1
  O  O236  1  0.78100441  0.73819212  0.12038635  1
  O  O237  1  0.79124782  0.76886245  0.63352214  1
  O  O238  1  0.27761531  0.19294978  0.32376757  1
  O  O239  1  0.21022198  0.26696955  0.87133467  1
  O  O240  1  0.20144112  0.72563228  0.34163574  1
  O  O241  1  0.24166487  0.72567884  0.86829608  1
  O  O242  1  0.70986248  0.29512014  0.36207522  1
  O  O243  1  0.71529136  0.21861397  0.90543977  1
  O  O244  1  0.75983605  0.74002248  0.35817933  1
  O  O245  1  0.77801673  0.69748177  0.91873801  1
  O  O246  1  -0.00555710  0.08678202  -0.00931706  1
  O  O247  1  -0.05000868  0.18290729  0.51056473  1
  O  O248  1  0.00790031  0.56931379  -0.04037865  1
  O  O249  1  0.00975792  0.58432616  0.52902096  1
  O  O250  1  0.47005294  0.07040123  0.01455828  1
  O  O251  1  0.47052417  0.22005179  0.47757977  1
  O  O252  1  0.51796469  0.69177467  0.04191387  1
  O  O253  1  0.53219365  0.72213902  0.53199758  1
  O  O254  1  0.44889582  0.38998469  0.48509858  1
  O  O255  1  0.52589250  0.39937252  1.00672195  1
  O  O256  1  0.46616356  0.92670563  0.51117501  1
  O  O257  1  0.47141574  0.84044080  1.00166115  1
  O  O258  1  0.94664487  0.36109555  0.50017626  1
  O  O259  1  0.96923763  0.38180676  1.02408700  1
  O  O260  1  1.05577976  0.90516133  0.41124396  1
  O  O261  1  0.93326993  0.84415921  1.02646826  1
  O  O262  1  0.52172943  0.59517695  0.44783971  1
  O  O263  1  0.51634238  0.52211106  0.90783884  1
  O  O264  1  0.53231221  1.02677833  0.40546999  1
  O  O265  1  0.53485235  0.96835316  0.78561505  1
  O  O266  1  0.98710733  0.51623135  0.27827960  1
  O  O267  1  1.00581468  0.50333467  0.91156630  1
  O  O268  1  1.06439576  1.02676388  0.32348317  1
  O  O269  1  0.94747219  1.00586223  0.83640391  1
  O  O270  1  -0.03281126  -0.02097963  0.11024426  1
  O  O271  1  -0.04141375  0.09406746  0.61713228  1
  O  O272  1  -0.01886072  0.53324626  0.10189056  1
  O  O273  1  0.01289469  0.46561282  0.63919867  1
  O  O274  1  0.50204180  0.05894534  0.07412238  1
  O  O275  1  0.57242270  -0.03251498  0.59254796  1
  O  O276  1  0.51180602  0.41076060  0.23042298  1
  O  O277  1  0.48173129  0.45133575  0.59214953  1
  O  O278  1  0.25159517  0.39609598  0.24354248  1
  O  O279  1  0.27027204  0.39398160  0.78988230  1
  O  O280  1  0.28923149  0.89222704  0.25237066  1
  O  O281  1  0.21792534  0.83100038  0.72862948  1
  O  O282  1  0.74423274  0.34859537  0.20427715  1
  O  O283  1  0.75828959  0.36130606  0.79095066  1
  O  O284  1  0.70215850  0.82021979  0.20726621  1
  O  O285  1  0.77304804  0.96406270  0.81388246  1
  O  O286  1  0.31648990  0.07302949  0.26038348  1
  O  O287  1  0.24818657  0.08783184  0.73161346  1
  O  O288  1  0.26697213  0.58098796  0.31366868  1
  O  O289  1  0.27993484  0.59209966  0.77754998  1
  O  O290  1  0.71169490  0.10605097  0.24382725  1
  O  O291  1  0.69107354  0.21290915  0.71171007  1
  O  O292  1  0.72584939  0.61661132  0.26484210  1
  O  O293  1  0.78067984  0.64304327  0.74601343  1
  O  O294  1  0.38966077  0.14828193  0.37741379  1
  O  O295  1  0.37440836  0.04343104  0.81637286  1
  O  O296  1  0.28385394  0.64060030  0.44300250  1
  O  O297  1  0.39332437  0.63692261  0.87928857  1
  O  O298  1  0.80491024  0.06704112  0.38194873  1
  O  O299  1  0.90624618  0.07087810  0.83754241  1
  O  O300  1  0.85332839  0.58928994  0.34548517  1
  O  O301  1  0.88222585  0.62486223  0.84155919  1
  O  O302  1  0.18452212  0.30832449  0.20137110  1
  O  O303  1  0.13998458  0.25606700  0.44750550  1
  O  O304  1  0.07949267  0.80580259  0.12656517  1
  O  O305  1  0.03514283  0.97016641  0.58367793  1
  O  O306  1  0.62469626  0.33337676  0.11050064  1
  O  O307  1  0.64191498  0.40419526  0.63809525  1
  O  O308  1  0.63249034  0.83633528  0.07304354  1
  O  O309  1  0.69979080  0.92679514  0.62460753  1
  O  O310  1  0.15975147  0.30274974  0.26407351  1
  O  O311  1  0.08120569  0.26510022  0.77931971  1
  O  O312  1  0.11972958  0.59485623  0.36165759  1
  O  O313  1  0.13014416  0.70630045  0.77422198  1
  O  O314  1  0.61670823  0.24003009  0.25445017  1
  O  O315  1  0.60923513  0.31139555  0.84126748  1
  O  O316  1  0.53942998  0.73382945  0.32686743  1
  O  O317  1  0.62074119  0.75441415  0.73011617  1
  O  O318  1  0.34000973  0.27048165  0.18213219  1
  O  O319  1  0.34711592  0.19714718  0.79251886  1
  O  O320  1  0.35060803  0.74957292  0.25128562  1
  O  O321  1  0.36624945  0.70395348  0.73329074  1
  O  O322  1  0.85861985  0.21262413  0.19452876  1
  O  O323  1  0.88612639  0.21502037  0.84778658  1
  O  O324  1  0.94328728  0.75280751  0.34226522  1
  O  O325  1  0.91897668  0.73214969  0.72373379  1
  O  O326  1  0.44128967  0.45207884  0.52778371  1
  O  O327  1  0.44079755  0.53048155  1.04923050  1
  O  O328  1  0.47445065  1.09969136  0.55767689  1
  O  O329  1  0.36826902  0.94955750  0.94896969  1
  O  O330  1  0.86217190  0.49497626  0.49580389  1
  O  O331  1  0.86919761  0.48696817  1.00755175  1
  O  O332  1  0.93516729  1.01910996  0.46802437  1
  O  O333  1  0.84463376  0.95894036  0.96609567  1
  O  O334  1  0.12155949  -0.02476940  -0.02024610  1
  O  O335  1  0.08013240  0.08570734  0.49151976  1
  O  O336  1  0.10323648  0.46603606  0.03661105  1
  O  O337  1  0.16263250  0.53224288  0.50872293  1
  O  O338  1  0.56958966  0.00456920  -0.06119221  1
  O  O339  1  0.67193959  -0.02503893  0.48668642  1
  O  O340  1  0.60955588  0.54477755  0.03054866  1
  O  O341  1  0.63774837  0.53498914  0.55704696  1
  O  O342  1  0.40047542  0.28192090  0.21912582  1
  O  O343  1  0.35306295  0.36571889  0.62699973  1
  O  O344  1  0.36575127  0.89486982  0.09887039  1
  O  O345  1  0.44287886  0.87269099  0.66543296  1
  O  O346  1  0.84828444  0.31123267  0.08102314  1
  O  O347  1  0.84290178  0.39146861  0.61397441  1
  O  O348  1  0.75985840  0.93105888  0.11467703  1
  O  O349  1  0.90302363  0.88054019  0.66253960  1
  O  O350  1  0.20208538  0.08834475  0.35968561  1
  O  O351  1  0.09991563  0.07726172  0.86420884  1
  O  O352  1  0.13736102  0.68288228  0.47947278  1
  O  O353  1  0.14668040  0.60433690  0.89825394  1
  O  O354  1  0.59535393  0.17745642  0.39050214  1
  O  O355  1  0.59841641  0.14564355  0.83990220  1
  O  O356  1  0.69083288  0.60869973  0.41605501  1
  O  O357  1  0.65346945  0.64286344  0.83731522  1
