# generated using pymatgen
data_V51Zn51O256
_symmetry_space_group_name_H-M   'P 1'
_cell_length_a   18.11859611
_cell_length_b   17.86866674
_cell_length_c   17.83336615
_cell_angle_alpha   88.94948998
_cell_angle_beta   90.17289801
_cell_angle_gamma   89.27721202
_symmetry_Int_Tables_number   1
_chemical_formula_structural   V51Zn51O256
_chemical_formula_sum   'V51 Zn51 O256'
_cell_volume   5772.18400273
_cell_formula_units_Z   1
loop_
 _symmetry_equiv_pos_site_id
 _symmetry_equiv_pos_as_xyz
  1  'x, y, z'
loop_
 _atom_site_type_symbol
 _atom_site_label
 _atom_site_symmetry_multiplicity
 _atom_site_fract_x
 _atom_site_fract_y
 _atom_site_fract_z
 _atom_site_occupancy
  V  V0  1  0.36402416  0.51869518  0.89942235  1
  V  V1  1  -0.03148600  0.62667328  0.56212220  1
  V  V2  1  0.59076336  0.37767162  0.75013362  1
  V  V3  1  0.76768106  0.45539551  0.23835264  1
  V  V4  1  0.75647240  0.10256512  0.84812431  1
  V  V5  1  0.38370835  0.03055120  0.90642228  1
  V  V6  1  0.42317801  0.39354298  -0.00157690  1
  V  V7  1  0.00129130  0.79597105  0.70085996  1
  V  V8  1  0.39527846  0.81199370  0.56066213  1
  V  V9  1  0.42016190  0.25398712  0.12324216  1
  V  V10  1  0.39788829  -0.04410717  0.47537048  1
  V  V11  1  -0.03961031  0.48374303  0.43251865  1
  V  V12  1  0.61132210  0.73680026  0.36979339  1
  V  V13  1  0.56948151  -0.06465495  0.06342135  1
  V  V14  1  0.07406982  0.91796758  0.38417397  1
  V  V15  1  0.12191935  0.37830373  0.23415387  1
  V  V16  1  0.14366294  0.48293736  0.10153795  1
  V  V17  1  0.84310284  0.70668546  0.21833920  1
  V  V18  1  0.27711116  0.27805869  -0.00960751  1
  V  V19  1  0.86678252  0.61647951  0.72774601  1
  V  V20  1  -0.02096615  0.59706410  0.09836128  1
  V  V21  1  0.64735996  0.86083091  0.79635497  1
  V  V22  1  0.14087800  0.27406378  0.39431552  1
  V  V23  1  0.05339163  0.78738641  0.25185310  1
  V  V24  1  -0.00009961  0.11151788  0.59183937  1
  V  V25  1  0.86132844  0.21201864  0.16083786  1
  V  V26  1  0.48406934  0.52140367  0.52669190  1
  V  V27  1  0.50213575  0.60567407  0.16571994  1
  V  V28  1  0.80982694  0.37620823  0.48596381  1
  V  V29  1  0.88995581  0.91880387  -0.01019303  1
  V  V30  1  0.13492618  0.86720592  0.75698594  1
  V  V31  1  0.23856350  0.80203945  0.64660196  1
  V  V32  1  0.25017412  0.59614952  0.36776766  1
  V  V33  1  0.43589258  0.10198658  0.24271663  1
  V  V34  1  -0.00770961  0.12815394  0.06623341  1
  V  V35  1  0.48706798  0.75223240  0.81528115  1
  V  V36  1  0.92090751  0.06901750  0.28692444  1
  V  V37  1  0.11488507  0.65277681  0.44072643  1
  V  V38  1  0.30957272  0.28450234  0.47985537  1
  V  V39  1  0.61814270  0.34972158  0.21793072  1
  V  V40  1  0.30072865  0.11658927  0.76928805  1
  V  V41  1  0.37797438  0.27474216  0.71288904  1
  V  V42  1  0.02935974  0.81994014  0.91489835  1
  V  V43  1  0.62877757  0.17118887  -0.02888555  1
  V  V44  1  0.59850268  0.19060582  0.47092008  1
  V  V45  1  0.25137636  0.75298212  0.47621895  1
  V  V46  1  0.81554880  0.29821477  0.65599846  1
  V  V47  1  0.70332092  0.01273127  0.17235871  1
  V  V48  1  0.52434975  0.07405890  0.70351979  1
  V  V49  1  0.34128864  0.62758077  0.75342303  1
  V  V50  1  0.13560026  0.54756420  0.59123796  1
  Zn  Zn51  1  0.55853350  0.70632379  0.56372879  1
  Zn  Zn52  1  0.41265438  0.46097224  0.71826322  1
  Zn  Zn53  1  0.32863474  0.56172888  0.07296737  1
  Zn  Zn54  1  0.65289464  0.44887412  0.47077474  1
  Zn  Zn55  1  0.99971156  0.99672196  0.72882903  1
  Zn  Zn56  1  0.45502736  0.40272418  0.18750910  1
  Zn  Zn57  1  0.95160758  0.64921997  0.34124413  1
  Zn  Zn58  1  0.61060674  0.08663280  0.31575564  1
  Zn  Zn59  1  0.93557484  0.40603581  0.19209488  1
  Zn  Zn60  1  0.73648153  0.47379513  0.70689162  1
  Zn  Zn61  1  0.94093515  0.64253809  0.91106832  1
  Zn  Zn62  1  0.69557913  0.65371453  0.68112305  1
  Zn  Zn63  1  0.42642864  0.14577767  0.54165870  1
  Zn  Zn64  1  0.11806558  0.27606354  0.08734675  1
  Zn  Zn65  1  0.39443012  0.00356779  0.63984015  1
  Zn  Zn66  1  0.47460897  0.17478129  0.85749037  1
  Zn  Zn67  1  0.68299747  0.61169240  0.23889269  1
  Zn  Zn68  1  0.66684691  0.18218809  0.16110538  1
  Zn  Zn69  1  0.53687864  0.78600855  0.18853580  1
  Zn  Zn70  1  0.94888761  0.06945290  0.89168195  1
  Zn  Zn71  1  0.71407785  0.92967902  0.93863068  1
  Zn  Zn72  1  0.10025527  0.82134527  0.55193399  1
  Zn  Zn73  1  0.88796070  0.04392597  0.47144681  1
  Zn  Zn74  1  0.47824996  0.92831492  0.80256452  1
  Zn  Zn75  1  0.51476286  0.61334967  0.95383687  1
  Zn  Zn76  1  0.37293523  0.24467938  0.31345509  1
  Zn  Zn77  1  0.80736609  0.79250718  0.72882351  1
  Zn  Zn78  1  0.68579792  0.14757897  0.65694195  1
  Zn  Zn79  1  0.13234499  1.04073296  0.83852671  1
  Zn  Zn80  1  0.49968645  0.94167835  0.30773339  1
  Zn  Zn81  1  0.58028492  0.03089059  0.88163713  1
  Zn  Zn82  1  0.81349533  0.09066471  0.02566896  1
  Zn  Zn83  1  0.11605205  0.66504171  0.15289034  1
  Zn  Zn84  1  0.11484098  0.10247787  0.31145902  1
  Zn  Zn85  1  0.30771016  0.61779441  0.56016504  1
  Zn  Zn86  1  0.68346681  0.91894730  0.33682276  1
  Zn  Zn87  1  0.25524297  0.90451385  0.37956076  1
  Zn  Zn88  1  0.58162548  0.32472249  0.03687531  1
  Zn  Zn89  1  0.29060846  0.75591496  0.82533229  1
  Zn  Zn90  1  0.96806746  0.95382667  0.16049258  1
  Zn  Zn91  1  0.22447980  0.46382583  0.97379474  1
  Zn  Zn92  1  0.14524086  0.46036021  0.40942684  1
  Zn  Zn93  1  0.86102517  0.22270314  0.81630974  1
  Zn  Zn94  1  0.34363189  0.11331969  0.07790006  1
  Zn  Zn95  1  0.52347994  0.48190473  0.32784673  1
  Zn  Zn96  1  0.83046384  0.89879890  0.26951706  1
  Zn  Zn97  1  0.00305777  0.80067548  0.09111197  1
  Zn  Zn98  1  0.82417636  0.57112511  0.13983599  1
  Zn  Zn99  1  0.59431101  0.54940101  0.79733040  1
  Zn  Zn100  1  0.36336554  0.32686742  0.85512327  1
  Zn  Zn101  1  0.15182340  0.66434806  0.72061289  1
  O  O102  1  0.04635199  0.19887123  0.09817398  1
  O  O103  1  0.09207705  0.12988004  0.59452638  1
  O  O104  1  0.08254451  0.56705589  0.12009251  1
  O  O105  1  0.06543380  0.64004006  0.55985082  1
  O  O106  1  0.63890852  0.14252984  0.06383465  1
  O  O107  1  0.61145403  0.07280627  0.66765056  1
  O  O108  1  0.59989318  0.57519906  0.18306579  1
  O  O109  1  0.64661571  0.71033975  0.61151781  1
  O  O110  1  0.40782606  0.45589913  0.33294669  1
  O  O111  1  0.40129751  0.42604178  0.88680676  1
  O  O112  1  0.39638804  0.84580191  0.46751011  1
  O  O113  1  0.40641994  0.84612916  0.99110513  1
  O  O114  1  0.76615905  0.32530285  0.42560941  1
  O  O115  1  0.93288316  0.30191517  0.84875206  1
  O  O116  1  0.99174522  0.95205373  0.36375371  1
  O  O117  1  0.94666851  0.87982774  0.91548507  1
  O  O118  1  0.31381289  -0.02952810  0.42926948  1
  O  O119  1  0.34584123  -0.13239985  1.01224777  1
  O  O120  1  0.23950445  0.50103794  0.38179554  1
  O  O121  1  0.26922861  0.53259732  0.90586172  1
  O  O122  1  0.59985246  -0.02239689  0.32477065  1
  O  O123  1  0.75775584  0.00986101  0.87813169  1
  O  O124  1  0.61306207  0.48046077  0.37983974  1
  O  O125  1  0.82998713  0.50907972  0.91817875  1
  O  O126  1  0.23588630  0.50985180  0.09620702  1
  O  O127  1  0.23140947  0.54894697  0.58543638  1
  O  O128  1  0.27436678  1.05886252  0.15171632  1
  O  O129  1  0.20340088  1.04714497  0.53722157  1
  O  O130  1  0.76719578  0.48704324  0.14345347  1
  O  O131  1  0.66862314  0.56177788  0.72279792  1
  O  O132  1  0.76824819  1.03181102  0.10503206  1
  O  O133  1  0.83673965  0.97347393  0.62684992  1
  O  O134  1  0.02809147  0.37247707  0.23362220  1
  O  O135  1  0.06358854  0.37776384  0.76863499  1
  O  O136  1  0.02140884  0.85756647  0.18709365  1
  O  O137  1  0.02906032  0.88887136  0.73037518  1
  O  O138  1  0.53714888  0.39366359  0.26101364  1
  O  O139  1  0.52637231  0.45956942  0.74961141  1
  O  O140  1  0.48939536  0.85047630  0.25392927  1
  O  O141  1  0.43813010  0.83383719  0.83175992  1
  O  O142  1  0.52053036  0.13034865  0.27051402  1
  O  O143  1  0.52876566  0.11314853  0.79145825  1
  O  O144  1  0.49889304  0.57068413  0.26468230  1
  O  O145  1  0.50709840  0.61154416  0.75441429  1
  O  O146  1  1.01119852  0.09147112  0.29588620  1
  O  O147  1  0.96486669  0.09815889  0.68580437  1
  O  O148  1  0.98829974  0.71904968  0.25955821  1
  O  O149  1  0.93731206  0.62577864  0.65858078  1
  O  O150  1  0.40816106  0.30504387  -0.03614716  1
  O  O151  1  0.33656198  0.19840469  0.51758609  1
  O  O152  1  0.31521400  0.69948210  -0.02583941  1
  O  O153  1  0.33731086  0.72698577  0.52690867  1
  O  O154  1  0.80703555  0.36255719  -0.01619689  1
  O  O155  1  0.84493501  0.31679991  0.56223300  1
  O  O156  1  0.84217152  0.70376199  -0.03866239  1
  O  O157  1  0.74944332  0.82596884  0.56528142  1
  O  O158  1  0.20799212  0.28432676  0.46622283  1
  O  O159  1  0.19120603  0.24701491  1.01600440  1
  O  O160  1  0.14779473  0.74060113  0.48565382  1
  O  O161  1  0.21237431  0.85380503  1.07624544  1
  O  O162  1  0.64394045  0.17824054  0.55325407  1
  O  O163  1  0.63924490  0.26709654  0.96985277  1
  O  O164  1  0.59986073  0.69648844  0.46185779  1
  O  O165  1  0.57100997  0.69306091  1.14131748  1
  O  O166  1  0.50653168  0.25566802  0.09116101  1
  O  O167  1  0.42361739  0.26324350  0.63547788  1
  O  O168  1  0.46329597  0.68872860  0.20919304  1
  O  O169  1  0.52018901  0.68074157  0.73241324  1
  O  O170  1  0.80556003  0.29401770  -0.01914653  1
  O  O171  1  0.99145363  0.20697419  0.59453882  1
  O  O172  1  1.02064789  0.69340462  0.10101101  1
  O  O173  1  1.00832444  0.79679261  0.60605293  1
  O  O174  1  0.06047980  0.27086162  0.43427599  1
  O  O175  1  -0.04810525  0.31580992  0.92154942  1
  O  O176  1  0.07444109  0.82463103  0.33946569  1
  O  O177  1  -0.00023167  0.73184853  0.90030245  1
  O  O178  1  0.50904276  0.16581428  0.47715801  1
  O  O179  1  0.42966724  0.25538474  0.79788300  1
  O  O180  1  0.51455160  0.74036240  0.37500870  1
  O  O181  1  0.51475492  0.71212576  0.89630301  1
  O  O182  1  0.20079126  0.12971115  0.62764569  1
  O  O183  1  0.12166580  0.19770174  0.87035447  1
  O  O184  1  0.25305789  0.64743143  0.45984906  1
  O  O185  1  0.28246791  0.66391113  1.03207977  1
  O  O186  1  0.76128170  0.06013590  0.49962835  1
  O  O187  1  0.75100717  0.14797367  0.95872035  1
  O  O188  1  0.74543016  0.87976051  0.52081865  1
  O  O189  1  0.70020263  0.64865362  1.02106362  1
  O  O190  1  0.27456034  0.37320158  0.00124153  1
  O  O191  1  0.32604279  0.35236487  0.53838251  1
  O  O192  1  0.15329924  1.01092139  0.06181262  1
  O  O193  1  0.23775891  0.82933266  0.54332759  1
  O  O194  1  0.71993517  0.49340974  -0.03054114  1
  O  O195  1  0.74543819  0.44282462  0.51788123  1
  O  O196  1  0.80251892  0.88722329  -0.01102467  1
  O  O197  1  0.77869459  0.89216336  0.36388748  1
  O  O198  1  0.14343748  0.47033332  0.21921961  1
  O  O199  1  0.11637321  0.57256150  0.68490293  1
  O  O200  1  0.17751407  1.05403400  0.22744587  1
  O  O201  1  0.15800656  0.95562502  0.76669111  1
  O  O202  1  0.74040692  0.53283562  0.28734354  1
  O  O203  1  0.65772640  0.43462793  0.79845936  1
  O  O204  1  0.61770577  0.98363994  0.13891946  1
  O  O205  1  0.60448791  0.94883723  0.80467766  1
  O  O206  1  0.43247902  0.00676970  0.24902560  1
  O  O207  1  0.33018363  -0.03270709  0.87096595  1
  O  O208  1  0.37679636  0.43947945  0.27095042  1
  O  O209  1  0.36880333  0.53481573  0.78594694  1
  O  O210  1  0.89981445  -0.01801401  0.24071014  1
  O  O211  1  0.87807328  -0.04679663  0.68031525  1
  O  O212  1  0.85611536  0.42890356  0.25958140  1
  O  O213  1  0.82504819  0.53425035  0.71508302  1
  O  O214  1  0.14463070  0.36273668  0.33546060  1
  O  O215  1  0.11232298  0.37935715  0.81633048  1
  O  O216  1  0.16474908  0.94105590  0.32616161  1
  O  O217  1  0.10359349  0.84435938  0.85373066  1
  O  O218  1  0.61971193  0.33745071  0.48939915  1
  O  O219  1  0.55010295  0.35772380  0.83584870  1
  O  O220  1  0.61555521  0.83520419  0.38738467  1
  O  O221  1  0.68623046  0.83939797  0.88029113  1
  O  O222  1  0.41992354  0.14627129  0.14785742  1
  O  O223  1  0.32320746  0.05017432  0.70686412  1
  O  O224  1  0.40286633  0.59951441  0.14082563  1
  O  O225  1  0.35317968  0.62820090  0.66095272  1
  O  O226  1  0.89297689  0.15808966  0.07834595  1
  O  O227  1  0.90232123  0.09997169  0.55911460  1
  O  O228  1  0.89533157  0.64807687  0.14509815  1
  O  O229  1  0.92250352  0.69177842  0.51695242  1
  O  O230  1  0.33654018  0.22673177  0.06331938  1
  O  O231  1  0.19278808  0.17671566  0.57966149  1
  O  O232  1  0.23457980  0.90845914  0.10979695  1
  O  O233  1  0.21205177  0.71277538  0.63608663  1
  O  O234  1  0.76967606  0.22074411  0.15025787  1
  O  O235  1  0.74424741  0.23689065  0.65548386  1
  O  O236  1  0.67401312  0.71276334  0.01352974  1
  O  O237  1  0.60546053  0.88454136  0.60774177  1
  O  O238  1  0.35173665  0.30632644  0.39257453  1
  O  O239  1  0.28231488  0.26398180  0.89546519  1
  O  O240  1  0.26277861  0.79749372  0.39211760  1
  O  O241  1  0.26875311  0.74712626  0.93523239  1
  O  O242  1  0.58433121  0.29957372  0.43941053  1
  O  O243  1  0.75973554  0.21673343  0.85488302  1
  O  O244  1  0.70642221  0.74590206  0.39508293  1
  O  O245  1  0.81259163  0.75033418  0.91731140  1
  O  O246  1  0.00640831  0.11718296  -0.02704121  1
  O  O247  1  0.00597314  0.08168312  0.49594865  1
  O  O248  1  -0.04288357  0.59234445  0.00568905  1
  O  O249  1  0.02834598  0.67146605  0.41140871  1
  O  O250  1  0.53377176  0.16229519  -0.05158352  1
  O  O251  1  0.46553818  0.12239778  0.64471024  1
  O  O252  1  0.51224614  0.61248968  0.06389571  1
  O  O253  1  0.50889222  0.61172005  0.56110606  1
  O  O254  1  0.47757332  0.42669803  0.50495954  1
  O  O255  1  0.51575424  0.40572430  0.99899475  1
  O  O256  1  0.47838566  0.77086354  0.57974200  1
  O  O257  1  0.32579116  0.78212782  1.20381215  1
  O  O258  1  1.04363759  0.43977748  0.42749551  1
  O  O259  1  0.94703634  0.38303463  0.94247648  1
  O  O260  1  1.08034975  0.89776153  0.47757389  1
  O  O261  1  1.06323107  0.82481230  1.00296605  1
  O  O262  1  0.49396626  0.54401576  0.42960203  1
  O  O263  1  0.58101330  0.55454995  0.89915231  1
  O  O264  1  0.46682883  0.96251491  0.41252897  1
  O  O265  1  0.47581593  0.99666120  0.89052465  1
  O  O266  1  0.95165499  0.54062872  0.35536219  1
  O  O267  1  1.01631466  0.47806529  0.80694276  1
  O  O268  1  1.13842988  1.00408818  0.37279645  1
  O  O269  1  1.02516581  1.03602266  0.82274507  1
  O  O270  1  0.00382199  0.04587156  0.11657519  1
  O  O271  1  0.03185809  0.01444648  0.62311499  1
  O  O272  1  -0.05263156  0.51054695  0.13533648  1
  O  O273  1  -0.04614034  0.54018014  0.51487593  1
  O  O274  1  0.48636320  -0.02815221  0.05914028  1
  O  O275  1  0.48009831  -0.01615736  0.71035554  1
  O  O276  1  0.48723278  0.50293123  0.15042769  1
  O  O277  1  0.45483524  0.49308520  0.62071946  1
  O  O278  1  0.21350397  0.31217063  0.21435924  1
  O  O279  1  0.14016855  0.27922830  0.65968315  1
  O  O280  1  0.21425396  1.09517837  0.17711347  1
  O  O281  1  0.22543495  0.81430541  0.75889377  1
  O  O282  1  0.70112686  0.38323963  0.25808169  1
  O  O283  1  0.64235212  0.29686923  0.76097539  1
  O  O284  1  0.73229467  0.93739576  0.22916328  1
  O  O285  1  0.71981622  0.84837404  0.73097997  1
  O  O286  1  0.36723285  0.14073251  0.29870004  1
  O  O287  1  0.21426763  0.10146930  0.80150622  1
  O  O288  1  0.23366445  0.57715997  0.24187911  1
  O  O289  1  0.25069143  0.65222174  0.77653439  1
  O  O290  1  0.68408730  0.09177947  0.22812130  1
  O  O291  1  0.73555194  0.10792249  0.75522623  1
  O  O292  1  0.75631988  0.67090220  0.18957168  1
  O  O293  1  0.79290777  0.68416593  0.71394488  1
  O  O294  1  0.40070270  0.03847658  0.53202551  1
  O  O295  1  0.36867152  0.11667310  0.84660051  1
  O  O296  1  0.33094202  0.61724460  0.33422007  1
  O  O297  1  0.41531001  0.59601443  0.91585429  1
  O  O298  1  0.87663839  0.06843620  0.37093161  1
  O  O299  1  0.86299800  0.11556706  0.84526149  1
  O  O300  1  0.85236190  0.67199504  0.30719487  1
  O  O301  1  0.90211477  0.61885870  0.81694192  1
  O  O302  1  0.12275536  0.38267321  0.11712115  1
  O  O303  1  0.10703209  0.46107119  0.58600940  1
  O  O304  1  0.13443565  0.99313617  -0.00390431  1
  O  O305  1  0.15043699  0.85850823  0.65060893  1
  O  O306  1  0.61774764  0.37477912  0.12547374  1
  O  O307  1  0.64016028  0.41397251  0.66988831  1
  O  O308  1  0.56195030  0.84317345  0.09904130  1
  O  O309  1  0.58805384  0.91849512  0.54942113  1
  O  O310  1  0.15297569  0.26912304  0.20276972  1
  O  O311  1  0.12839575  0.23830623  0.71418328  1
  O  O312  1  0.13228348  0.74972408  0.21183910  1
  O  O313  1  0.07465349  0.74264311  0.73946579  1
  O  O314  1  0.61748028  0.25461983  0.22315641  1
  O  O315  1  0.52979852  0.33520818  0.68989214  1
  O  O316  1  0.61528536  0.76422146  0.27047214  1
  O  O317  1  0.57146245  0.79917273  0.77931524  1
  O  O318  1  0.41389804  0.28248365  0.21660842  1
  O  O319  1  0.30369488  0.20619903  0.72349161  1
  O  O320  1  0.23203966  0.63360318  0.19831432  1
  O  O321  1  0.38824099  0.70590167  0.79577190  1
  O  O322  1  0.87905861  0.14917993  0.23911475  1
  O  O323  1  0.88041568  0.25984164  0.71612518  1
  O  O324  1  0.84474437  0.80203341  0.21907470  1
  O  O325  1  0.91108536  0.78553136  0.73148419  1
  O  O326  1  0.39165554  0.55171930  0.51435031  1
  O  O327  1  0.37510253  0.48944930  1.00568956  1
  O  O328  1  0.40308187  0.91078354  0.58190670  1
  O  O329  1  0.35414844  1.05286923  0.99475074  1
  O  O330  1  0.88851726  0.41856750  0.43817521  1
  O  O331  1  0.78756971  0.51247997  0.97606856  1
  O  O332  1  0.88275049  0.92437710  0.47439324  1
  O  O333  1  0.88923630  1.01591756  0.98010415  1
  O  O334  1  0.17858398  0.02121190  -0.06038057  1
  O  O335  1  0.19486782  0.09942287  0.49326077  1
  O  O336  1  0.12350849  0.47793068  0.00734055  1
  O  O337  1  0.12869275  0.55969353  0.47057292  1
  O  O338  1  0.61695024  -0.04512746  -0.02374774  1
  O  O339  1  0.70633004  0.01998769  0.49136783  1
  O  O340  1  0.72827139  0.62000170  -0.11739042  1
  O  O341  1  0.58229983  0.50472468  0.54331329  1
  O  O342  1  0.40591901  0.36318992  0.09832063  1
  O  O343  1  0.35751682  0.37013228  0.73173085  1
  O  O344  1  0.35731924  0.79852652  0.14470228  1
  O  O345  1  0.33424674  0.80770865  0.65228285  1
  O  O346  1  0.90080344  0.29717478  0.16268303  1
  O  O347  1  0.78828679  0.38157310  0.69296611  1
  O  O348  1  0.92961461  0.88839616  0.07533232  1
  O  O349  1  0.90948728  0.87590084  0.51774505  1
  O  O350  1  0.15406521  0.19317750  0.34343738  1
  O  O351  1  0.06898137  0.24112721  0.87567135  1
  O  O352  1  0.15964653  0.64885980  0.35137440  1
  O  O353  1  0.06264200  0.48393411  0.85643294  1
  O  O354  1  0.64127235  0.14249153  0.40020078  1
  O  O355  1  0.65167993  0.11106627  0.88632834  1
  O  O356  1  0.62854840  0.64915291  0.32739016  1
  O  O357  1  0.69794890  0.67432663  0.85142483  1
