# generated using pymatgen
data_V51Zn51O256
_symmetry_space_group_name_H-M   'P 1'
_cell_length_a   17.45013788
_cell_length_b   17.47101310
_cell_length_c   17.25452094
_cell_angle_alpha   89.70775249
_cell_angle_beta   88.47880197
_cell_angle_gamma   89.41411405
_symmetry_Int_Tables_number   1
_chemical_formula_structural   V51Zn51O256
_chemical_formula_sum   'V51 Zn51 O256'
_cell_volume   5258.22297998
_cell_formula_units_Z   1
loop_
 _symmetry_equiv_pos_site_id
 _symmetry_equiv_pos_as_xyz
  1  'x, y, z'
loop_
 _atom_site_type_symbol
 _atom_site_label
 _atom_site_symmetry_multiplicity
 _atom_site_fract_x
 _atom_site_fract_y
 _atom_site_fract_z
 _atom_site_occupancy
  V  V0  1  0.44882153  0.75657574  0.23783856  1
  V  V1  1  0.89155684  0.14687692  0.75859862  1
  V  V2  1  0.37264402  0.74252816  0.62991330  1
  V  V3  1  0.86298028  0.63214598  0.21697339  1
  V  V4  1  0.74068338  0.52378665  0.25871849  1
  V  V5  1  0.88770243  0.01937399  0.89113348  1
  V  V6  1  0.14639882  -0.00102858  0.13517388  1
  V  V7  1  0.64210764  0.28141700  0.86982413  1
  V  V8  1  0.93412497  0.27075134  0.10774854  1
  V  V9  1  0.29243686  0.19280232  0.01070846  1
  V  V10  1  0.90803809  -0.01734359  0.36195370  1
  V  V11  1  0.50382103  -0.02514248  0.00861015  1
  V  V12  1  0.24340351  0.87630710  0.64903521  1
  V  V13  1  0.73053820  0.50646880  0.73758983  1
  V  V14  1  0.90118146  0.27114226  0.60682744  1
  V  V15  1  0.01294807  0.88849658  0.87729176  1
  V  V16  1  0.25716384  0.14122237  0.38544492  1
  V  V17  1  0.60917329  0.50813163  0.09791492  1
  V  V18  1  -0.01686059  0.63429840  0.65198472  1
  V  V19  1  0.76120112  0.39055251  0.60323685  1
  V  V20  1  0.71305381  0.21850236  0.03335027  1
  V  V21  1  0.09932258  0.63730393  0.49764034  1
  V  V22  1  0.36716903  0.62354822  0.75547900  1
  V  V23  1  0.02821430  0.77015764  0.75932190  1
  V  V24  1  0.34584715  0.51245301  0.38862045  1
  V  V25  1  0.64614564  0.25743636  0.36285342  1
  V  V26  1  0.87784715  0.86082692  0.00394196  1
  V  V27  1  0.51795565  0.41746545  0.38986397  1
  V  V28  1  0.34266998  0.49671983  0.86810137  1
  V  V29  1  0.12556174  0.51763341  0.63628778  1
  V  V30  1  0.00834682  0.00159256  0.50956569  1
  V  V31  1  0.21775707  0.65828456  0.37487873  1
  V  V32  1  0.88190613  0.78174759  0.65785296  1
  V  V33  1  0.33780018  0.83587930  0.48017962  1
  V  V34  1  0.33162605  0.62182515  0.24025741  1
  V  V35  1  0.12719838  0.32861404  0.77198918  1
  V  V36  1  0.24506609  0.78216329  0.00126101  1
  V  V37  1  0.38831494  0.41238537  0.00836576  1
  V  V38  1  0.49947312  0.62645092  0.12183018  1
  V  V39  1  0.77353310  0.11504824  0.36009019  1
  V  V40  1  0.74783727  0.01192425  0.74219293  1
  V  V41  1  0.85000366  0.46637271  0.87509289  1
  V  V42  1  0.67647886  0.12965932  0.50796167  1
  V  V43  1  0.72207100  0.38456099  0.10977641  1
  V  V44  1  0.11418362  0.15195815  0.49478937  1
  V  V45  1  0.24964576  0.33431669  0.61669362  1
  V  V46  1  0.37558799  0.00898089  0.40031160  1
  V  V47  1  0.74521008  0.12230148  0.88757959  1
  V  V48  1  0.75195803  0.76665426  0.51293713  1
  V  V49  1  0.74725489  0.74989092  0.02923118  1
  V  V50  1  0.91254999  0.12782441  0.24077658  1
  Zn  Zn51  1  0.79579852  0.59869602  0.60970368  1
  Zn  Zn52  1  0.72262541  0.20621840  0.69092410  1
  Zn  Zn53  1  0.05699908  0.07079411  0.80782047  1
  Zn  Zn54  1  0.37770610  0.96515094  0.58813532  1
  Zn  Zn55  1  0.54485441  0.05110952  0.33671241  1
  Zn  Zn56  1  0.19531143  0.66933147  0.16311343  1
  Zn  Zn57  1  0.86384046  0.26203720  0.91596566  1
  Zn  Zn58  1  0.46253683  0.13042567  0.48275462  1
  Zn  Zn59  1  0.57211549  0.46112105  0.84302409  1
  Zn  Zn60  1  0.07484821  0.07052301  0.32300610  1
  Zn  Zn61  1  0.92540411  0.47254101  0.26871051  1
  Zn  Zn62  1  0.05176036  0.83291180  0.07595496  1
  Zn  Zn63  1  0.32647176  0.60353186  0.03465320  1
  Zn  Zn64  1  0.24943397  0.77010151  0.78159757  1
  Zn  Zn65  1  0.93772434  0.95925983  0.69837736  1
  Zn  Zn66  1  0.49528343  0.17869744  0.94390846  1
  Zn  Zn67  1  0.57713313  0.34113409  0.55495794  1
  Zn  Zn68  1  0.82735793  0.85110782  0.82121202  1
  Zn  Zn69  1  0.57292433  0.79418177  0.08063366  1
  Zn  Zn70  1  0.17435444  0.45135447  0.46712988  1
  Zn  Zn71  1  0.79751733  0.32264295  0.77471377  1
  Zn  Zn72  1  0.95698822  0.74176201  0.48211987  1
  Zn  Zn73  1  0.89718260  0.13468215  0.47215660  1
  Zn  Zn74  1  0.93354080  0.97638350  0.15151234  1
  Zn  Zn75  1  0.42377827  0.45884450  0.19585260  1
  Zn  Zn76  1  0.56971063  0.04811529  0.83234266  1
  Zn  Zn77  1  0.41432409  0.95103558  0.19925979  1
  Zn  Zn78  1  0.19359745  0.96418553  0.93457208  1
  Zn  Zn79  1  0.13082327  0.85074133  0.51281852  1
  Zn  Zn80  1  0.46672810  0.58645609  0.93386868  1
  Zn  Zn81  1  0.81816258  0.29664119  0.26199670  1
  Zn  Zn82  1  0.40785542  0.69986445  0.40920237  1
  Zn  Zn83  1  0.39187697  0.43548216  0.68698227  1
  Zn  Zn84  1  0.17783815  0.42817833  0.93717443  1
  Zn  Zn85  1  0.12696901  0.30843639  0.07732254  1
  Zn  Zn86  1  0.97376542  0.41560006  0.66781744  1
  Zn  Zn87  1  0.28903645  0.09841599  0.17874815  1
  Zn  Zn88  1  0.86909760  0.12041202  0.04135871  1
  Zn  Zn89  1  0.55393231  0.32060788  0.04547089  1
  Zn  Zn90  1  0.08215049  0.32734165  0.56179776  1
  Zn  Zn91  1  0.86051152  0.78437440  0.32749669  1
  Zn  Zn92  1  0.65286646  0.14126521  0.21819478  1
  Zn  Zn93  1  0.29287212  0.58930844  0.55735691  1
  Zn  Zn94  1  0.70641805  0.93511099  0.94644755  1
  Zn  Zn95  1  0.03791759  0.48555094  0.81039225  1
  Zn  Zn96  1  0.21440677  0.00539102  0.50940300  1
  Zn  Zn97  1  0.72716021  0.39184175  0.40433096  1
  Zn  Zn98  1  0.16537635  0.17687799  0.67082523  1
  Zn  Zn99  1  0.00702044  0.65102293  0.32919771  1
  Zn  Zn100  1  0.15464083  0.72439618  0.63645126  1
  Zn  Zn101  1  0.80780855  0.56428331  0.03967953  1
  O  O102  1  0.16971558  0.09984571  0.15618067  1
  O  O103  1  0.10406895  0.13340753  0.59431679  1
  O  O104  1  0.14526931  0.59134200  0.08464027  1
  O  O105  1  0.09949992  0.62450678  0.62572146  1
  O  O106  1  0.72103398  -0.05373129  0.14498778  1
  O  O107  1  0.68362435  0.16871534  0.59892475  1
  O  O108  1  0.60039235  0.61606358  0.11004509  1
  O  O109  1  0.52840656  0.53954734  0.63708012  1
  O  O110  1  0.41019251  0.43500123  0.38327342  1
  O  O111  1  0.35948249  0.40016156  0.90240348  1
  O  O112  1  0.36316351  0.80901897  0.38958911  1
  O  O113  1  0.47256778  0.76792715  0.85212151  1
  O  O114  1  0.88067770  0.37683691  0.31767602  1
  O  O115  1  0.83465778  0.36667868  0.88191850  1
  O  O116  1  0.89160823  0.88909665  0.35503243  1
  O  O117  1  0.89131617  0.90191403  0.89311747  1
  O  O118  1  0.09834843  -0.14081021  0.35615499  1
  O  O119  1  0.26489739  0.01139562  0.87749179  1
  O  O120  1  0.25414786  0.47998183  0.39349455  1
  O  O121  1  0.24656057  0.50105148  0.88330428  1
  O  O122  1  0.78949927  0.02010251  0.36262930  1
  O  O123  1  0.77301320  0.01425009  0.89554750  1
  O  O124  1  0.73125747  0.48607064  0.34997493  1
  O  O125  1  0.76620126  0.51072850  0.83830983  1
  O  O126  1  0.18926278  0.54961558  0.04274341  1
  O  O127  1  0.22149577  0.51564562  0.61402147  1
  O  O128  1  0.24685776  0.98367114  0.15236763  1
  O  O129  1  0.26471947  0.97287354  0.60569422  1
  O  O130  1  0.73741632  0.47697525  0.07435664  1
  O  O131  1  0.74911900  0.49505241  0.61460037  1
  O  O132  1  0.73094958  1.01468448  0.15586749  1
  O  O133  1  0.75968128  1.02206272  0.64902038  1
  O  O134  1  0.03226204  0.42735897  0.28163328  1
  O  O135  1  0.03805332  0.37692067  0.76093416  1
  O  O136  1  -0.00308365  0.88385026  0.15776516  1
  O  O137  1  0.00058077  0.87813827  0.76452450  1
  O  O138  1  0.49568345  0.39019425  0.25978257  1
  O  O139  1  0.49731868  0.38604838  0.68721420  1
  O  O140  1  0.46009605  0.85338145  0.24157788  1
  O  O141  1  0.59685576  0.91769560  0.63693227  1
  O  O142  1  0.58858663  0.05933325  0.24249549  1
  O  O143  1  0.48157434  -0.00163061  0.73964724  1
  O  O144  1  0.44070034  0.62131236  0.20575952  1
  O  O145  1  0.46011468  0.63164984  0.74871336  1
  O  O146  1  1.00596166  0.13667322  0.25780777  1
  O  O147  1  0.98882447  0.13907753  0.76268813  1
  O  O148  1  0.94463063  0.58475973  0.26864763  1
  O  O149  1  1.00159528  0.66402430  0.74959823  1
  O  O150  1  0.38083553  0.18094108  -0.04006730  1
  O  O151  1  0.41016497  0.18118268  0.58251148  1
  O  O152  1  0.34129601  0.78997858  0.01410755  1
  O  O153  1  0.36098063  0.73838898  0.51882027  1
  O  O154  1  0.89868171  0.22817142  0.01879675  1
  O  O155  1  0.89869378  0.23749373  0.51495230  1
  O  O156  1  0.87325076  0.76810895  0.02784441  1
  O  O157  1  0.85702082  0.76988131  0.52647415  1
  O  O158  1  0.09888650  0.24818780  0.48595271  1
  O  O159  1  0.19848091  0.22253045  1.04971515  1
  O  O160  1  0.12291238  0.73430712  0.52540389  1
  O  O161  1  0.13888816  0.78834747  1.01231109  1
  O  O162  1  0.58450250  0.25274231  0.46696322  1
  O  O163  1  0.63290450  0.25662875  0.98561537  1
  O  O164  1  0.65427032  0.75934230  0.50522536  1
  O  O165  1  0.64882623  0.76802830  1.00901949  1
  O  O166  1  0.49916509  0.22838347  0.03972817  1
  O  O167  1  0.52782682  0.26868001  0.63980740  1
  O  O168  1  0.50372984  0.73381603  0.14390056  1
  O  O169  1  0.46489575  0.75095524  0.63707918  1
  O  O170  1  1.03322548  0.26363094  0.10233574  1
  O  O171  1  0.99852622  0.27835569  0.62789558  1
  O  O172  1  1.04318178  0.72667088  0.13320618  1
  O  O173  1  0.98615837  0.76625049  0.65455600  1
  O  O174  1  -0.06975610  0.34266622  0.38334176  1
  O  O175  1  0.00249191  0.29784440  0.90619070  1
  O  O176  1  -0.05422949  0.72910815  0.37542013  1
  O  O177  1  0.01595685  0.77966345  0.86140030  1
  O  O178  1  0.46787197  0.29832056  0.34587792  1
  O  O179  1  0.55210954  0.24610981  0.86382975  1
  O  O180  1  0.48324568  0.71995192  0.32083783  1
  O  O181  1  0.50560402  0.71977007  0.89261333  1
  O  O182  1  0.21636997  0.11992209  0.49786707  1
  O  O183  1  0.29415677  0.09188514  1.02708803  1
  O  O184  1  0.21998778  0.63113025  0.47667246  1
  O  O185  1  0.25255340  0.68224319  0.98535113  1
  O  O186  1  0.77934925  0.13696783  0.46906612  1
  O  O187  1  0.76098650  0.12835537  1.00657388  1
  O  O188  1  0.75104287  0.66358131  0.52809855  1
  O  O189  1  0.76041865  0.65573483  0.99888512  1
  O  O190  1  0.32667985  0.28981899  0.01200997  1
  O  O191  1  0.19677637  0.36330124  0.53508715  1
  O  O192  1  0.24352941  0.88571895  -0.00194938  1
  O  O193  1  0.24177149  0.85626679  0.48384148  1
  O  O194  1  0.76190675  0.30824824  0.05166258  1
  O  O195  1  0.77402391  0.38369507  0.50349471  1
  O  O196  1  0.77266742  0.85064554  -0.03067344  1
  O  O197  1  0.74233882  0.86516234  0.50299896  1
  O  O198  1  0.15917617  0.47611540  0.20758707  1
  O  O199  1  0.11655124  0.51729380  0.73508983  1
  O  O200  1  0.11450317  1.00291754  0.23397595  1
  O  O201  1  0.15276900  1.02651792  0.76035024  1
  O  O202  1  0.66201231  0.50990822  0.20090102  1
  O  O203  1  0.63472080  0.49272885  0.75440215  1
  O  O204  1  0.67821190  0.93080981  0.29737216  1
  O  O205  1  0.64721223  1.01917055  0.76278930  1
  O  O206  1  0.39689157  -0.01812759  0.30824535  1
  O  O207  1  0.42433812  -0.04314926  0.74428895  1
  O  O208  1  0.35747997  0.52214590  0.26812083  1
  O  O209  1  0.35272799  0.50893485  0.75879676  1
  O  O210  1  0.90242970  0.01927781  0.26037585  1
  O  O211  1  0.87299747  0.03135955  0.76151030  1
  O  O212  1  0.82901206  0.49492163  0.21892771  1
  O  O213  1  0.86245169  0.63835538  0.84142168  1
  O  O214  1  0.10521647  0.40136525  0.38328933  1
  O  O215  1  0.16147589  0.34809716  0.86047543  1
  O  O216  1  0.01533197  0.83762332  0.50027104  1
  O  O217  1  0.10588851  0.91574209  0.89011188  1
  O  O218  1  0.61509614  0.35721120  0.37876316  1
  O  O219  1  0.63084372  0.37708715  0.88345973  1
  O  O220  1  0.72452036  0.87949782  0.32095435  1
  O  O221  1  0.64549269  0.84900042  0.85335609  1
  O  O222  1  0.38713688  0.05402583  0.17087862  1
  O  O223  1  0.40406636  0.12162126  0.62789467  1
  O  O224  1  0.29927295  0.61517016  0.14266775  1
  O  O225  1  0.34871885  0.63557298  0.64152668  1
  O  O226  1  0.90663646  0.09080853  0.14082822  1
  O  O227  1  0.87976518  0.17228262  0.66201708  1
  O  O228  1  0.86671100  0.61271637  0.12096710  1
  O  O229  1  0.88515246  0.66329699  0.63761789  1
  O  O230  1  0.31590091  0.18976668  0.11624512  1
  O  O231  1  0.24940080  0.23684663  0.62553905  1
  O  O232  1  0.22905191  0.76399281  0.10398540  1
  O  O233  1  0.25436305  0.76678814  0.64034312  1
  O  O234  1  0.67332040  0.19447673  0.11987611  1
  O  O235  1  0.79544224  0.28792167  0.64852469  1
  O  O236  1  0.74846845  0.75368106  0.12403267  1
  O  O237  1  0.75656068  0.77624412  0.61764365  1
  O  O238  1  0.25867460  0.23392539  0.39422668  1
  O  O239  1  0.23966806  0.18735424  0.92878254  1
  O  O240  1  0.21715455  0.74972529  0.36819778  1
  O  O241  1  0.24129671  0.78718967  0.89941231  1
  O  O242  1  0.74418006  0.28470275  0.35257748  1
  O  O243  1  0.74681414  0.22845797  0.90618990  1
  O  O244  1  0.77771483  0.75556088  0.41492779  1
  O  O245  1  0.71218052  0.70576466  0.83768415  1
  O  O246  1  0.04681892  0.14708759  -0.04444709  1
  O  O247  1  0.01962424  0.10373122  0.47740496  1
  O  O248  1  0.03098391  0.51624330  -0.01899686  1
  O  O249  1  -0.00159336  0.64779099  0.52748764  1
  O  O250  1  0.50843983  0.07403712  0.01847965  1
  O  O251  1  0.56942833  0.17693391  0.49955740  1
  O  O252  1  0.44842796  0.63279936  0.03449697  1
  O  O253  1  0.48618719  0.66286477  0.48580694  1
  O  O254  1  0.52062939  0.40817122  0.49039201  1
  O  O255  1  0.48233643  0.39265820  0.99889712  1
  O  O256  1  0.39081565  0.93031585  0.47661343  1
  O  O257  1  0.51344429  0.87233470  1.02742042  1
  O  O258  1  0.94219495  0.39033740  0.43478182  1
  O  O259  1  1.01453839  0.35085620  0.95161050  1
  O  O260  1  0.96759143  0.89839423  0.49359597  1
  O  O261  1  0.98983895  0.86755544  0.98530076  1
  O  O262  1  0.54858062  0.50214982  0.36725498  1
  O  O263  1  0.47887482  0.50550821  0.86626891  1
  O  O264  1  0.48634648  1.03859945  0.42366765  1
  O  O265  1  0.52532904  0.96606783  0.90477330  1
  O  O266  1  1.06428649  0.45460159  0.34663340  1
  O  O267  1  0.92821307  0.48588602  0.81453859  1
  O  O268  1  1.00892333  0.99094800  0.36299812  1
  O  O269  1  0.98826740  0.99777240  0.85795411  1
  O  O270  1  0.05140593  0.01810069  0.10858485  1
  O  O271  1  -0.01034705  0.00438725  0.60607543  1
  O  O272  1  0.03889723  0.47627696  0.04022792  1
  O  O273  1  -0.02796524  0.53883138  0.65783045  1
  O  O274  1  0.49847345  -0.02781859  0.11314160  1
  O  O275  1  0.44166619  0.05624734  0.59039329  1
  O  O276  1  0.50870723  0.51111682  0.13127945  1
  O  O277  1  0.46967840  0.52001843  0.60484284  1
  O  O278  1  0.22697506  0.46111939  0.19466846  1
  O  O279  1  0.19704366  0.36506705  0.70161403  1
  O  O280  1  0.06836857  0.82105805  0.30583176  1
  O  O281  1  0.25029236  0.87866913  0.74820030  1
  O  O282  1  0.74924695  0.36217272  0.20063122  1
  O  O283  1  0.78521388  0.41741422  0.72101915  1
  O  O284  1  0.76801203  0.84026767  0.26916201  1
  O  O285  1  0.76253455  0.91466106  0.76524523  1
  O  O286  1  0.27392573  0.12321832  0.28593582  1
  O  O287  1  0.19960413  0.06724845  0.71931174  1
  O  O288  1  0.22295917  0.62974495  0.26711501  1
  O  O289  1  0.26148893  0.66190726  0.77903749  1
  O  O290  1  0.75749188  0.13928128  0.26214657  1
  O  O291  1  0.76155506  0.12516418  0.77899595  1
  O  O292  1  0.76728237  0.62361673  0.26361049  1
  O  O293  1  0.74986873  0.60095675  0.71492666  1
  O  O294  1  0.36300626  0.11456769  0.41889385  1
  O  O295  1  0.48494891  0.10884498  0.86202127  1
  O  O296  1  0.32931007  0.62835943  0.36067548  1
  O  O297  1  0.36573120  0.60448284  0.86802605  1
  O  O298  1  0.87631403  0.14612744  0.34622287  1
  O  O299  1  0.87272128  0.12118489  0.87883172  1
  O  O300  1  0.86936596  0.55411907  0.43767308  1
  O  O301  1  0.88513071  0.67870575  0.89316236  1
  O  O302  1  0.14654931  0.31741120  0.21188777  1
  O  O303  1  0.07430824  0.43108011  0.60882184  1
  O  O304  1  0.14018152  0.89968126  0.14038511  1
  O  O305  1  0.14795730  0.87068951  0.62587513  1
  O  O306  1  0.61914835  0.38785819  0.10611153  1
  O  O307  1  0.66650264  0.36363627  0.61352361  1
  O  O308  1  0.63019975  0.82920946  0.18725854  1
  O  O309  1  0.54217345  0.89498780  0.60031364  1
  O  O310  1  0.20661777  0.30884319  0.24793510  1
  O  O311  1  0.12537839  0.23070190  0.76022584  1
  O  O312  1  0.08656179  0.70595105  0.19034930  1
  O  O313  1  0.12478208  0.76197334  0.74642663  1
  O  O314  1  0.61038332  0.23705907  0.27728861  1
  O  O315  1  0.68802514  0.27388191  0.77627032  1
  O  O316  1  0.60910686  0.80140172  0.25033846  1
  O  O317  1  0.59978290  0.85406005  0.79989450  1
  O  O318  1  0.46463662  0.31496288  0.27308753  1
  O  O319  1  0.49460780  0.30626292  0.69743002  1
  O  O320  1  0.34986412  0.72718169  0.23940634  1
  O  O321  1  0.35870538  0.73833248  0.74573370  1
  O  O322  1  0.88904593  0.22991573  0.20104861  1
  O  O323  1  0.87398311  0.24147664  0.79867183  1
  O  O324  1  0.88098294  0.72604561  0.23052141  1
  O  O325  1  0.85897384  0.76884830  0.75501637  1
  O  O326  1  0.36457620  0.54548577  0.47966821  1
  O  O327  1  0.36566474  0.51262096  0.98600256  1
  O  O328  1  0.27537870  1.00278584  0.40848065  1
  O  O329  1  0.41043444  0.97044418  0.98587575  1
  O  O330  1  0.87455471  0.53826031  0.50740148  1
  O  O331  1  0.86548656  0.50392701  0.96365246  1
  O  O332  1  0.90414671  1.01908856  0.46505703  1
  O  O333  1  0.90446229  1.02598926  0.98673565  1
  O  O334  1  0.16262242  0.00859567  0.03430071  1
  O  O335  1  0.10544255  -0.03178283  0.49629463  1
  O  O336  1  0.18279383  0.38921422  0.03882795  1
  O  O337  1  0.11013571  0.53584532  0.51065605  1
  O  O338  1  0.61431568  -0.02976651  -0.00088778  1
  O  O339  1  0.65081064  0.04117350  0.51396783  1
  O  O340  1  0.60435628  0.50991477  0.00318498  1
  O  O341  1  0.58830161  0.58862307  0.50270479  1
  O  O342  1  0.37006551  0.41246797  0.10782994  1
  O  O343  1  0.34061043  0.37053035  0.61936444  1
  O  O344  1  0.36108981  0.87917845  0.14499261  1
  O  O345  1  0.35342459  0.85438383  0.60742230  1
  O  O346  1  0.91201354  0.36153424  0.11129801  1
  O  O347  1  0.89174028  0.37739014  0.60423644  1
  O  O348  1  0.86548651  0.91413656  0.08597485  1
  O  O349  1  0.88220928  0.87732209  0.64620907  1
  O  O350  1  0.14396960  0.12522981  0.38229078  1
  O  O351  1  0.09360884  0.10958262  0.91276313  1
  O  O352  1  0.10286575  0.64160180  0.38897679  1
  O  O353  1  0.08466994  0.49587530  0.91411519  1
  O  O354  1  0.66808415  0.15199835  0.39111529  1
  O  O355  1  0.65024056  0.11055942  0.89447067  1
  O  O356  1  0.54782460  0.62501624  0.45502997  1
  O  O357  1  0.64718610  0.68144580  0.83359422  1
