# generated using pymatgen
data_V51Zn51O256
_symmetry_space_group_name_H-M   'P 1'
_cell_length_a   17.23416416
_cell_length_b   17.51213304
_cell_length_c   17.63055729
_cell_angle_alpha   89.87814578
_cell_angle_beta   90.17110733
_cell_angle_gamma   91.34484006
_symmetry_Int_Tables_number   1
_chemical_formula_structural   V51Zn51O256
_chemical_formula_sum   'V51 Zn51 O256'
_cell_volume   5319.52450620
_cell_formula_units_Z   1
loop_
 _symmetry_equiv_pos_site_id
 _symmetry_equiv_pos_as_xyz
  1  'x, y, z'
loop_
 _atom_site_type_symbol
 _atom_site_label
 _atom_site_symmetry_multiplicity
 _atom_site_fract_x
 _atom_site_fract_y
 _atom_site_fract_z
 _atom_site_occupancy
  V  V0  1  0.52295707  0.11844205  0.08060385  1
  V  V1  1  0.87969167  -0.03315931  0.35199317  1
  V  V2  1  0.85776092  0.72226889  0.61818179  1
  V  V3  1  0.02167957  0.47307681  0.52705123  1
  V  V4  1  0.27093918  0.38322740  0.06872678  1
  V  V5  1  0.76785710  0.12232875  0.38386442  1
  V  V6  1  0.10688343  0.24988378  0.38082705  1
  V  V7  1  0.60308144  0.09935698  0.48732868  1
  V  V8  1  0.74969966  -0.01416953  0.23201018  1
  V  V9  1  0.69802601  0.67224786  0.05406086  1
  V  V10  1  0.36291313  0.62233010  0.27677647  1
  V  V11  1  0.45530448  0.06294304  0.64996874  1
  V  V12  1  0.54926375  0.90260727  0.92225992  1
  V  V13  1  0.89724600  0.34522329  -0.04550370  1
  V  V14  1  0.10188852  0.07725972  0.48551894  1
  V  V15  1  0.75204396  0.11223935  0.80104302  1
  V  V16  1  0.49600813  0.64952320  0.61125488  1
  V  V17  1  0.69067559  0.61917308  0.42000974  1
  V  V18  1  0.23675512  0.04183361  0.25083030  1
  V  V19  1  0.38378619  -0.00453152  0.35980812  1
  V  V20  1  0.47178156  0.41225583  0.42861598  1
  V  V21  1  0.26976657  0.50197516  0.74466017  1
  V  V22  1  0.14774154  0.21033754  0.85912338  1
  V  V23  1  0.60299488  0.89331963  0.23450268  1
  V  V24  1  -0.02491465  0.07063427  0.61236050  1
  V  V25  1  0.35773905  0.24218260  0.09742735  1
  V  V26  1  0.62256674  0.42296977  0.73984859  1
  V  V27  1  0.02580700  -0.00328356  -0.01636047  1
  V  V28  1  0.24967000  0.32021032  0.59394423  1
  V  V29  1  0.06742039  0.72710927  0.37651513  1
  V  V30  1  0.40211353  0.23381789  0.66775311  1
  V  V31  1  -0.00013049  0.86969122  0.86260076  1
  V  V32  1  0.41652450  0.15969588  0.24571164  1
  V  V33  1  0.14644583  0.92762453  0.77046251  1
  V  V34  1  0.10985847  0.62808962  -0.00525522  1
  V  V35  1  0.01767539  0.39509403  0.84601519  1
  V  V36  1  0.79021232  0.78159946  -0.03623584  1
  V  V37  1  0.12460795  0.48173902  0.11968508  1
  V  V38  1  0.00325051  0.22549485  0.73419065  1
  V  V39  1  -0.01933583  0.36118749  0.38199572  1
  V  V40  1  0.25001035  0.83814417  0.13189710  1
  V  V41  1  0.87752625  0.12779126  0.23278891  1
  V  V42  1  0.58017624  0.81686529  0.37963846  1
  V  V43  1  0.63517740  0.76804335  0.85715947  1
  V  V44  1  0.39701603  -0.00994018  0.89863290  1
  V  V45  1  0.62564330  -0.01864923  0.61882078  1
  V  V46  1  0.23448901  0.21410450  0.47478200  1
  V  V47  1  0.65424843  0.12277778  -0.04572481  1
  V  V48  1  0.25585184  0.73591126  -0.01183338  1
  V  V49  1  0.11111704  0.83047613  0.23483166  1
  V  V50  1  0.00425827  0.23864642  0.23312589  1
  Zn  Zn51  1  0.26658466  0.58694581  0.10076819  1
  Zn  Zn52  1  0.39910259  0.34984161  0.25541661  1
  Zn  Zn53  1  0.69111338  0.16162680  0.18964420  1
  Zn  Zn54  1  0.05574356  0.69925902  0.58253398  1
  Zn  Zn55  1  0.11042331  0.52977224  0.38346356  1
  Zn  Zn56  1  0.14936848  0.64220177  0.23803743  1
  Zn  Zn57  1  0.66946029  0.58717985  0.81180689  1
  Zn  Zn58  1  0.24472116  0.44127798  0.27543959  1
  Zn  Zn59  1  0.18910912  0.47839667  0.92854897  1
  Zn  Zn60  1  0.93733419  0.92918724  0.18744644  1
  Zn  Zn61  1  0.32458385  0.08779864  0.52417947  1
  Zn  Zn62  1  0.66505289  0.70690995  0.24348576  1
  Zn  Zn63  1  0.71782235  0.55368166  0.61835435  1
  Zn  Zn64  1  0.33372874  0.06716282  0.09288032  1
  Zn  Zn65  1  0.83544302  0.30113215  0.78111365  1
  Zn  Zn66  1  0.13845271  0.16675140  0.65660184  1
  Zn  Zn67  1  0.41779114  0.96599998  0.18536123  1
  Zn  Zn68  1  0.22811611  0.25058176  0.23674232  1
  Zn  Zn69  1  0.95792061  0.14276828  0.41417684  1
  Zn  Zn70  1  0.55331226  0.81833812  0.55299254  1
  Zn  Zn71  1  0.67087449  0.72169473  0.67948189  1
  Zn  Zn72  1  0.31243620  0.30610930  0.81745324  1
  Zn  Zn73  1  0.16966756  0.93129642  0.37150721  1
  Zn  Zn74  1  0.05468045  0.05815449  0.30317835  1
  Zn  Zn75  1  0.73770682  0.94396421  0.89884670  1
  Zn  Zn76  1  0.82933681  0.04378559  0.06400914  1
  Zn  Zn77  1  0.76882897  0.09777873  0.59433692  1
  Zn  Zn78  1  0.20153398  0.92786296  0.96432295  1
  Zn  Zn79  1  0.05339357  0.07152314  0.81202899  1
  Zn  Zn80  1  0.91955666  0.67884645  0.00396018  1
  Zn  Zn81  1  1.01599963  0.66811716  0.83388415  1
  Zn  Zn82  1  0.98770635  0.19104465  0.94039215  1
  Zn  Zn83  1  0.68102123  0.95996621  0.41611008  1
  Zn  Zn84  1  0.32116639  0.93691080  0.71589415  1
  Zn  Zn85  1  0.43248120  0.78338004  0.94471166  1
  Zn  Zn86  1  0.07373059  0.81760588  0.04363062  1
  Zn  Zn87  1  0.09739768  0.34568653  -0.01175795  1
  Zn  Zn88  1  0.19149281  0.57265081  0.56521992  1
  Zn  Zn89  1  0.99292646  0.87231454  0.66137398  1
  Zn  Zn90  1  0.57318995  0.06147550  0.30849663  1
  Zn  Zn91  1  0.67499329  0.44150090  0.46787419  1
  Zn  Zn92  1  0.33348070  0.83094786  0.27085400  1
  Zn  Zn93  1  0.35688944  0.60921414  0.48530845  1
  Zn  Zn94  1  1.06264286  0.53793284  0.70519173  1
  Zn  Zn95  1  1.04261709  0.43007618  0.24467998  1
  Zn  Zn96  1  0.07435986  0.30937850  0.56085802  1
  Zn  Zn97  1  0.43599963  0.20669935  0.43545722  1
  Zn  Zn98  1  0.56770230  0.05342076  0.79565034  1
  Zn  Zn99  1  0.67710539  0.87684483  0.05141714  1
  Zn  Zn100  1  0.26254377  0.44187859  0.45614069  1
  Zn  Zn101  1  0.77988093  0.32611451  0.35441784  1
  O  O102  1  0.13015690  0.14968031  0.08534217  1
  O  O103  1  0.10121515  0.08498197  0.58787112  1
  O  O104  1  0.15938962  0.57995245  0.14750448  1
  O  O105  1  0.10665383  0.61010805  0.61867868  1
  O  O106  1  0.61340508  0.12806216  0.12385018  1
  O  O107  1  0.53822935  0.05148209  0.59331755  1
  O  O108  1  0.67858165  0.66351024  0.14976494  1
  O  O109  1  0.58901157  0.70624314  0.59715542  1
  O  O110  1  0.36947008  0.42318832  0.41278377  1
  O  O111  1  0.41013147  0.35913482  0.88785980  1
  O  O112  1  0.38243109  0.89851731  0.34108573  1
  O  O113  1  0.44220069  0.89340334  0.94227994  1
  O  O114  1  0.88392617  0.36466381  0.38957163  1
  O  O115  1  0.89733886  0.36176226  0.85100899  1
  O  O116  1  0.87379649  0.87486783  0.34244663  1
  O  O117  1  0.90809050  0.88008035  0.84257979  1
  O  O118  1  0.26728015  -0.00392082  0.33924932  1
  O  O119  1  0.29487468  0.00002861  0.94633347  1
  O  O120  1  0.20847133  0.47705931  0.37087440  1
  O  O121  1  0.23991589  0.53037293  0.83978064  1
  O  O122  1  0.76886287  0.00162516  0.35751640  1
  O  O123  1  0.77061796  0.01995261  0.82772287  1
  O  O124  1  0.62565003  0.53762156  0.44310358  1
  O  O125  1  0.89047926  0.55733296  0.87634142  1
  O  O126  1  0.28057609  0.47022981  0.11317013  1
  O  O127  1  0.29591535  0.44920154  0.66467866  1
  O  O128  1  0.25478910  1.01215692  0.15772986  1
  O  O129  1  0.25358705  1.04011373  0.61843414  1
  O  O130  1  0.64638261  0.46897161  0.17954838  1
  O  O131  1  0.80976057  0.48940025  0.70156331  1
  O  O132  1  0.75975269  0.98646411  0.13407364  1
  O  O133  1  0.72399773  0.99322521  0.60104911  1
  O  O134  1  -0.01328098  0.33678589  0.27389665  1
  O  O135  1  0.02997294  0.31980203  0.78058664  1
  O  O136  1  0.02665493  0.88033185  0.22364113  1
  O  O137  1  0.04758071  0.88674582  0.76122988  1
  O  O138  1  0.47673762  0.35585934  0.33975384  1
  O  O139  1  0.52808702  0.40989114  0.74006752  1
  O  O140  1  0.50792120  0.90853219  0.22002718  1
  O  O141  1  0.33715531  0.78236146  0.71770771  1
  O  O142  1  0.51214369  0.13505997  0.24507366  1
  O  O143  1  0.48145976  0.09323712  0.73725620  1
  O  O144  1  0.45983769  0.60915372  0.26129308  1
  O  O145  1  0.50908789  0.65715317  0.70853308  1
  O  O146  1  0.98853752  0.12799823  0.24473106  1
  O  O147  1  1.00650365  0.11338654  0.70245751  1
  O  O148  1  0.92957019  0.58000375  0.30611209  1
  O  O149  1  1.01625381  0.62802346  0.73649836  1
  O  O150  1  0.33333138  0.19288323  0.02044562  1
  O  O151  1  0.33451388  0.19831537  0.48375457  1
  O  O152  1  0.35851473  0.73096794  -0.00176022  1
  O  O153  1  0.30743204  0.70171007  0.52922745  1
  O  O154  1  0.90287146  0.24925107  -0.02312030  1
  O  O155  1  0.68267855  0.31672583  0.53347106  1
  O  O156  1  0.88700646  0.77800628  -0.04754236  1
  O  O157  1  0.87490695  0.75484892  0.52477965  1
  O  O158  1  0.12190121  0.23714903  0.48615191  1
  O  O159  1  0.08853476  0.24894812  0.93859120  1
  O  O160  1  0.06956121  0.71221469  0.47275582  1
  O  O161  1  0.13532654  0.72869404  1.01655457  1
  O  O162  1  0.66440023  0.14526595  0.54712382  1
  O  O163  1  0.67265868  0.21028196  0.97907319  1
  O  O164  1  0.62392265  0.82685849  0.46952326  1
  O  O165  1  0.67497776  0.76248907  1.01165505  1
  O  O166  1  0.47494804  0.20113018  0.07861977  1
  O  O167  1  0.49344953  0.25604322  0.66157130  1
  O  O168  1  0.50541566  0.72017286  0.11322621  1
  O  O169  1  0.46709415  0.74865652  0.59182792  1
  O  O170  1  1.01868539  0.25394596  0.14411477  1
  O  O171  1  1.04344986  0.24116376  0.64093455  1
  O  O172  1  0.97205738  0.75331037  0.09405526  1
  O  O173  1  0.94145064  0.66917080  0.59914940  1
  O  O174  1  -0.00506503  0.25157534  0.39211310  1
  O  O175  1  0.01075621  0.17491870  0.82877513  1
  O  O176  1  -0.02341263  0.73146647  0.35178235  1
  O  O177  1  0.01978182  0.77311306  0.85765018  1
  O  O178  1  0.45377657  0.31599445  0.46389134  1
  O  O179  1  0.57758176  0.40618430  0.94924135  1
  O  O180  1  0.48827367  0.79790117  0.39055945  1
  O  O181  1  0.53692901  0.79221869  0.90058193  1
  O  O182  1  0.20902548  0.11373289  0.48366729  1
  O  O183  1  0.18128352  0.13377525  1.04097799  1
  O  O184  1  0.21437287  0.74263821  0.41885911  1
  O  O185  1  0.23726905  0.63202028  1.00562520  1
  O  O186  1  0.78933876  0.10750203  0.47517746  1
  O  O187  1  0.75619882  0.08318295  0.98367851  1
  O  O188  1  0.69359726  0.62339828  0.52017288  1
  O  O189  1  0.80160775  0.68917936  1.02744122  1
  O  O190  1  0.26444184  0.40633363  -0.02546034  1
  O  O191  1  0.25602243  0.33559337  0.49563576  1
  O  O192  1  0.24772064  0.84579677  0.02509781  1
  O  O193  1  0.23794405  0.86750887  0.44628380  1
  O  O194  1  0.82970925  0.38712727  0.00335752  1
  O  O195  1  0.70227512  0.39451801  0.37844685  1
  O  O196  1  0.77232225  0.88086340  -0.01197046  1
  O  O197  1  0.80855127  0.92549492  0.49415201  1
  O  O198  1  0.15189177  0.44459613  0.21490338  1
  O  O199  1  0.16453927  0.49242330  0.73275983  1
  O  O200  1  0.14038414  0.99901977  0.27276828  1
  O  O201  1  0.13638254  1.02309923  0.75546078  1
  O  O202  1  0.43575967  0.43572487  0.20653803  1
  O  O203  1  0.65376259  0.48312064  0.81289386  1
  O  O204  1  0.64103307  1.00047997  0.23942665  1
  O  O205  1  0.62146997  1.00681964  0.71310223  1
  O  O206  1  0.37073482  0.04832675  0.25915503  1
  O  O207  1  0.35946679  -0.04729377  0.81606298  1
  O  O208  1  0.33407965  0.52326123  0.28466211  1
  O  O209  1  0.35997918  0.53799892  0.77064910  1
  O  O210  1  0.86867375  -0.00232046  0.24379975  1
  O  O211  1  0.79965288  -0.06011924  0.70605428  1
  O  O212  1  0.89406141  0.54956075  0.25314701  1
  O  O213  1  0.82393123  0.54752477  0.84737172  1
  O  O214  1  0.11034523  0.34481714  0.37817652  1
  O  O215  1  0.11445781  0.40535383  0.88400454  1
  O  O216  1  0.10913650  0.82623057  0.34362276  1
  O  O217  1  0.17278464  0.90655692  0.86153452  1
  O  O218  1  0.56615456  0.39873303  0.46345535  1
  O  O219  1  0.56193460  0.36430123  1.00296470  1
  O  O220  1  0.59987192  0.91287015  0.34922934  1
  O  O221  1  0.64347260  0.88272291  0.87572355  1
  O  O222  1  0.34570984  0.15316022  0.16062796  1
  O  O223  1  0.39027157  0.13643964  0.61552222  1
  O  O224  1  0.34809009  0.61719224  0.17662714  1
  O  O225  1  0.40331752  0.61941974  0.63602123  1
  O  O226  1  0.86935784  0.11647912  0.13702600  1
  O  O227  1  0.88203680  0.09974671  0.60862988  1
  O  O228  1  0.83502634  0.69413948  0.25259427  1
  O  O229  1  0.81032024  0.62995944  0.61607820  1
  O  O230  1  0.26026848  0.28142332  0.12796365  1
  O  O231  1  0.22393635  0.22286900  0.59258240  1
  O  O232  1  0.26056887  0.74432640  0.12898536  1
  O  O233  1  0.24268948  0.68838598  0.56314077  1
  O  O234  1  0.76332778  0.31368818  0.19012344  1
  O  O235  1  0.64149000  0.31946177  0.59059686  1
  O  O236  1  0.78823471  0.74760463  0.25519217  1
  O  O237  1  0.75689480  0.75110596  0.61680067  1
  O  O238  1  0.21713523  0.23170993  0.37850915  1
  O  O239  1  0.23442235  0.25960875  0.87587482  1
  O  O240  1  0.26082288  0.80207972  0.41449486  1
  O  O241  1  0.24346463  0.74850908  0.89765110  1
  O  O242  1  0.76307523  0.21892595  0.37292450  1
  O  O243  1  0.78520678  0.21270522  0.84332505  1
  O  O244  1  0.77135850  0.67682865  0.42059934  1
  O  O245  1  0.74665403  0.77058685  0.87465066  1
  O  O246  1  0.00733138  0.09257334  -0.01475449  1
  O  O247  1  -0.00835069  0.08827156  0.50452744  1
  O  O248  1  0.01536366  0.62777226  0.02747988  1
  O  O249  1  -0.03234505  0.55954269  0.48659273  1
  O  O250  1  0.55658781  0.10211176  -0.01643662  1
  O  O251  1  0.52124861  0.15076543  0.46857649  1
  O  O252  1  0.50507217  0.66335009  0.07226387  1
  O  O253  1  0.46599016  0.63326995  0.51233903  1
  O  O254  1  0.44873206  0.46149483  0.51076425  1
  O  O255  1  0.41974669  0.42684856  0.90700345  1
  O  O256  1  0.45141912  0.88443016  0.52253030  1
  O  O257  1  0.58311494  0.92578080  1.00952078  1
  O  O258  1  1.00988210  0.37452877  0.49281437  1
  O  O259  1  0.99224519  0.39170824  0.95819745  1
  O  O260  1  1.05925861  0.79860605  0.62084834  1
  O  O261  1  1.02177947  0.87921247  0.96879162  1
  O  O262  1  0.49864044  0.48726784  0.36968910  1
  O  O263  1  0.50406372  0.56228373  0.91694489  1
  O  O264  1  0.48109456  1.02112487  0.35654311  1
  O  O265  1  0.52163050  0.98295802  0.86845725  1
  O  O266  1  1.01722284  0.45635949  0.35468972  1
  O  O267  1  1.00782769  0.47497918  0.79484835  1
  O  O268  1  0.97628880  0.99395082  0.35818119  1
  O  O269  1  1.01909010  0.98696823  0.88017699  1
  O  O270  1  -0.02836993  -0.02409388  0.08410124  1
  O  O271  1  -0.02765606  -0.02546175  0.62645637  1
  O  O272  1  0.02873178  0.47632550  0.13866972  1
  O  O273  1  0.02170645  0.47015333  0.62161124  1
  O  O274  1  0.45670063  0.04466785  0.10968667  1
  O  O275  1  0.40131751  -0.02146218  0.65327305  1
  O  O276  1  0.52338845  0.50685207  0.08018595  1
  O  O277  1  0.54649588  0.56697413  0.60363162  1
  O  O278  1  0.28996883  0.34279776  0.27353093  1
  O  O279  1  0.28000541  0.40756394  0.78557299  1
  O  O280  1  0.22104203  0.84439484  0.24284268  1
  O  O281  1  0.21889737  0.89967212  0.70767824  1
  O  O282  1  0.79909231  0.35556234  0.24075455  1
  O  O283  1  0.74793103  0.34199755  0.71967739  1
  O  O284  1  0.73929580  0.89430666  0.25522417  1
  O  O285  1  0.75360366  0.89533346  0.73623553  1
  O  O286  1  0.22578174  0.13794974  0.25329904  1
  O  O287  1  0.24468658  0.08527422  0.67319311  1
  O  O288  1  0.25695796  0.64103971  0.27867732  1
  O  O289  1  0.25495372  0.58451264  0.68945050  1
  O  O290  1  0.76429141  0.10902999  0.25131836  1
  O  O291  1  0.74935518  0.12392247  0.70697567  1
  O  O292  1  0.66601756  0.62272902  0.31908708  1
  O  O293  1  0.68908007  0.61834634  0.70498596  1
  O  O294  1  0.39345940  0.18707583  0.33576107  1
  O  O295  1  0.41527913  0.08119088  0.88833608  1
  O  O296  1  0.37017598  0.62274377  0.37955517  1
  O  O297  1  0.44141772  0.59045260  0.93184195  1
  O  O298  1  0.87256545  0.11083030  0.34940152  1
  O  O299  1  0.84295180  0.15428386  0.84075299  1
  O  O300  1  0.75520320  0.54683000  0.39263381  1
  O  O301  1  0.91350343  0.63665175  0.88935571  1
  O  O302  1  0.15362230  0.38609125  0.07530639  1
  O  O303  1  0.16461888  0.36144782  0.61686677  1
  O  O304  1  0.14146680  0.85410261  0.12957554  1
  O  O305  1  0.16464147  0.72544989  0.76644350  1
  O  O306  1  0.61740619  0.40874252  0.20312637  1
  O  O307  1  0.64893755  0.46993614  0.65600370  1
  O  O308  1  0.63672955  0.86267299  0.14977991  1
  O  O309  1  0.60189391  0.88557308  0.62202944  1
  O  O310  1  0.10481277  0.23458593  0.27303062  1
  O  O311  1  0.14000059  0.21318533  0.75661372  1
  O  O312  1  0.09157656  0.73553370  0.22306510  1
  O  O313  1  0.17799848  0.74451890  0.70106171  1
  O  O314  1  0.70022741  0.27254944  0.21831677  1
  O  O315  1  0.67542829  0.32618837  0.74586292  1
  O  O316  1  0.60800021  0.78984524  0.28039774  1
  O  O317  1  0.63139148  0.77791877  0.76091563  1
  O  O318  1  0.42137301  0.25804608  0.20336636  1
  O  O319  1  0.37263869  0.23839261  0.76060829  1
  O  O320  1  0.37109535  0.72439609  0.27830883  1
  O  O321  1  0.36378019  0.75394931  0.77681917  1
  O  O322  1  0.88882386  0.22553199  0.24098273  1
  O  O323  1  0.90797634  0.24362590  0.72059027  1
  O  O324  1  0.92380335  0.77339161  0.15031878  1
  O  O325  1  0.87771128  0.72182259  0.71699529  1
  O  O326  1  0.28219007  0.53572050  0.51540679  1
  O  O327  1  0.45962573  0.48860845  1.05453331  1
  O  O328  1  0.36378572  1.01758001  0.45487974  1
  O  O329  1  0.34995580  0.99783055  1.00739832  1
  O  O330  1  0.91635534  0.50160781  0.49927329  1
  O  O331  1  0.80343595  0.53746254  1.12274633  1
  O  O332  1  0.87169047  0.95630108  0.47328914  1
  O  O333  1  0.91186689  0.97440604  1.02669058  1
  O  O334  1  0.12162424  -0.00927905  0.01071919  1
  O  O335  1  0.11655512  -0.01300283  0.45850803  1
  O  O336  1  0.13406362  0.52231065  0.01549094  1
  O  O337  1  0.11368009  0.50908870  0.49695221  1
  O  O338  1  0.69472190  0.02203395  -0.01717179  1
  O  O339  1  0.61640321  -0.00319683  0.49755428  1
  O  O340  1  0.65763810  0.59937089  0.00974484  1
  O  O341  1  0.74092346  0.47641999  0.54547552  1
  O  O342  1  0.37073383  0.34303796  0.06709695  1
  O  O343  1  0.34885689  0.31292974  0.62737892  1
  O  O344  1  0.34445842  0.87784723  0.16415202  1
  O  O345  1  0.38747175  0.85585429  0.50613798  1
  O  O346  1  0.80404764  0.47084870  0.14369461  1
  O  O347  1  0.87716669  0.47856819  0.68059186  1
  O  O348  1  0.88179793  0.83568062  0.13794507  1
  O  O349  1  0.89221718  0.82016342  0.64270495  1
  O  O350  1  0.07979124  0.12731256  0.39263314  1
  O  O351  1  0.15584248  0.11794167  0.88137587  1
  O  O352  1  0.10125616  0.63116807  0.33980970  1
  O  O353  1  0.09969007  0.62365568  0.89960866  1
  O  O354  1  0.65228639  0.10025144  0.38949232  1
  O  O355  1  0.65100889  0.11902968  0.84912627  1
  O  O356  1  0.61705173  0.68955992  0.41339691  1
  O  O357  1  0.63109168  0.67006814  0.86584735  1
