# generated using pymatgen
data_V51Zn51O256
_symmetry_space_group_name_H-M   'P 1'
_cell_length_a   17.39163734
_cell_length_b   17.53454724
_cell_length_c   17.34369138
_cell_angle_alpha   90.41179162
_cell_angle_beta   91.31195022
_cell_angle_gamma   90.15945119
_symmetry_Int_Tables_number   1
_chemical_formula_structural   V51Zn51O256
_chemical_formula_sum   'V51 Zn51 O256'
_cell_volume   5287.49046145
_cell_formula_units_Z   1
loop_
 _symmetry_equiv_pos_site_id
 _symmetry_equiv_pos_as_xyz
  1  'x, y, z'
loop_
 _atom_site_type_symbol
 _atom_site_label
 _atom_site_symmetry_multiplicity
 _atom_site_fract_x
 _atom_site_fract_y
 _atom_site_fract_z
 _atom_site_occupancy
  V  V0  1  0.76441091  0.72070558  -0.00288764  1
  V  V1  1  -0.03505882  0.75201126  0.76479301  1
  V  V2  1  0.51734821  0.12328905  0.12135791  1
  V  V3  1  0.31744931  0.78051743  0.14788911  1
  V  V4  1  -0.01463360  0.49777118  0.49125840  1
  V  V5  1  0.59279610  0.25969921  0.38237555  1
  V  V6  1  -0.01744342  0.58345755  0.12780119  1
  V  V7  1  0.50560720  0.77279704  0.23245570  1
  V  V8  1  0.59416658  -0.01112947  0.60777645  1
  V  V9  1  0.39464843  0.89077162  0.50319922  1
  V  V10  1  0.37758172  0.26557602  0.11447057  1
  V  V11  1  0.15896288  0.00781572  0.09226590  1
  V  V12  1  0.89371703  0.53476174  0.86032997  1
  V  V13  1  0.13089647  0.25968464  0.89508163  1
  V  V14  1  0.84134261  0.48875829  0.37068371  1
  V  V15  1  0.13010155  0.40033716  0.74221272  1
  V  V16  1  -0.01939773  0.62351126  0.63313961  1
  V  V17  1  0.12722136  0.75988088  0.85629089  1
  V  V18  1  0.29125802  0.16700514  0.89240378  1
  V  V19  1  0.00941980  0.13415519  0.10159840  1
  V  V20  1  0.10854237  0.89819792  0.30300483  1
  V  V21  1  0.49577241  -0.01854295  0.00610604  1
  V  V22  1  0.15072460  0.49330506  0.08837166  1
  V  V23  1  0.46835502  0.34190582  -0.05664199  1
  V  V24  1  0.87953655  0.09282698  0.23312801  1
  V  V25  1  0.23190419  0.77517049  -0.00415522  1
  V  V26  1  0.29884295  0.63250152  0.24419773  1
  V  V27  1  0.02235894  0.26216736  0.74546160  1
  V  V28  1  -0.00392336  0.38518127  0.88349056  1
  V  V29  1  -0.03556491  0.25161854  0.24972273  1
  V  V30  1  0.61537594  0.87129803  0.75977501  1
  V  V31  1  0.62383015  0.34560206  0.73337297  1
  V  V32  1  0.75112395  0.89523789  0.60735129  1
  V  V33  1  0.86460658  0.75356486  0.59032684  1
  V  V34  1  0.24875987  0.15263557  0.38839867  1
  V  V35  1  0.50850273  0.62015177  0.11347377  1
  V  V36  1  0.19318727  0.06693175  0.76318983  1
  V  V37  1  0.87168935  0.00393813  0.85506435  1
  V  V38  1  0.79188084  0.11141010  0.39567683  1
  V  V39  1  0.09595428  0.62835689  0.49245394  1
  V  V40  1  0.36561707  -0.00544379  0.87839819  1
  V  V41  1  0.11867607  0.37751973  0.27289076  1
  V  V42  1  0.24014877  0.61842922  0.88995280  1
  V  V43  1  0.25142897  0.70715867  0.49785376  1
  V  V44  1  0.61138654  0.62926348  0.48288315  1
  V  V45  1  0.08332561  0.73816801  0.36625107  1
  V  V46  1  0.85145564  0.38386379  0.52374541  1
  V  V47  1  0.60724731  0.13484958  0.51972092  1
  V  V48  1  0.38578068  0.54874182  0.35239127  1
  V  V49  1  0.71471286  0.63499867  0.84898881  1
  V  V50  1  0.74105131  0.65361921  0.36263167  1
  Zn  Zn51  1  0.83039310  0.05625500  0.05562655  1
  Zn  Zn52  1  0.48347064  0.16785860  -0.05190254  1
  Zn  Zn53  1  0.56338345  0.80215275  0.57921693  1
  Zn  Zn54  1  0.69101243  0.94387363  0.94243788  1
  Zn  Zn55  1  0.94943171  0.43950147  0.21555086  1
  Zn  Zn56  1  0.85341619  0.27835283  0.38946261  1
  Zn  Zn57  1  0.65273205  0.14077578  0.72148527  1
  Zn  Zn58  1  0.44218208  0.73803437  0.43778160  1
  Zn  Zn59  1  0.67097559  0.44615561  0.44949542  1
  Zn  Zn60  1  0.43315311  0.92097241  0.15346933  1
  Zn  Zn61  1  0.82002531  0.83447959  0.42234683  1
  Zn  Zn62  1  0.33543318  0.08396706  0.06291027  1
  Zn  Zn63  1  0.06514913  0.32694529  0.06229773  1
  Zn  Zn64  1  0.19018978  0.44677637  0.89959129  1
  Zn  Zn65  1  0.80860651  0.58524457  0.52711613  1
  Zn  Zn66  1  0.77721343  0.81982459  0.81584885  1
  Zn  Zn67  1  0.24937339  0.94905146  0.39388011  1
  Zn  Zn68  1  0.29267308  0.43989960  0.19782794  1
  Zn  Zn69  1  0.51648167  -0.00576796  0.79214619  1
  Zn  Zn70  1  0.06024745  0.57268206  0.81348581  1
  Zn  Zn71  1  0.92094382  0.67376658  0.42465268  1
  Zn  Zn72  1  0.69563042  0.96984170  0.44146076  1
  Zn  Zn73  1  0.19955157  0.94128822  0.90352789  1
  Zn  Zn74  1  0.43435759  0.40412056  0.68275488  1
  Zn  Zn75  1  0.03661783  0.55655706  0.31373570  1
  Zn  Zn76  1  0.10918782  0.82319381  0.08143574  1
  Zn  Zn77  1  0.06885827  0.31344796  0.57980100  1
  Zn  Zn78  1  0.23945350  0.26475679  0.75683280  1
  Zn  Zn79  1  0.67057808  0.67311371  0.17029649  1
  Zn  Zn80  1  0.07497297  0.06430756  0.91646242  1
  Zn  Zn81  1  0.53349459  0.63418346  0.31941342  1
  Zn  Zn82  1  0.76974024  0.11123258  0.59504128  1
  Zn  Zn83  1  0.44693186  0.78082548  0.03834982  1
  Zn  Zn84  1  0.95591896  0.70992547  0.95620560  1
  Zn  Zn85  1  0.33336747  0.57016552  0.06267987  1
  Zn  Zn86  1  0.67578676  0.05753470  0.24743107  1
  Zn  Zn87  1  0.94138971  0.90680326  0.28078720  1
  Zn  Zn88  1  0.28111216  0.28648972  0.28247607  1
  Zn  Zn89  1  0.67884186  0.30649659  0.54109753  1
  Zn  Zn90  1  0.82342510  0.55161360  0.02151109  1
  Zn  Zn91  1  0.93950969  0.91200610  0.67707647  1
  Zn  Zn92  1  0.14126684  0.74196327  0.64661953  1
  Zn  Zn93  1  0.94170515  0.43807029  0.69714257  1
  Zn  Zn94  1  0.34571317  0.96994928  0.68500938  1
  Zn  Zn95  1  0.44058887  0.20587779  0.46162130  1
  Zn  Zn96  1  0.27884861  0.79937570  0.34170998  1
  Zn  Zn97  1  1.03450998  0.32307739  0.42041710  1
  Zn  Zn98  1  0.67464044  0.71381744  0.66144897  1
  Zn  Zn99  1  0.57233252  0.49434234  0.87252654  1
  Zn  Zn100  1  0.08599111  0.08541437  0.26128955  1
  Zn  Zn101  1  0.14079654  0.68065683  0.17262075  1
  O  O102  1  0.09531658  0.07674479  0.14316959  1
  O  O103  1  -0.00745136  0.02958232  0.65531759  1
  O  O104  1  0.09939219  0.57796674  0.11980526  1
  O  O105  1  0.07839400  0.65004166  0.60777600  1
  O  O106  1  0.58539477  0.08489025  0.18754214  1
  O  O107  1  0.60819848  0.09093883  0.63018505  1
  O  O108  1  0.60344555  0.59113340  0.12027523  1
  O  O109  1  0.68463616  0.55063746  0.65547034  1
  O  O110  1  0.41343201  0.37986923  0.39037521  1
  O  O111  1  0.40362598  0.34310936  0.87262097  1
  O  O112  1  0.37246419  0.82698300  0.40197015  1
  O  O113  1  0.31732450  0.91215847  0.87392746  1
  O  O114  1  0.85288174  0.39108410  0.40015615  1
  O  O115  1  0.90489874  0.36522676  0.86418169  1
  O  O116  1  0.86031457  0.89314098  0.34348110  1
  O  O117  1  0.85696879  0.90052592  0.86712915  1
  O  O118  1  0.26306504  0.05463902  0.37891418  1
  O  O119  1  0.28556344  0.05690439  0.87063138  1
  O  O120  1  0.34429293  0.36889235  0.37596936  1
  O  O121  1  0.25511091  0.52565219  0.86470948  1
  O  O122  1  0.71820548  0.04879161  0.35716028  1
  O  O123  1  0.76831647  0.00474509  0.86326972  1
  O  O124  1  0.74103023  0.49231948  0.37519891  1
  O  O125  1  0.79125418  0.57748857  0.83095805  1
  O  O126  1  0.25254222  0.49731841  0.10977940  1
  O  O127  1  0.29269401  0.51940836  0.69437444  1
  O  O128  1  0.25153797  1.03320842  0.11487943  1
  O  O129  1  0.12293915  1.09821673  0.70726942  1
  O  O130  1  0.76343864  0.47457516  0.08504424  1
  O  O131  1  0.74601460  0.52507350  0.63137880  1
  O  O132  1  0.75204009  0.99315356  0.02411885  1
  O  O133  1  0.76070862  0.98972387  0.61914986  1
  O  O134  1  -0.06493264  0.33182478  0.20088338  1
  O  O135  1  0.01159333  0.37193454  0.75679755  1
  O  O136  1  0.03617245  0.87332241  0.23641081  1
  O  O137  1  -0.00816222  0.84477193  0.74880020  1
  O  O138  1  0.62484056  0.43134649  0.19750518  1
  O  O139  1  0.51764221  0.35403640  0.73379329  1
  O  O140  1  0.49432603  0.87118817  0.23299445  1
  O  O141  1  0.53147248  0.87517979  0.80512531  1
  O  O142  1  0.45356545  0.08937222  0.30828135  1
  O  O143  1  0.59247313  0.09661972  0.80580888  1
  O  O144  1  0.48946533  0.64955092  0.21042123  1
  O  O145  1  0.47019034  0.52844106  0.79792583  1
  O  O146  1  1.00253777  0.15123126  0.22954547  1
  O  O147  1  0.95368331  0.08621258  0.63715288  1
  O  O148  1  0.98365329  0.60462160  0.22454828  1
  O  O149  1  0.99382190  0.63815059  0.73665761  1
  O  O150  1  0.41921684  0.30812320  0.03290383  1
  O  O151  1  0.42041766  0.31041508  0.53131017  1
  O  O152  1  0.33285740  0.76162935  0.03900966  1
  O  O153  1  0.34707570  0.69331846  0.49466765  1
  O  O154  1  0.69730842  0.18523927  0.05610357  1
  O  O155  1  0.86460406  0.28806789  0.50418073  1
  O  O156  1  0.85952171  0.74860614  -0.00455197  1
  O  O157  1  0.88087881  0.75962911  0.49112069  1
  O  O158  1  0.08577356  0.25928696  0.49116874  1
  O  O159  1  0.13890423  0.28515942  0.98886445  1
  O  O160  1  0.08564408  0.72635712  0.48226488  1
  O  O161  1  0.12764199  0.76039690  0.98478029  1
  O  O162  1  0.68213255  0.19748664  0.55677198  1
  O  O163  1  0.72862469  0.30910038  0.96094947  1
  O  O164  1  0.61339593  0.69610289  0.56600062  1
  O  O165  1  0.65427481  0.78079470  0.99357287  1
  O  O166  1  0.54157939  0.21389891  0.11970762  1
  O  O167  1  0.43234615  0.30694976  0.60394500  1
  O  O168  1  0.42244531  0.76687094  0.15709027  1
  O  O169  1  0.45880233  0.63899068  0.63516003  1
  O  O170  1  1.01891821  0.23139997  0.09828744  1
  O  O171  1  1.00551678  0.25667611  0.64730967  1
  O  O172  1  1.04562963  0.73383606  0.12009305  1
  O  O173  1  0.95473070  0.74332584  0.64983115  1
  O  O174  1  -0.03978452  0.27140738  0.35048401  1
  O  O175  1  0.02720688  0.27732597  0.87125662  1
  O  O176  1  -0.01428974  0.72862694  0.35377446  1
  O  O177  1  0.01770797  0.74429627  0.86294285  1
  O  O178  1  0.49259281  0.25495898  0.37979629  1
  O  O179  1  0.68637447  0.15904840  0.87678001  1
  O  O180  1  0.49421367  0.74521181  0.32845071  1
  O  O181  1  0.49466124  0.69206043  0.79482302  1
  O  O182  1  0.20448094  0.15048811  0.47513906  1
  O  O183  1  0.27366097  0.15118000  0.98617726  1
  O  O184  1  0.19781092  0.61787273  0.50967925  1
  O  O185  1  0.26550020  0.62077569  0.98718060  1
  O  O186  1  0.80389408  0.09275110  0.49326762  1
  O  O187  1  0.76530160  0.17525531  1.03955906  1
  O  O188  1  0.72478288  0.63494358  0.47648253  1
  O  O189  1  0.75376511  0.62412829  0.96885454  1
  O  O190  1  0.28782286  0.39572171  -0.03096962  1
  O  O191  1  0.28982584  0.48037839  0.63334167  1
  O  O192  1  0.23363271  0.86995806  -0.00955238  1
  O  O193  1  0.28835937  0.88232404  0.46873400  1
  O  O194  1  0.86242266  0.36424756  0.05144465  1
  O  O195  1  0.74848569  0.39336214  0.52479081  1
  O  O196  1  0.70774500  0.83261776  0.00220517  1
  O  O197  1  0.75692174  0.89235223  0.49496385  1
  O  O198  1  0.05770322  0.45870266  0.26104454  1
  O  O199  1  0.12124474  0.49667641  0.75622193  1
  O  O200  1  0.09302607  0.99365276  0.32130150  1
  O  O201  1  0.14162039  1.01332583  0.83721459  1
  O  O202  1  0.68599533  0.45497418  0.22407098  1
  O  O203  1  0.60478902  0.43932444  0.77079661  1
  O  O204  1  0.65853957  0.93476300  0.23795539  1
  O  O205  1  0.60552879  0.96686317  0.71708617  1
  O  O206  1  0.41745869  0.02966181  0.29654890  1
  O  O207  1  0.40462236  0.00373411  0.77533268  1
  O  O208  1  0.33203453  0.52516976  0.26126403  1
  O  O209  1  0.41942326  0.47908209  0.77809059  1
  O  O210  1  0.92908682  0.00846721  0.23223744  1
  O  O211  1  0.88323906  -0.02597514  0.75735760  1
  O  O212  1  0.86504538  0.48074794  0.27607630  1
  O  O213  1  0.88828157  0.50386895  0.76378870  1
  O  O214  1  0.11994470  0.37390598  0.37075113  1
  O  O215  1  0.11986018  0.37644937  0.85857159  1
  O  O216  1  0.08472099  0.84598300  0.38539521  1
  O  O217  1  0.13298346  0.85466196  0.86070879  1
  O  O218  1  0.62387271  0.33967430  0.44427772  1
  O  O219  1  0.64537858  0.30376315  0.82036071  1
  O  O220  1  0.65630194  0.89020827  0.29813777  1
  O  O221  1  0.68044585  0.87837150  0.84429304  1
  O  O222  1  0.40416329  0.16126154  0.11844992  1
  O  O223  1  0.35737404  0.15168627  0.60038834  1
  O  O224  1  0.32477352  0.64273278  0.15036330  1
  O  O225  1  0.39481626  0.62473142  0.65929015  1
  O  O226  1  0.90735547  0.10517635  0.11655352  1
  O  O227  1  0.85616447  0.21837033  0.62871107  1
  O  O228  1  0.89333527  0.60847998  0.08640152  1
  O  O229  1  0.87610612  0.64190178  0.60073463  1
  O  O230  1  0.28553616  0.26319728  0.09984182  1
  O  O231  1  0.29763248  0.25049850  0.65659985  1
  O  O232  1  0.21119800  0.75792444  0.11083078  1
  O  O233  1  0.22885642  0.75363945  0.58265445  1
  O  O234  1  0.86910930  0.29638539  0.03806147  1
  O  O235  1  0.85150551  0.25384314  0.68911265  1
  O  O236  1  0.74113903  0.71031492  0.09376836  1
  O  O237  1  0.76869214  0.74427821  0.60613107  1
  O  O238  1  0.23999579  0.25737576  0.39122389  1
  O  O239  1  0.24259118  0.26212553  0.87716580  1
  O  O240  1  0.21249940  0.74136398  0.40941347  1
  O  O241  1  0.23519106  0.74156475  0.89481061  1
  O  O242  1  0.77131250  0.20569735  0.37907707  1
  O  O243  1  0.75874686  0.36232826  0.92752409  1
  O  O244  1  0.76383438  0.74671347  0.36957530  1
  O  O245  1  0.74018385  0.73456771  0.88514923  1
  O  O246  1  0.01975574  0.10301728  0.01046564  1
  O  O247  1  0.15680827  0.01284523  0.55611828  1
  O  O248  1  0.00875515  0.68578436  0.06649154  1
  O  O249  1  -0.01795129  0.61439411  0.50336580  1
  O  O250  1  0.52930691  0.09873514  0.01832095  1
  O  O251  1  0.51501640  0.16594823  0.53222598  1
  O  O252  1  0.50676458  0.69225572  0.04401252  1
  O  O253  1  0.51530306  0.65215477  0.45884743  1
  O  O254  1  0.46716673  0.49196464  0.54656266  1
  O  O255  1  0.52825679  0.26395693  0.92761369  1
  O  O256  1  0.47303732  0.81969676  0.51825624  1
  O  O257  1  0.46269327  0.88860033  1.03595071  1
  O  O258  1  0.98340084  0.39644772  0.50178274  1
  O  O259  1  1.00630952  0.38130534  0.98250662  1
  O  O260  1  0.99953450  0.90589034  0.57028038  1
  O  O261  1  0.99156741  0.86484940  1.02209588  1
  O  O262  1  0.48356947  0.53790103  0.34525358  1
  O  O263  1  0.52617161  0.42406128  0.93631094  1
  O  O264  1  0.62160589  0.91646617  0.36067060  1
  O  O265  1  0.47783818  0.99104731  0.89953074  1
  O  O266  1  0.96614299  0.50880266  0.39113059  1
  O  O267  1  0.99862895  0.49253470  0.86729681  1
  O  O268  1  1.14987638  0.97932877  0.49349784  1
  O  O269  1  0.97360798  1.01088162  0.86844580  1
  O  O270  1  -0.05323164  -0.09640159  0.06151722  1
  O  O271  1  0.02279504  0.10304196  0.48812160  1
  O  O272  1  -0.02797464  0.48669128  0.11754483  1
  O  O273  1  -0.02096898  0.52493866  0.62081070  1
  O  O274  1  0.46334085  0.01677275  0.10960041  1
  O  O275  1  0.50239670  -0.02171214  0.59942011  1
  O  O276  1  0.44210911  0.55080089  0.08088220  1
  O  O277  1  0.48938015  0.48645292  0.61557876  1
  O  O278  1  0.22211875  0.37223531  0.25059581  1
  O  O279  1  0.22762941  0.37750990  0.75304775  1
  O  O280  1  0.21269128  0.88932702  0.30349530  1
  O  O281  1  0.24418278  1.00343606  0.70628482  1
  O  O282  1  0.75039980  0.30705342  0.21445970  1
  O  O283  1  0.71845121  0.37009335  0.71987487  1
  O  O284  1  0.81238665  0.90116935  0.18441007  1
  O  O285  1  0.73328075  0.86028666  0.70324334  1
  O  O286  1  0.28681353  0.17459560  0.28914375  1
  O  O287  1  0.25138245  0.15392858  0.78344423  1
  O  O288  1  0.20343906  0.61535737  0.24476998  1
  O  O289  1  0.29832045  0.65024060  0.78751054  1
  O  O290  1  0.78443752  0.07318741  0.20950544  1
  O  O291  1  0.75639218  0.13287613  0.70007436  1
  O  O292  1  0.72631462  0.63887344  0.26459424  1
  O  O293  1  0.69055569  0.66607114  0.75694017  1
  O  O294  1  0.34354928  0.16353182  0.42740130  1
  O  O295  1  0.38904816  0.17458929  0.88811339  1
  O  O296  1  0.35497508  0.64624382  0.33799499  1
  O  O297  1  0.34763511  0.64467989  0.84477152  1
  O  O298  1  0.87627678  0.09451873  0.34342580  1
  O  O299  1  0.85779654  0.09462825  0.82183090  1
  O  O300  1  0.83933782  0.60548712  0.38423500  1
  O  O301  1  0.92909518  0.62173257  0.89319680  1
  O  O302  1  0.11832855  0.40709276  0.12397988  1
  O  O303  1  0.11417253  0.38701600  0.64397589  1
  O  O304  1  0.13803265  0.91844121  0.12740094  1
  O  O305  1  0.10093121  0.85519382  0.63359654  1
  O  O306  1  0.66212229  0.39760520  0.06149434  1
  O  O307  1  0.62234842  0.35574316  0.62833883  1
  O  O308  1  0.77370971  0.86058576  0.14064093  1
  O  O309  1  0.63874058  0.89536685  0.58198381  1
  O  O310  1  0.07417026  0.29278387  0.24629070  1
  O  O311  1  0.12415392  0.26017935  0.76039611  1
  O  O312  1  0.11843588  0.73891132  0.27521914  1
  O  O313  1  0.13244558  0.74092747  0.75806218  1
  O  O314  1  0.62071988  0.27011829  0.29391676  1
  O  O315  1  0.61314630  0.24531497  0.70878951  1
  O  O316  1  0.59772368  0.75729518  0.20323107  1
  O  O317  1  0.59542809  0.79356696  0.69428640  1
  O  O318  1  0.38047100  0.29358481  0.22455361  1
  O  O319  1  0.34154418  0.18603084  0.66277335  1
  O  O320  1  0.29455023  0.74474900  0.24495340  1
  O  O321  1  0.45067146  0.74119901  0.77085348  1
  O  O322  1  0.87400175  0.20415906  0.23739985  1
  O  O323  1  0.96718309  0.19130288  0.77579095  1
  O  O324  1  0.85614113  0.72891869  0.20491218  1
  O  O325  1  0.87131180  0.75809979  0.78598826  1
  O  O326  1  0.35185009  0.51321832  0.43181826  1
  O  O327  1  0.34262667  0.43957106  0.98290062  1
  O  O328  1  0.42714597  0.96781184  0.46376812  1
  O  O329  1  0.38069135  1.01936287  0.98279370  1
  O  O330  1  0.86680980  0.49588561  0.49676355  1
  O  O331  1  0.85264750  0.48675666  0.93655941  1
  O  O332  1  0.99802860  1.03913348  0.47240942  1
  O  O333  1  0.87931052  1.02265458  0.95599521  1
  O  O334  1  0.14336500  0.00348991  -0.00711340  1
  O  O335  1  0.06078476  -0.13745000  0.56767492  1
  O  O336  1  0.14330721  0.49019687  -0.00798819  1
  O  O337  1  0.08294615  0.51574972  0.49922443  1
  O  O338  1  0.59097645  -0.03680676  -0.00757076  1
  O  O339  1  0.62312564  0.03053035  0.50467103  1
  O  O340  1  0.69501187  0.46023409  0.04635858  1
  O  O341  1  0.61381163  0.53147599  0.49723930  1
  O  O342  1  0.38288891  0.36218178  0.17721087  1
  O  O343  1  0.33296786  0.41377919  0.63164816  1
  O  O344  1  0.32351416  0.87587004  0.15807436  1
  O  O345  1  0.36499919  0.91178143  0.59752696  1
  O  O346  1  0.74116920  0.31160072  0.14491223  1
  O  O347  1  0.87762657  0.39257202  0.61847662  1
  O  O348  1  0.91164698  0.76833303  0.18973206  1
  O  O349  1  0.85812143  0.86028107  0.61567714  1
  O  O350  1  0.15763675  0.14297742  0.33674887  1
  O  O351  1  0.12234200  0.16251391  0.89290540  1
  O  O352  1  0.09321992  0.62445691  0.38466099  1
  O  O353  1  0.13908858  0.63311215  0.87158501  1
  O  O354  1  0.61797797  0.16410429  0.42101607  1
  O  O355  1  0.62431989  0.12055995  0.88021802  1
  O  O356  1  0.63203584  0.64611948  0.37679329  1
  O  O357  1  0.63327644  0.58077585  0.87291916  1
