# generated using pymatgen
data_V51Zn51O256
_symmetry_space_group_name_H-M   'P 1'
_cell_length_a   17.55575379
_cell_length_b   17.48994621
_cell_length_c   17.39598314
_cell_angle_alpha   88.49324331
_cell_angle_beta   90.24610072
_cell_angle_gamma   91.07498367
_symmetry_Int_Tables_number   1
_chemical_formula_structural   V51Zn51O256
_chemical_formula_sum   'V51 Zn51 O256'
_cell_volume   5338.59722938
_cell_formula_units_Z   1
loop_
 _symmetry_equiv_pos_site_id
 _symmetry_equiv_pos_as_xyz
  1  'x, y, z'
loop_
 _atom_site_type_symbol
 _atom_site_label
 _atom_site_symmetry_multiplicity
 _atom_site_fract_x
 _atom_site_fract_y
 _atom_site_fract_z
 _atom_site_occupancy
  V  V0  1  0.53001560  0.13755755  0.64566913  1
  V  V1  1  0.87524153  0.14594837  0.76860915  1
  V  V2  1  0.83880917  0.92583091  0.02638002  1
  V  V3  1  0.49427978  -0.01618111  -0.04030966  1
  V  V4  1  0.09781660  0.65220392  0.54104270  1
  V  V5  1  0.09441234  0.74535605  0.36979925  1
  V  V6  1  0.09879979  0.49789347  0.16800313  1
  V  V7  1  0.59262333  0.38545719  0.75825085  1
  V  V8  1  0.85029555  -0.00214357  0.37311299  1
  V  V9  1  0.38136982  0.13403495  0.76578906  1
  V  V10  1  0.15773524  0.22258124  0.37416913  1
  V  V11  1  -0.03549470  -0.03197960  0.50501500  1
  V  V12  1  0.49101780  0.71853359  0.24644832  1
  V  V13  1  0.36121877  0.86563733  -0.02943154  1
  V  V14  1  0.80883782  0.37111119  0.13444110  1
  V  V15  1  0.01433473  0.00112676  -0.00876415  1
  V  V16  1  0.16123728  0.01061719  0.56879053  1
  V  V17  1  0.83203639  0.75076715  0.13055629  1
  V  V18  1  0.25967532  0.23717368  -0.01471164  1
  V  V19  1  -0.00031295  0.36309402  0.39609431  1
  V  V20  1  0.75202285  0.63232037  0.86779103  1
  V  V21  1  0.37427724  0.30137801  0.09465580  1
  V  V22  1  0.77114648  0.49530301  0.76863603  1
  V  V23  1  0.22492233  0.66934377  0.87837488  1
  V  V24  1  0.86371933  0.60334129  0.25519062  1
  V  V25  1  0.11192718  0.89519893  0.24510412  1
  V  V26  1  0.46829106  0.13713953  0.15299721  1
  V  V27  1  -0.00192905  0.74550691  0.21721249  1
  V  V28  1  0.36055788  0.21417320  0.56033828  1
  V  V29  1  0.07459767  0.22473140  0.73982145  1
  V  V30  1  0.11793492  0.35990496  0.26331365  1
  V  V31  1  0.56460911  -0.01901679  0.14951344  1
  V  V32  1  0.92771561  0.22621767  0.13968927  1
  V  V33  1  -0.00031738  0.12672750  0.60309038  1
  V  V34  1  0.74608898  0.60305543  0.37986449  1
  V  V35  1  0.63776949  0.18068002  0.32411067  1
  V  V36  1  0.85873160  0.00622905  0.86978763  1
  V  V37  1  0.58878265  0.49419335  0.62000359  1
  V  V38  1  0.59488323  0.53625478  0.10729910  1
  V  V39  1  0.72387921  0.24429306  0.45754620  1
  V  V40  1  0.72470698  0.93230116  0.15037332  1
  V  V41  1  0.22450217  0.63103070  0.37328508  1
  V  V42  1  0.26376193  0.37662624  0.59067719  1
  V  V43  1  0.22453359  0.01737817  0.78996926  1
  V  V44  1  0.50291191  -0.00246420  0.50446862  1
  V  V45  1  0.86663073  0.11688767  0.25427763  1
  V  V46  1  0.78863115  0.72157652  0.50592116  1
  V  V47  1  0.75844725  0.38141531  0.64075496  1
  V  V48  1  0.02274053  0.35630492  0.88493539  1
  V  V49  1  0.23871971  0.86081639  0.13073804  1
  V  V50  1  0.60345232  0.61572273  0.50005297  1
  Zn  Zn51  1  0.49675249  0.76194338  0.97200301  1
  Zn  Zn52  1  0.36028131  -0.01417328  0.10397183  1
  Zn  Zn53  1  0.09872106  0.30732568  0.07747603  1
  Zn  Zn54  1  0.27143340  0.83955243  0.79221148  1
  Zn  Zn55  1  0.90096715  0.20066064  0.43406377  1
  Zn  Zn56  1  0.25994295  0.27944822  0.77841469  1
  Zn  Zn57  1  0.57085552  0.54534285  0.32038687  1
  Zn  Zn58  1  0.14521554  0.48102427  0.90991603  1
  Zn  Zn59  1  0.62782382  0.86976284  0.02102048  1
  Zn  Zn60  1  0.40188950  0.33136124  0.69827730  1
  Zn  Zn61  1  0.62651535  0.51300500  0.89448455  1
  Zn  Zn62  1  0.14726598  0.71980470  0.70412637  1
  Zn  Zn63  1  0.71448280  0.62386809  0.66209509  1
  Zn  Zn64  1  0.07356704  0.82915561  0.55855056  1
  Zn  Zn65  1  0.61027544  0.29988353  0.57564705  1
  Zn  Zn66  1  0.21552674  0.41280556  0.40119268  1
  Zn  Zn67  1  0.69556364  0.43530498  0.46149466  1
  Zn  Zn68  1  0.42035690  0.62992112  0.42296413  1
  Zn  Zn69  1  0.80623038  0.56140235  0.07656105  1
  Zn  Zn70  1  0.85125600  0.78851340  0.92248789  1
  Zn  Zn71  1  0.39052074  0.50301247  0.09028903  1
  Zn  Zn72  1  0.76667382  0.82960417  0.37526680  1
  Zn  Zn73  1  0.89245912  0.13239699  0.98804840  1
  Zn  Zn74  1  0.51819412  0.05643925  0.31711945  1
  Zn  Zn75  1  0.10928911  1.03040426  0.37615834  1
  Zn  Zn76  1  0.82280510  0.29753453  0.30184010  1
  Zn  Zn77  1  0.89579645  0.90175835  0.23902784  1
  Zn  Zn78  1  0.80899229  0.53034034  0.55759866  1
  Zn  Zn79  1  0.51119392  0.19383009  0.46936703  1
  Zn  Zn80  1  0.36234852  0.02712691  0.62609685  1
  Zn  Zn81  1  0.20516606  0.53861571  0.53012969  1
  Zn  Zn82  1  0.02350749  0.02258662  0.79204573  1
  Zn  Zn83  1  0.18157764  0.67077749  0.18922449  1
  Zn  Zn84  1  0.68728849  0.68453467  0.20491139  1
  Zn  Zn85  1  0.07757961  0.53300804  0.37469105  1
  Zn  Zn86  1  0.64001273  0.82124713  0.47467732  1
  Zn  Zn87  1  0.49823217  1.00997142  0.76420054  1
  Zn  Zn88  1  0.38316695  0.12803588  0.98116619  1
  Zn  Zn89  1  0.94115709  0.67282288  0.42090360  1
  Zn  Zn90  1  0.27917106  0.30529359  0.26967721  1
  Zn  Zn91  1  0.69606676  0.22038958  0.71953179  1
  Zn  Zn92  1  0.41174423  0.89535464  0.23809097  1
  Zn  Zn93  1  0.26888707  0.82560821  0.32512550  1
  Zn  Zn94  1  0.36756016  0.64256868  -0.01445858  1
  Zn  Zn95  1  0.88750992  0.35358588  0.77372180  1
  Zn  Zn96  1  0.09453051  0.28636494  0.54935685  1
  Zn  Zn97  1  0.02684412  0.85872379  0.09809737  1
  Zn  Zn98  1  0.21238459  0.14147464  0.65217681  1
  Zn  Zn99  1  0.94710081  0.42560121  0.20188036  1
  Zn  Zn100  1  0.66295875  0.96622651  0.32441651  1
  Zn  Zn101  1  0.21824186  1.02702970  0.99523594  1
  O  O102  1  0.18608782  0.08413266  0.16424271  1
  O  O103  1  0.10997734  0.09568893  0.60721477  1
  O  O104  1  0.14585282  0.57997913  0.13824193  1
  O  O105  1  0.08885157  0.72896414  0.61394679  1
  O  O106  1  0.55060873  0.08226512  0.12696965  1
  O  O107  1  0.62211994  0.15520420  0.66922171  1
  O  O108  1  0.62558678  0.63728465  0.11931635  1
  O  O109  1  0.61512729  0.60410326  0.60911493  1
  O  O110  1  0.47954773  0.35820423  0.25171635  1
  O  O111  1  0.28020730  0.46109484  0.81389627  1
  O  O112  1  0.39634230  0.73905980  0.50539898  1
  O  O113  1  0.33811957  0.86621631  0.87659538  1
  O  O114  1  0.91178933  0.30888216  0.37773667  1
  O  O115  1  0.92581586  0.35524271  0.87653947  1
  O  O116  1  0.85495817  0.89544660  0.35088705  1
  O  O117  1  0.85859918  0.90020509  0.92265185  1
  O  O118  1  0.31569572  -0.01880700  0.41990716  1
  O  O119  1  0.23657152  0.00921192  0.88668221  1
  O  O120  1  0.18555448  0.52108589  0.41735165  1
  O  O121  1  0.17791582  0.58315903  0.90303042  1
  O  O122  1  0.75758655  0.01067695  0.37242182  1
  O  O123  1  0.77226000  -0.00357854  0.83895586  1
  O  O124  1  0.74471569  0.50353403  0.38207425  1
  O  O125  1  0.73539468  0.50241720  0.86387511  1
  O  O126  1  0.24198825  0.47628129  0.04517043  1
  O  O127  1  0.26261175  0.47581718  0.59732561  1
  O  O128  1  0.24818886  0.97897180  0.09314981  1
  O  O129  1  0.25268058  1.02780597  0.60501136  1
  O  O130  1  0.69653884  0.53128147  0.09292074  1
  O  O131  1  0.75752781  0.51395044  0.65816458  1
  O  O132  1  0.69231240  1.02077557  0.14184932  1
  O  O133  1  0.73010340  0.87396502  0.68069292  1
  O  O134  1  0.01386954  0.36557745  0.27361620  1
  O  O135  1  0.05835967  0.30207625  0.80154719  1
  O  O136  1  0.00697843  0.86121993  0.22357204  1
  O  O137  1  0.00211438  0.88846124  0.78383746  1
  O  O138  1  0.54051923  0.33156407  0.23413557  1
  O  O139  1  0.49843818  0.36659687  0.73420430  1
  O  O140  1  0.49613290  0.81626337  0.26441123  1
  O  O141  1  0.52516552  0.87435079  0.72838199  1
  O  O142  1  0.45738886  0.11949489  0.25055993  1
  O  O143  1  0.48533327  0.15717230  0.73760369  1
  O  O144  1  0.49896711  0.61573473  0.25676839  1
  O  O145  1  0.47391329  0.70388626  0.79168044  1
  O  O146  1  1.01666384  0.15368561  0.29034017  1
  O  O147  1  1.03836991  0.14256647  0.77782787  1
  O  O148  1  0.95345290  0.65185894  0.23497606  1
  O  O149  1  0.98902812  0.69735717  0.87406837  1
  O  O150  1  0.36998513  0.23698163  0.00736415  1
  O  O151  1  0.39692005  0.20494913  0.47019697  1
  O  O152  1  0.38745739  0.76056945  -0.00136613  1
  O  O153  1  0.49671512  0.71802316  0.63499949  1
  O  O154  1  0.88168970  0.21770015  0.05172158  1
  O  O155  1  0.81582541  0.24152580  0.48989635  1
  O  O156  1  0.85197364  0.79731846  0.04102504  1
  O  O157  1  0.88475620  0.72895923  0.49586803  1
  O  O158  1  0.13095687  0.22129964  0.46818776  1
  O  O159  1  0.17274586  0.23993256  1.03310040  1
  O  O160  1  0.09226562  0.76184079  0.46668185  1
  O  O161  1  0.09297095  0.80810080  0.97866056  1
  O  O162  1  0.66631382  0.32717387  0.47618489  1
  O  O163  1  0.58379846  0.24706167  0.95668598  1
  O  O164  1  0.62444898  0.71224657  0.49898547  1
  O  O165  1  0.60083426  0.77449654  0.98307903  1
  O  O166  1  0.46539050  0.23174762  0.12247698  1
  O  O167  1  0.52555100  0.23034890  0.57788049  1
  O  O168  1  0.49586720  0.72776808  0.14724971  1
  O  O169  1  0.45797211  0.65938772  0.63905329  1
  O  O170  1  1.02308165  0.24070610  0.13021676  1
  O  O171  1  1.04349060  0.22740872  0.64061524  1
  O  O172  1  0.99796420  0.74905965  0.11873449  1
  O  O173  1  0.99175978  0.85865152  0.71583693  1
  O  O174  1  0.02529666  0.19684637  0.34571228  1
  O  O175  1  0.07772992  0.18570760  0.93302152  1
  O  O176  1  -0.00440721  0.74454707  0.34521570  1
  O  O177  1  -0.04848107  0.73156566  0.93161768  1
  O  O178  1  0.56090091  0.21840235  0.37378815  1
  O  O179  1  0.40938527  0.39097035  0.89248488  1
  O  O180  1  0.47323734  0.70705970  0.34982121  1
  O  O181  1  0.47623337  0.76115258  0.83148667  1
  O  O182  1  0.32626767  0.05015297  0.42120686  1
  O  O183  1  0.26860265  0.13281325  0.98872443  1
  O  O184  1  0.18875534  0.64904560  0.49485906  1
  O  O185  1  0.25185101  0.67982991  0.98212587  1
  O  O186  1  0.67519443  0.16823061  0.48822695  1
  O  O187  1  0.74788819  0.23654175  0.91735804  1
  O  O188  1  0.76887148  0.60710347  0.48694455  1
  O  O189  1  0.79969751  0.61328974  0.97409745  1
  O  O190  1  0.25078067  0.43824324  -0.12347030  1
  O  O191  1  0.26789606  0.37280326  0.48933077  1
  O  O192  1  0.27399295  0.86026833  0.02379780  1
  O  O193  1  0.35518552  0.79206718  0.48288224  1
  O  O194  1  0.83259584  0.46107922  0.09355938  1
  O  O195  1  0.77394464  0.42192667  0.54592405  1
  O  O196  1  0.73918932  0.90770921  0.03093897  1
  O  O197  1  0.75325708  0.81617596  0.49809360  1
  O  O198  1  0.09969723  0.49344590  0.26699230  1
  O  O199  1  0.06907386  0.46204939  0.69837642  1
  O  O200  1  0.10436948  0.98662249  0.27137344  1
  O  O201  1  0.12898809  1.01666098  0.76729096  1
  O  O202  1  0.60204756  0.52569596  0.21164864  1
  O  O203  1  0.60238334  0.49590443  0.72265384  1
  O  O204  1  0.57415860  0.97769093  0.24961005  1
  O  O205  1  0.67174986  0.98389899  0.69514130  1
  O  O206  1  0.36424762  -0.12631234  0.33135856  1
  O  O207  1  0.39367873  0.03215915  0.73540529  1
  O  O208  1  0.37382425  0.49499040  0.19455443  1
  O  O209  1  0.42115945  0.54655062  0.74499124  1
  O  O210  1  0.89439305  0.01154809  0.27430847  1
  O  O211  1  0.90678365  0.02926008  0.77760824  1
  O  O212  1  0.87769329  0.51128392  0.23918242  1
  O  O213  1  0.86265771  0.47243117  0.77919750  1
  O  O214  1  0.10680564  0.34311597  0.37630669  1
  O  O215  1  0.13213844  0.44423019  0.72159486  1
  O  O216  1  0.11318795  0.84589983  0.33691668  1
  O  O217  1  0.09738837  0.84315444  0.91736255  1
  O  O218  1  0.57810320  0.43511387  0.36298073  1
  O  O219  1  0.58853550  0.42141438  0.85152022  1
  O  O220  1  0.66111446  0.86569533  0.37551555  1
  O  O221  1  0.62900687  0.77654418  0.79569688  1
  O  O222  1  0.38978489  0.09462785  0.10851839  1
  O  O223  1  0.40188282  0.14092131  0.61963268  1
  O  O224  1  0.34629497  0.60841050  0.09000380  1
  O  O225  1  0.31229678  0.66329309  0.65143687  1
  O  O226  1  0.92182557  0.12182204  0.16447192  1
  O  O227  1  0.92594474  0.13214175  0.66887764  1
  O  O228  1  0.83642018  0.64720019  0.14033388  1
  O  O229  1  0.92227735  0.60526091  0.65072946  1
  O  O230  1  0.28271426  0.32248120  0.05160625  1
  O  O231  1  0.26520110  0.19137126  0.56443019  1
  O  O232  1  0.22482616  0.76421816  0.13987955  1
  O  O233  1  0.25871801  0.70729374  0.63737069  1
  O  O234  1  0.74688953  0.32421079  0.08146771  1
  O  O235  1  0.72240823  0.28817908  0.62795120  1
  O  O236  1  0.73817775  0.76755261  0.14966913  1
  O  O237  1  0.76885566  0.69891947  0.60170601  1
  O  O238  1  0.25081113  0.25490292  0.36566765  1
  O  O239  1  0.24901539  0.27030139  0.89125953  1
  O  O240  1  0.21477930  0.73844086  0.36437423  1
  O  O241  1  0.28729886  0.72965322  0.81844590  1
  O  O242  1  0.73011908  0.23570290  0.35154048  1
  O  O243  1  0.74435568  0.30593190  0.92202240  1
  O  O244  1  0.75868449  0.71248782  0.39491560  1
  O  O245  1  0.77770002  0.72771234  0.86987412  1
  O  O246  1  -0.00743473  0.09168684  0.01590825  1
  O  O247  1  -0.02855808  0.16261243  0.51738670  1
  O  O248  1  0.02783248  0.62437420  0.01857875  1
  O  O249  1  0.01810087  0.62334208  0.48824899  1
  O  O250  1  0.48122612  0.07937186  -0.02651067  1
  O  O251  1  0.52376711  0.09307778  0.52704905  1
  O  O252  1  0.47641029  0.65643674  -0.03741415  1
  O  O253  1  0.50778820  0.61233291  0.48521881  1
  O  O254  1  0.52383492  0.39523368  0.39285610  1
  O  O255  1  0.46415045  0.35961885  0.92189150  1
  O  O256  1  0.56077870  0.89351906  0.51693981  1
  O  O257  1  0.47062918  0.86885831  0.96754136  1
  O  O258  1  1.01373201  0.33449511  0.48964467  1
  O  O259  1  1.05216106  0.33438779  0.97598778  1
  O  O260  1  0.97761391  0.87461914  0.52875338  1
  O  O261  1  0.95942870  0.92681988  1.04490270  1
  O  O262  1  0.46085955  0.51689197  0.36565618  1
  O  O263  1  0.45770960  0.53408655  0.80389980  1
  O  O264  1  0.48645097  0.99794891  0.40680642  1
  O  O265  1  0.52155877  0.97871563  0.86395932  1
  O  O266  1  0.99420141  0.46081819  0.39710747  1
  O  O267  1  1.05672644  0.44825077  0.86437216  1
  O  O268  1  1.01372715  0.99728241  0.42459334  1
  O  O269  1  0.98546405  0.99235279  0.89560054  1
  O  O270  1  0.12283209  0.10278448  0.14274538  1
  O  O271  1  -0.01411846  0.02311712  0.58776818  1
  O  O272  1  0.00642541  0.50079816  0.13907066  1
  O  O273  1  -0.04920783  0.54128037  0.63556060  1
  O  O274  1  0.46852197  -0.05067477  0.15409152  1
  O  O275  1  0.52966368  0.03657870  0.66131138  1
  O  O276  1  0.49885104  0.55984089  0.10692536  1
  O  O277  1  0.49703095  0.48738337  0.60691493  1
  O  O278  1  0.21632968  0.39549853  0.28937590  1
  O  O279  1  0.29309416  0.36201632  0.70371849  1
  O  O280  1  0.21693222  0.88005002  0.24052298  1
  O  O281  1  0.26272315  0.93795149  0.74812832  1
  O  O282  1  0.78138702  0.37191947  0.23142101  1
  O  O283  1  0.72671738  0.40268148  0.74530038  1
  O  O284  1  0.73282291  0.91229797  0.24582389  1
  O  O285  1  0.69842164  0.92197217  0.72463803  1
  O  O286  1  0.30064225  0.02173643  0.25883994  1
  O  O287  1  0.27060150  0.10481215  0.74826128  1
  O  O288  1  0.23408703  0.61649788  0.27802453  1
  O  O289  1  0.17549382  0.64689872  0.78852573  1
  O  O290  1  0.77598040  0.11135663  0.23634722  1
  O  O291  1  0.78214166  0.15498257  0.74601386  1
  O  O292  1  0.75476471  0.62162274  0.26822784  1
  O  O293  1  0.76166950  0.60940404  0.76581405  1
  O  O294  1  0.30729489  0.08686577  0.28272776  1
  O  O295  1  0.38570926  0.12596788  0.86076989  1
  O  O296  1  0.31623130  0.61889086  0.41033674  1
  O  O297  1  0.32317956  0.62419307  0.88037379  1
  O  O298  1  0.87776256  0.11368807  0.36501417  1
  O  O299  1  0.86777379  0.11709146  0.87738280  1
  O  O300  1  0.86842325  0.61092874  0.35717065  1
  O  O301  1  0.84522460  0.58945348  0.91435823  1
  O  O302  1  0.12294291  0.39135922  0.15684721  1
  O  O303  1  0.17197133  0.34182609  0.60443890  1
  O  O304  1  0.12779515  0.88642961  0.13722119  1
  O  O305  1  0.12827343  0.92018351  0.59327409  1
  O  O306  1  0.58309632  0.43821941  0.11432323  1
  O  O307  1  0.62618005  0.39458893  0.63123724  1
  O  O308  1  0.62422236  0.89138768  0.13507491  1
  O  O309  1  0.53963690  0.85749780  0.66184469  1
  O  O310  1  0.13851656  0.26463744  0.25816554  1
  O  O311  1  0.17283088  0.21900971  0.73100738  1
  O  O312  1  0.09509202  0.73230015  0.23527355  1
  O  O313  1  0.17243683  0.80451544  0.76333922  1
  O  O314  1  0.61962241  0.19989675  0.23382085  1
  O  O315  1  0.63162757  0.29439129  0.76928114  1
  O  O316  1  0.59376878  0.71858425  0.25402312  1
  O  O317  1  0.61963646  0.72974045  0.74520180  1
  O  O318  1  0.34308933  0.28706137  0.18950446  1
  O  O319  1  0.35714997  0.23193347  0.74615115  1
  O  O320  1  0.39307397  0.71130276  0.23216176  1
  O  O321  1  0.37267176  0.81125989  0.71080360  1
  O  O322  1  0.88224857  0.22435545  0.24322295  1
  O  O323  1  0.90581628  0.23721849  0.77696439  1
  O  O324  1  0.88188735  0.78596204  0.21144550  1
  O  O325  1  0.98793717  0.72734113  0.80627111  1
  O  O326  1  0.44003928  0.44903435  0.38772877  1
  O  O327  1  0.39095074  0.52959222  0.98402658  1
  O  O328  1  0.42039881  0.97114195  0.55267386  1
  O  O329  1  0.38704341  0.96717663  0.99234951  1
  O  O330  1  0.92074354  0.50261236  0.57607450  1
  O  O331  1  1.01621719  0.57144802  0.97449714  1
  O  O332  1  0.86921341  0.98722227  0.47705636  1
  O  O333  1  0.84482301  1.02144476  0.98979079  1
  O  O334  1  0.10962427  -0.00829930  0.00044353  1
  O  O335  1  0.16690121  0.01422109  0.47143122  1
  O  O336  1  0.17298644  0.47003089  0.02427758  1
  O  O337  1  0.11487582  0.57539403  0.60075154  1
  O  O338  1  0.57278964  -0.03113525  0.02208052  1
  O  O339  1  0.59930061  -0.03973417  0.53812817  1
  O  O340  1  0.58778149  0.53675351  0.00552576  1
  O  O341  1  0.62658273  0.50686751  0.51275948  1
  O  O342  1  0.41407842  0.39092398  0.08243975  1
  O  O343  1  0.36449454  0.31359265  0.58934812  1
  O  O344  1  0.33626419  0.87735695  0.15799978  1
  O  O345  1  0.36818774  0.82200386  0.64022623  1
  O  O346  1  0.90623483  0.33490545  0.14283950  1
  O  O347  1  0.84915066  0.36307457  0.67078099  1
  O  O348  1  0.83556885  0.92833657  0.13302663  1
  O  O349  1  0.92890530  0.82373214  0.70222030  1
  O  O350  1  0.15760200  0.12851272  0.35014622  1
  O  O351  1  0.12321586  0.13822489  0.91334835  1
  O  O352  1  0.10819223  0.64214217  0.36143748  1
  O  O353  1  0.16653022  0.73947271  0.90554599  1
  O  O354  1  0.62711708  0.08046270  0.34002323  1
  O  O355  1  0.62355815  0.19724904  0.98512883  1
  O  O356  1  0.63824154  0.60473004  0.38761473  1
  O  O357  1  0.65631261  0.62334985  0.88802675  1
