# generated using pymatgen
data_V51Zn51O256
_symmetry_space_group_name_H-M   'P 1'
_cell_length_a   17.48930348
_cell_length_b   17.19892768
_cell_length_c   17.39155436
_cell_angle_alpha   90.77695994
_cell_angle_beta   90.42110566
_cell_angle_gamma   88.65465462
_symmetry_Int_Tables_number   1
_chemical_formula_structural   V51Zn51O256
_chemical_formula_sum   'V51 Zn51 O256'
_cell_volume   5229.27972086
_cell_formula_units_Z   1
loop_
 _symmetry_equiv_pos_site_id
 _symmetry_equiv_pos_as_xyz
  1  'x, y, z'
loop_
 _atom_site_type_symbol
 _atom_site_label
 _atom_site_symmetry_multiplicity
 _atom_site_fract_x
 _atom_site_fract_y
 _atom_site_fract_z
 _atom_site_occupancy
  V  V0  1  0.14625520  0.53997029  0.62077620  1
  V  V1  1  0.06214043  0.78291742  0.33376054  1
  V  V2  1  0.11639741  0.66768501  -0.00778068  1
  V  V3  1  0.46761150  0.12244687  0.10205266  1
  V  V4  1  0.03494010  0.40060241  0.83322924  1
  V  V5  1  0.69235531  0.11759298  0.51483977  1
  V  V6  1  0.58072980  0.45440676  0.66503728  1
  V  V7  1  0.02906522  0.75767129  0.77933256  1
  V  V8  1  0.90128132  0.43163579  -0.05525331  1
  V  V9  1  0.53733773  0.56137206  0.11514537  1
  V  V10  1  0.50349915  -0.01659136  0.51888653  1
  V  V11  1  0.25426415  0.45728758  0.76517188  1
  V  V12  1  0.92626326  0.75738319  0.59937097  1
  V  V13  1  0.37099133  0.09435051  0.27027966  1
  V  V14  1  0.47096934  0.23014304  0.24956564  1
  V  V15  1  0.53730461  0.88642371  0.33264129  1
  V  V16  1  0.86300487  0.42021002  0.52130097  1
  V  V17  1  0.49670465  0.20466125  0.75087978  1
  V  V18  1  0.13472971  0.88566392  0.71960371  1
  V  V19  1  0.49752256  0.36193099  0.40771739  1
  V  V20  1  0.11836552  0.26891943  0.40667490  1
  V  V21  1  0.85443424  0.80813750  0.08362037  1
  V  V22  1  0.26778403  0.86609903  0.12755977  1
  V  V23  1  0.76608770  0.26931641  0.57050364  1
  V  V24  1  0.26475019  0.21037777  0.49575212  1
  V  V25  1  0.67769935  0.75914237  0.14437228  1
  V  V26  1  0.45902479  0.12249654  0.60383106  1
  V  V27  1  0.93809564  0.26319823  0.64166726  1
  V  V28  1  0.37066102  0.90809519  -0.00275294  1
  V  V29  1  0.26404181  0.81529233  0.53938037  1
  V  V30  1  0.04782386  0.50141014  0.00055789  1
  V  V31  1  0.40225054  0.70659143  0.12100072  1
  V  V32  1  0.28765239  0.34590987  0.61404337  1
  V  V33  1  0.09925650  0.13759654  0.07513684  1
  V  V34  1  0.37315158  0.67115086  0.77403638  1
  V  V35  1  0.75307715  0.65995804  0.84616182  1
  V  V36  1  0.85654681  0.22735732  0.16031848  1
  V  V37  1  0.69538895  0.07826781  0.95210393  1
  V  V38  1  0.54187902  0.46325311  -0.03432496  1
  V  V39  1  0.48399848  0.91794646  0.87583055  1
  V  V40  1  0.14140149  0.22551032  0.82346412  1
  V  V41  1  0.25686282  0.48547498  0.28335435  1
  V  V42  1  0.31976115  0.38488560  0.02493789  1
  V  V43  1  -0.01197440  0.60891757  0.14305110  1
  V  V44  1  0.64176958  0.23528370  0.35991198  1
  V  V45  1  0.24989037  -0.02314140  0.26154815  1
  V  V46  1  0.78005865  0.75064902  0.45824830  1
  V  V47  1  0.68109560  0.32314276  0.75716475  1
  V  V48  1  0.09442320  0.38646694  0.26166397  1
  V  V49  1  0.53602657  0.70144349  0.25109715  1
  V  V50  1  0.12757027  0.02410150  0.60730859  1
  Zn  Zn51  1  0.16247806  0.15980225  0.26701791  1
  Zn  Zn52  1  0.31120735  0.30680082  0.32491674  1
  Zn  Zn53  1  0.66703787  0.92771217  0.46592867  1
  Zn  Zn54  1  0.61079003  0.81977055  0.60340257  1
  Zn  Zn55  1  0.41513808  0.20566771  0.41532419  1
  Zn  Zn56  1  0.29819547  0.02561326  0.54842527  1
  Zn  Zn57  1  0.38392740  0.46679945  0.15117904  1
  Zn  Zn58  1  0.42545738  0.08155993  0.95466289  1
  Zn  Zn59  1  0.77821505  0.77525369  0.68709299  1
  Zn  Zn60  1  0.27418017  0.05392413  0.06693620  1
  Zn  Zn61  1  0.52884680  0.79476483  0.01302210  1
  Zn  Zn62  1  0.53721078  0.09430301  0.39172059  1
  Zn  Zn63  1  0.17180085  0.85746610  0.96275647  1
  Zn  Zn64  1  0.45460115  0.64264177  0.94788161  1
  Zn  Zn65  1  0.44315340  0.51133915  0.80210873  1
  Zn  Zn66  1  0.72570732  0.44040581  0.88247753  1
  Zn  Zn67  1  0.09294699  0.58938256  0.28975745  1
  Zn  Zn68  1  0.13541449  0.04566080  0.91879053  1
  Zn  Zn69  1  0.17691006  0.93860121  0.42878360  1
  Zn  Zn70  1  0.32504795  0.86381193  0.79172233  1
  Zn  Zn71  1  0.87246057  0.09383047  0.60368785  1
  Zn  Zn72  1  0.11822077  0.57551374  0.82065629  1
  Zn  Zn73  1  0.86684520  0.79223451  0.28830477  1
  Zn  Zn74  1  0.32536615  0.28789301  0.79694730  1
  Zn  Zn75  1  0.57545152  0.28564696  0.58060111  1
  Zn  Zn76  1  0.12558790  0.22763781  0.61365599  1
  Zn  Zn77  1  -0.01217829  0.80499717  -0.02818763  1
  Zn  Zn78  1  0.01459851  0.41418989  0.61284211  1
  Zn  Zn79  1  0.99835634  0.84801971  0.16802490  1
  Zn  Zn80  1  0.46366245  0.51788834  0.29394306  1
  Zn  Zn81  1  0.85486721  0.40723115  0.73302353  1
  Zn  Zn82  1  0.20783556  0.43989051  0.46214863  1
  Zn  Zn83  1  0.48701948  0.31929063  0.09416184  1
  Zn  Zn84  1  0.95252223  0.92087217  0.67850107  1
  Zn  Zn85  1  0.46711972  1.00563016  0.72556361  1
  Zn  Zn86  1  0.61737702  0.81120098  0.80040444  1
  Zn  Zn87  1  0.25894203  0.57572874  0.08938609  1
  Zn  Zn88  1  0.67079353  0.65750894  0.65245201  1
  Zn  Zn89  1  0.81823200  0.31914697  0.34427203  1
  Zn  Zn90  1  0.01906661  0.31895721  0.08409685  1
  Zn  Zn91  1  0.71116746  0.26178152  0.19664198  1
  Zn  Zn92  1  0.09200464  0.84681348  0.51926502  1
  Zn  Zn93  1  0.46376656  0.96556844  0.15908585  1
  Zn  Zn94  1  0.90656432  0.63717360  0.99748186  1
  Zn  Zn95  1  0.98010980  0.38340127  0.40574173  1
  Zn  Zn96  1  0.35078117  0.89579404  0.43017689  1
  Zn  Zn97  1  0.14169830  0.72488062  0.16191156  1
  Zn  Zn98  1  0.21098947  0.71480979  0.69081313  1
  Zn  Zn99  1  0.38567710  0.83452887  0.26857422  1
  Zn  Zn100  1  0.85122228  0.58504683  0.62100484  1
  Zn  Zn101  1  0.97066543  0.06717950  0.15318034  1
  O  O102  1  0.11328784  0.13165897  0.17347352  1
  O  O103  1  0.09559468  0.11694518  0.59545980  1
  O  O104  1  0.04666105  0.68435212  0.11206117  1
  O  O105  1  0.15403242  0.63869747  0.63437255  1
  O  O106  1  0.71652413  0.10255765  0.05177054  1
  O  O107  1  0.63824756  0.09613445  0.58672609  1
  O  O108  1  0.62893890  0.55239812  0.12534149  1
  O  O109  1  0.64355317  0.54480886  0.64040924  1
  O  O110  1  0.41010220  0.31831660  0.38278995  1
  O  O111  1  0.34192726  0.36369000  0.91703186  1
  O  O112  1  0.43457290  0.87716869  0.35866607  1
  O  O113  1  0.37290803  0.87300278  0.90015223  1
  O  O114  1  0.86318545  0.38603205  0.41495266  1
  O  O115  1  0.92903278  0.41243341  0.84584108  1
  O  O116  1  0.86260759  1.04352180  0.36163803  1
  O  O117  1  0.81232190  0.96355626  0.84073199  1
  O  O118  1  0.26782017  -0.04493184  0.36207103  1
  O  O119  1  0.29375006  0.17954654  0.96014537  1
  O  O120  1  0.26205854  0.50189658  0.37796555  1
  O  O121  1  0.23363964  0.44669607  0.85710660  1
  O  O122  1  0.83645679  -0.02038632  0.34534771  1
  O  O123  1  0.68588561  0.00310474  0.88318101  1
  O  O124  1  0.73716531  0.51747334  0.36695261  1
  O  O125  1  0.73120614  0.56328447  0.87284998  1
  O  O126  1  0.23645779  0.57889656  0.20738076  1
  O  O127  1  0.25452770  0.46134135  0.63733883  1
  O  O128  1  0.25116778  0.97070152  0.14040358  1
  O  O129  1  0.22212861  1.02686649  0.62880769  1
  O  O130  1  0.68824820  0.41781310  0.17808142  1
  O  O131  1  0.69054807  0.48172703  0.65398007  1
  O  O132  1  0.67045656  0.92441714  0.07482667  1
  O  O133  1  0.89901867  0.98974281  0.61773902  1
  O  O134  1  0.00674183  0.40496070  0.30189575  1
  O  O135  1  0.04795446  0.41175746  0.74143511  1
  O  O136  1  -0.01421998  0.96466566  0.19981542  1
  O  O137  1  0.02825779  0.87131211  0.73911279  1
  O  O138  1  0.48486356  0.32493615  0.24879196  1
  O  O139  1  0.66957309  0.08352591  0.74613904  1
  O  O140  1  0.52985168  0.92517379  0.24346961  1
  O  O141  1  0.42845743  0.93014977  0.78565212  1
  O  O142  1  0.46176948  0.11248047  0.21857960  1
  O  O143  1  0.45185565  0.11508676  0.73202788  1
  O  O144  1  0.51369551  0.62203465  0.30203317  1
  O  O145  1  0.40746863  0.60973725  0.85649868  1
  O  O146  1  0.89572799  0.19660236  0.36624520  1
  O  O147  1  0.80524207  0.13863526  0.81063494  1
  O  O148  1  0.99254507  0.59998360  0.24108070  1
  O  O149  1  1.04763325  0.66039921  0.79462116  1
  O  O150  1  0.39116383  0.32117737  -0.03695369  1
  O  O151  1  0.36494013  0.21699129  0.50998191  1
  O  O152  1  0.44055038  0.72424296  0.02694646  1
  O  O153  1  0.33842754  0.78874415  0.47823502  1
  O  O154  1  0.87627533  0.15107391  -0.03987196  1
  O  O155  1  0.87335399  0.26420536  0.55933285  1
  O  O156  1  0.88768175  0.74725396  -0.00027488  1
  O  O157  1  0.85558144  0.77849953  0.52394391  1
  O  O158  1  0.15389551  0.24509803  0.50158985  1
  O  O159  1  0.08370015  0.23253032  1.04946628  1
  O  O160  1  0.18372148  0.77595128  0.50173704  1
  O  O161  1  0.10244441  0.76880878  0.98177904  1
  O  O162  1  0.67191508  0.23928223  0.53461736  1
  O  O163  1  0.62018044  0.26282061  0.97594827  1
  O  O164  1  0.67518912  0.76664708  0.47808870  1
  O  O165  1  0.53838216  0.78286941  0.88811658  1
  O  O166  1  0.50082885  0.22156134  0.14329540  1
  O  O167  1  0.50858557  0.21162082  0.63942549  1
  O  O168  1  0.51067012  0.65706719  0.14709284  1
  O  O169  1  0.43651220  0.74606237  0.59972435  1
  O  O170  1  0.91788494  0.27795840  0.10484638  1
  O  O171  1  1.02978405  0.29851602  0.61497235  1
  O  O172  1  0.95769609  0.85499596  0.06514806  1
  O  O173  1  1.00392075  0.80266802  0.56444808  1
  O  O174  1  0.02235445  0.27731951  0.42271936  1
  O  O175  1  0.04467478  0.29171072  0.86131708  1
  O  O176  1  -0.03466120  0.78701318  0.34344198  1
  O  O177  1  -0.00967578  0.79159290  0.86464522  1
  O  O178  1  0.51017425  0.19426335  0.34255967  1
  O  O179  1  0.57061341  0.18259802  0.81006542  1
  O  O180  1  0.54464439  0.77962651  0.31726313  1
  O  O181  1  0.50890354  0.71287282  0.86874228  1
  O  O182  1  0.25349888  0.11240108  0.48623974  1
  O  O183  1  0.26539172  0.22467129  1.12036377  1
  O  O184  1  0.32857601  0.66662480  0.34688216  1
  O  O185  1  0.18808648  0.65697181  1.06458532  1
  O  O186  1  0.78532207  0.14751074  0.55380852  1
  O  O187  1  0.73486252  -0.00546675  0.99954564  1
  O  O188  1  0.78186930  0.65601800  0.45443255  1
  O  O189  1  0.73401116  0.69464277  0.93927926  1
  O  O190  1  0.23787888  0.34448906  0.03440842  1
  O  O191  1  0.28170382  0.37352540  0.51701013  1
  O  O192  1  0.27410889  0.86867972  0.01651337  1
  O  O193  1  0.26437124  0.92131176  0.51165116  1
  O  O194  1  0.81237314  0.39763628  -0.04685502  1
  O  O195  1  0.76846860  0.36506793  0.53525119  1
  O  O196  1  0.61134590  0.92351236  0.04017553  1
  O  O197  1  0.70556868  0.83156746  0.52315610  1
  O  O198  1  0.14404098  0.48469388  0.27383572  1
  O  O199  1  0.17326998  0.52487700  0.73753079  1
  O  O200  1  0.15691874  0.97702437  0.26162756  1
  O  O201  1  0.09241536  0.98729358  0.69562361  1
  O  O202  1  0.68475968  0.35313481  0.13134860  1
  O  O203  1  0.61768558  0.35713429  0.82017691  1
  O  O204  1  0.73768299  1.04658618  0.14743238  1
  O  O205  1  0.70413487  0.93205575  0.77902669  1
  O  O206  1  0.37707745  -0.00359393  0.24212727  1
  O  O207  1  0.28062255  0.05543137  0.82323015  1
  O  O208  1  0.35572597  0.50698965  0.25331633  1
  O  O209  1  0.34437633  0.49333658  0.75880250  1
  O  O210  1  0.95394949  0.18458724  0.32818621  1
  O  O211  1  0.86620087  0.10644767  0.82567979  1
  O  O212  1  0.78016003  0.55253560  0.21213490  1
  O  O213  1  0.86427525  0.51716156  0.70745973  1
  O  O214  1  0.13937530  0.37383497  0.40453517  1
  O  O215  1  0.11910282  0.33174745  0.87059623  1
  O  O216  1  0.10036402  0.85603361  0.39772108  1
  O  O217  1  0.12557825  0.94046935  0.91356796  1
  O  O218  1  0.58892603  0.32502013  0.36979839  1
  O  O219  1  0.69346058  0.23202944  0.80004980  1
  O  O220  1  0.62849637  0.89362714  0.36781095  1
  O  O221  1  0.58178957  0.91382159  0.84463802  1
  O  O222  1  0.37060674  0.10824944  0.08990605  1
  O  O223  1  0.36705223  0.09917635  0.60671428  1
  O  O224  1  0.36563162  0.61685809  0.11712687  1
  O  O225  1  0.42110097  0.63494590  0.69869432  1
  O  O226  1  0.89694617  0.13960452  0.19046579  1
  O  O227  1  0.94136230  0.16473568  0.65544421  1
  O  O228  1  0.89688126  0.62356892  0.11064585  1
  O  O229  1  0.92980862  0.65841657  0.59021070  1
  O  O230  1  0.22826901  0.25855024  0.17083958  1
  O  O231  1  0.24806480  0.24712707  0.60332566  1
  O  O232  1  0.32095218  0.76515869  0.12500591  1
  O  O233  1  0.28216344  0.77849548  0.62994456  1
  O  O234  1  0.77352209  0.19670103  0.10861938  1
  O  O235  1  0.75403755  0.28012020  0.66506399  1
  O  O236  1  0.77382015  0.74366687  0.11327965  1
  O  O237  1  0.77632175  0.67314937  0.63570365  1
  O  O238  1  0.25852225  0.24611723  0.39936959  1
  O  O239  1  0.23913502  0.23209975  0.83343581  1
  O  O240  1  0.26759261  0.67243984  0.38084858  1
  O  O241  1  0.24663003  0.76819024  0.89045257  1
  O  O242  1  0.73246938  0.26036595  0.38133086  1
  O  O243  1  0.73528568  0.17487764  0.96029215  1
  O  O244  1  0.79688966  0.78645887  0.36673534  1
  O  O245  1  0.79367441  0.74294472  0.80297523  1
  O  O246  1  0.01720383  0.08476998  0.05686275  1
  O  O247  1  0.00900210  0.09633772  0.46340021  1
  O  O248  1  0.02828853  0.60826830  -0.01949387  1
  O  O249  1  0.02094741  0.60799661  0.47453323  1
  O  O250  1  0.50478647  0.14779659  0.00855612  1
  O  O251  1  0.48884135  0.10196123  0.50714762  1
  O  O252  1  0.51305366  0.56108390  0.01017722  1
  O  O253  1  0.53699648  0.65213662  0.52161532  1
  O  O254  1  0.51276951  0.33447443  0.50042771  1
  O  O255  1  0.53495258  0.39618011  1.03869634  1
  O  O256  1  0.57085934  0.90854088  0.54305361  1
  O  O257  1  0.47801430  0.89042009  0.98595760  1
  O  O258  1  0.96771503  0.42770226  0.50645294  1
  O  O259  1  0.99078177  0.40320604  0.99849398  1
  O  O260  1  0.90901009  0.90825842  0.44434399  1
  O  O261  1  0.75577864  0.88651360  0.92979770  1
  O  O262  1  0.48871715  0.45925498  0.38576435  1
  O  O263  1  0.47606282  0.45339280  0.89584819  1
  O  O264  1  0.52835795  0.98722927  0.41676674  1
  O  O265  1  0.50323852  1.00869585  0.91339645  1
  O  O266  1  1.01533283  0.55886238  0.42348321  1
  O  O267  1  1.06115699  0.48805854  0.88368076  1
  O  O268  1  0.99785376  0.96745587  0.28634957  1
  O  O269  1  0.90082040  1.01193215  0.92812467  1
  O  O270  1  -0.31033988  -0.12033409  -0.08958770  1
  O  O271  1  -0.06167200  -0.03766411  0.47884303  1
  O  O272  1  0.01664004  0.51706747  0.09920765  1
  O  O273  1  0.05120872  0.51811561  0.62488458  1
  O  O274  1  0.52195763  0.03575824  0.09080100  1
  O  O275  1  0.50497312  0.02563032  0.62333988  1
  O  O276  1  0.49221300  0.49685831  0.17860428  1
  O  O277  1  0.53541647  0.48851293  0.74576388  1
  O  O278  1  0.26253523  0.38647511  0.26566730  1
  O  O279  1  0.26460866  0.35438718  0.73043949  1
  O  O280  1  0.28682582  0.86949661  0.23517974  1
  O  O281  1  0.22273572  0.90165331  0.76792165  1
  O  O282  1  0.68681386  0.40422658  0.25053711  1
  O  O283  1  0.75840105  0.39092331  0.78671501  1
  O  O284  1  0.67549474  0.84603073  0.18362013  1
  O  O285  1  0.66622622  0.79764703  0.70058399  1
  O  O286  1  0.26386832  0.08991863  0.25863054  1
  O  O287  1  0.28536457  0.08787733  0.76097594  1
  O  O288  1  0.18095830  0.63579875  0.23112638  1
  O  O289  1  0.27516194  0.66049362  0.76413895  1
  O  O290  1  0.78958051  0.00975310  0.11811414  1
  O  O291  1  0.67657853  0.12221914  0.86120659  1
  O  O292  1  0.67977728  0.55618842  0.35116435  1
  O  O293  1  0.73536722  0.61256619  0.75255742  1
  O  O294  1  0.39313263  0.09746963  0.36536783  1
  O  O295  1  0.35732257  0.17542221  0.92682534  1
  O  O296  1  0.37539889  0.60296727  0.50702457  1
  O  O297  1  0.28785140  0.72211160  0.92695461  1
  O  O298  1  0.99795667  0.03469464  0.31475528  1
  O  O299  1  0.78869763  0.07243291  0.91898280  1
  O  O300  1  0.80114551  0.61022093  0.24747715  1
  O  O301  1  0.85059281  0.63824603  0.86275884  1
  O  O302  1  0.07473668  0.37418127  0.16610119  1
  O  O303  1  0.18315129  0.42220064  0.62803094  1
  O  O304  1  0.18036157  0.82638211  0.12357446  1
  O  O305  1  0.15444565  0.86483026  0.62712101  1
  O  O306  1  0.68630592  0.27946720  -0.01946901  1
  O  O307  1  0.61002631  0.34803298  0.66982742  1
  O  O308  1  0.61699070  0.76267849  0.06501417  1
  O  O309  1  0.76370814  0.97632263  0.78564531  1
  O  O310  1  0.12631874  0.29129426  0.28662637  1
  O  O311  1  0.12278658  0.22225027  0.72872580  1
  O  O312  1  0.07753943  0.79985932  0.23323051  1
  O  O313  1  0.13181638  0.77869534  0.75431174  1
  O  O314  1  0.64158573  0.21330052  0.26242058  1
  O  O315  1  0.62034955  0.04470380  0.77213302  1
  O  O316  1  0.63297300  0.69687930  0.21882849  1
  O  O317  1  0.58880061  0.70986466  0.60558616  1
  O  O318  1  0.36954700  0.21821342  0.26105847  1
  O  O319  1  0.43107761  0.26358831  0.79753734  1
  O  O320  1  0.44057411  0.75165988  0.21508761  1
  O  O321  1  0.38671855  0.77135965  0.77784877  1
  O  O322  1  0.81663917  0.28570677  0.23876934  1
  O  O323  1  0.90836760  0.30114839  0.72821139  1
  O  O324  1  0.88778397  0.81473236  0.18616679  1
  O  O325  1  0.95427389  0.74283021  0.70830033  1
  O  O326  1  0.39256094  0.53778150  0.52926475  1
  O  O327  1  0.31475586  0.48684129  1.05390682  1
  O  O328  1  0.41379537  0.95054287  0.51659134  1
  O  O329  1  0.34594421  1.00618474  0.98134971  1
  O  O330  1  0.83300411  0.51293129  0.52996230  1
  O  O331  1  0.89822069  0.52923574  0.96185422  1
  O  O332  1  0.94634666  1.12169616  0.48365336  1
  O  O333  1  0.87192600  0.99944874  0.98970145  1
  O  O334  1  0.17788315  0.09013527  0.02288295  1
  O  O335  1  0.10762391  -0.03166139  0.51800167  1
  O  O336  1  0.13881362  0.49254522  0.01737238  1
  O  O337  1  0.17144922  0.52687550  0.52415394  1
  O  O338  1  0.61292022  0.02931450  -0.01383019  1
  O  O339  1  0.71370581  0.02573376  0.47430082  1
  O  O340  1  0.63434991  0.46533023  -0.06397062  1
  O  O341  1  0.52486684  0.46292329  0.59046326  1
  O  O342  1  0.38113468  0.35919584  0.10827791  1
  O  O343  1  0.37910981  0.33448826  0.63182373  1
  O  O344  1  0.38920226  0.89916394  0.10118036  1
  O  O345  1  0.45782458  0.80602113  0.63017407  1
  O  O346  1  0.84088984  0.21105810  -0.05135489  1
  O  O347  1  0.89521639  0.40335123  0.62327613  1
  O  O348  1  0.80417592  0.88581778  0.05045934  1
  O  O349  1  0.86950902  0.83086946  0.66649385  1
  O  O350  1  0.12504753  0.17112862  0.36609857  1
  O  O351  1  0.11862848  0.13896457  0.86711336  1
  O  O352  1  0.09527165  0.68971218  0.34966011  1
  O  O353  1  0.16036582  0.63175162  0.91341738  1
  O  O354  1  0.63330251  0.14849100  0.41966830  1
  O  O355  1  0.61664598  0.14808421  0.96899725  1
  O  O356  1  0.57022084  0.59482031  0.49435937  1
  O  O357  1  0.65896259  0.70525452  0.83128389  1
