# generated using pymatgen
data_V51Zn51O256
_symmetry_space_group_name_H-M   'P 1'
_cell_length_a   17.22574787
_cell_length_b   17.10560322
_cell_length_c   18.00668626
_cell_angle_alpha   88.72319326
_cell_angle_beta   91.35246608
_cell_angle_gamma   89.49939087
_symmetry_Int_Tables_number   1
_chemical_formula_structural   V51Zn51O256
_chemical_formula_sum   'V51 Zn51 O256'
_cell_volume   5302.76982912
_cell_formula_units_Z   1
loop_
 _symmetry_equiv_pos_site_id
 _symmetry_equiv_pos_as_xyz
  1  'x, y, z'
loop_
 _atom_site_type_symbol
 _atom_site_label
 _atom_site_symmetry_multiplicity
 _atom_site_fract_x
 _atom_site_fract_y
 _atom_site_fract_z
 _atom_site_occupancy
  V  V0  1  0.34571322  0.11965077  0.78932284  1
  V  V1  1  0.26398117  0.15816621  0.32499710  1
  V  V2  1  0.76987421  0.13292217  0.84489498  1
  V  V3  1  0.21189284  0.76317772  -0.00165015  1
  V  V4  1  0.50507642  0.14892895  0.68351222  1
  V  V5  1  0.01265650  0.73757117  0.69950029  1
  V  V6  1  0.27464401  0.46888903  0.71392805  1
  V  V7  1  0.62421235  0.38654705  0.74361654  1
  V  V8  1  0.46975493  0.89992250  0.37677974  1
  V  V9  1  -0.01686940  0.01381209  0.48770261  1
  V  V10  1  0.63529511  0.27744473  0.87193021  1
  V  V11  1  0.42837633  0.67957808  0.18216808  1
  V  V12  1  0.83791683  -0.04468059  0.87836141  1
  V  V13  1  0.72953135  0.86703639  0.59104549  1
  V  V14  1  0.61998575  0.86858192  0.77503972  1
  V  V15  1  0.77971698  0.48331986  0.72191280  1
  V  V16  1  0.14567938  0.10254401  0.55687400  1
  V  V17  1  0.89197724  0.60900638  0.70202170  1
  V  V18  1  0.83643446  0.10916636  0.23919476  1
  V  V19  1  -0.02231220  0.24878068  0.26784756  1
  V  V20  1  0.62724577  0.64605273  0.47285767  1
  V  V21  1  0.89090632  0.36939759  -0.01860278  1
  V  V22  1  0.24302774  0.39486865  0.14017373  1
  V  V23  1  -0.00887517  0.24774529  0.72508429  1
  V  V24  1  0.68130235  0.14328662  -0.00573433  1
  V  V25  1  -0.01742371  0.09738368  0.65573332  1
  V  V26  1  0.49231754  0.70608657  0.75309857  1
  V  V27  1  0.64013369  0.54085820  0.62627826  1
  V  V28  1  0.46537765  0.88811565  0.89145273  1
  V  V29  1  0.90800133  0.48573369  0.85102783  1
  V  V30  1  0.37037652  0.52486413  0.39035956  1
  V  V31  1  0.00409292  0.60339899  0.57567824  1
  V  V32  1  0.13044202  0.70670637  0.82715264  1
  V  V33  1  0.60403076  0.45940493  0.12404256  1
  V  V34  1  0.25902670  0.65154931  0.45083542  1
  V  V35  1  0.85622760  0.92600294  0.17659688  1
  V  V36  1  0.12104308  0.35804846  0.68337138  1
  V  V37  1  0.13142153  0.49054924  0.58248504  1
  V  V38  1  0.03101217  0.08062235  0.12558988  1
  V  V39  1  0.75001989  0.36129406  0.59630255  1
  V  V40  1  0.47805152  0.15843638  0.09830392  1
  V  V41  1  0.75424018  0.63709004  -0.04578538  1
  V  V42  1  0.38304937  0.85720908  0.57907463  1
  V  V43  1  0.04552847  0.36290528  0.87801042  1
  V  V44  1  0.44979947  0.00211528  0.01475401  1
  V  V45  1  0.63319162  0.14680998  0.54013219  1
  V  V46  1  0.14118795  0.88208192  0.30074811  1
  V  V47  1  0.49850734  0.51488744  0.52405837  1
  V  V48  1  0.68069756  -0.04098016  0.07953144  1
  V  V49  1  0.12766502  0.14273557  -0.00867809  1
  V  V50  1  0.48902322  0.01692927  0.53312575  1
  Zn  Zn51  1  0.07895534  0.06745980  0.31736027  1
  Zn  Zn52  1  0.72115612  0.71882094  0.69896647  1
  Zn  Zn53  1  0.23802803  0.31363190  0.94275715  1
  Zn  Zn54  1  0.87299307  0.15000816  0.41197939  1
  Zn  Zn55  1  0.54564227  0.70370494  0.59635488  1
  Zn  Zn56  1  0.64173721  0.10251490  0.16898016  1
  Zn  Zn57  1  0.44485017  0.71418567  0.44972863  1
  Zn  Zn58  1  0.32234301  0.05955002  0.12532070  1
  Zn  Zn59  1  0.81010061  0.69184495  0.54444027  1
  Zn  Zn60  1  0.61573766  0.79984738  -0.03135025  1
  Zn  Zn61  1  0.31408301  0.32084963  0.77723683  1
  Zn  Zn62  1  0.85358733  0.05084012  0.03509013  1
  Zn  Zn63  1  0.30518169  0.99962650  0.45818838  1
  Zn  Zn64  1  0.42642445  0.25286480  0.89115157  1
  Zn  Zn65  1  0.32197664  0.76828637  0.85046256  1
  Zn  Zn66  1  0.60098585  0.85962204  0.49755857  1
  Zn  Zn67  1  0.41842322  0.79015832  1.01824435  1
  Zn  Zn68  1  0.14864803  0.22196810  0.17087203  1
  Zn  Zn69  1  0.28793096  0.73905624  0.29968123  1
  Zn  Zn70  1  0.06401518  0.53828830  0.76443600  1
  Zn  Zn71  1  0.52964986  0.57054255  0.32130891  1
  Zn  Zn72  1  0.16394176  0.73213690  0.16842884  1
  Zn  Zn73  1  0.27849984  0.60258021  0.09315239  1
  Zn  Zn74  1  -0.02808261  0.80664249  0.53013477  1
  Zn  Zn75  1  0.93945694  0.42112701  0.62982635  1
  Zn  Zn76  1  0.82231006  0.30869200  0.80558135  1
  Zn  Zn77  1  0.80697165  0.06505292  0.56154012  1
  Zn  Zn78  1  0.19067226  0.67218460  0.63201535  1
  Zn  Zn79  1  0.72549189  0.45501821  0.90044812  1
  Zn  Zn80  1  0.95048977  0.20232797  0.91254280  1
  Zn  Zn81  1  0.57713580  0.04787080  0.84376426  1
  Zn  Zn82  1  0.17234049  0.29873692  0.50244310  1
  Zn  Zn83  1  0.18969076  0.17592387  0.73266150  1
  Zn  Zn84  1  0.64773605  0.59860372  0.81180326  1
  Zn  Zn85  1  0.02253122  0.03799495  0.80796276  1
  Zn  Zn86  1  0.39028949  0.91860141  0.75056111  1
  Zn  Zn87  1  0.74665450  0.77363471  0.85788006  1
  Zn  Zn88  1  0.55651294  0.32026139  0.58006424  1
  Zn  Zn89  1  0.22420584  0.45083603  0.42323837  1
  Zn  Zn90  1  0.60415905  0.28640568  0.06284308  1
  Zn  Zn91  1  0.37899194  0.64417935  0.59293672  1
  Zn  Zn92  1  0.43065550  0.43376079  0.22899252  1
  Zn  Zn93  1  0.92336124  0.92525976  0.68612176  1
  Zn  Zn94  1  0.80664771  0.47887762  0.06385389  1
  Zn  Zn95  1  0.91218719  0.64031697  0.41422814  1
  Zn  Zn96  1  0.68840484  0.20408878  0.69775020  1
  Zn  Zn97  1  0.92411247  0.68957853  0.84740091  1
  Zn  Zn98  1  0.48779526  1.00545728  0.20854015  1
  Zn  Zn99  1  0.12170255  0.67713973  0.33920704  1
  Zn  Zn100  1  0.88072807  0.79323180  0.31589978  1
  Zn  Zn101  1  0.16983457  0.96272319  1.05466737  1
  O  O102  1  0.10269960  0.15567394  0.09148498  1
  O  O103  1  0.16726871  0.10972162  0.64927977  1
  O  O104  1  0.01871739  0.52760075  0.19566641  1
  O  O105  1  0.11318227  0.59909383  0.59155795  1
  O  O106  1  0.64224489  0.17538220  0.07995076  1
  O  O107  1  0.62335598  0.13439071  0.63572692  1
  O  O108  1  0.57935136  0.53716824  0.06775159  1
  O  O109  1  0.64565983  0.64131093  0.64191767  1
  O  O110  1  0.34196997  0.43657253  0.42695703  1
  O  O111  1  0.40314514  0.53275817  0.84619557  1
  O  O112  1  0.37777584  0.93155960  0.39084849  1
  O  O113  1  0.36972669  0.87320973  0.85489416  1
  O  O114  1  0.83004805  0.25602352  0.42311160  1
  O  O115  1  0.88837336  0.37905554  0.86580298  1
  O  O116  1  0.77104703  0.94952000  0.36877677  1
  O  O117  1  0.80880078  0.86049924  0.88182279  1
  O  O118  1  0.28042566  0.05553206  0.35441423  1
  O  O119  1  0.16220779  -0.04406374  0.85938771  1
  O  O120  1  0.25987261  0.55655731  0.39841450  1
  O  O121  1  0.23960269  0.49859352  0.79179508  1
  O  O122  1  0.71636847  -0.05614492  0.32451019  1
  O  O123  1  0.76096587  0.02456998  0.86996564  1
  O  O124  1  0.78985372  0.51874373  0.40793522  1
  O  O125  1  0.80130671  0.49730450  0.82370718  1
  O  O126  1  0.24966292  0.49357677  0.10568477  1
  O  O127  1  0.22750757  0.48984691  0.61513249  1
  O  O128  1  0.22950214  1.00923806  0.13215041  1
  O  O129  1  0.18524813  0.88108647  0.68769815  1
  O  O130  1  0.70751348  0.46725953  0.11538048  1
  O  O131  1  0.73921155  0.48510239  0.62433350  1
  O  O132  1  0.78616921  0.95798666  0.09956339  1
  O  O133  1  0.77123335  0.96817717  0.61886472  1
  O  O134  1  -0.06716381  0.33321614  0.27370334  1
  O  O135  1  0.00739678  0.34919943  0.69044164  1
  O  O136  1  0.03806600  0.89591547  0.29383788  1
  O  O137  1  -0.00849736  0.83441985  0.69085340  1
  O  O138  1  0.52150472  0.46393554  0.28706983  1
  O  O139  1  0.53237431  0.40021706  0.75154002  1
  O  O140  1  0.50306760  0.93802825  0.29339012  1
  O  O141  1  0.50170645  0.89230553  0.80037498  1
  O  O142  1  0.52914359  0.11411107  0.18003709  1
  O  O143  1  0.54865940  0.12760037  0.76836689  1
  O  O144  1  0.50413007  0.63983315  0.23777075  1
  O  O145  1  0.54198619  0.63357356  0.80195652  1
  O  O146  1  1.03719846  0.09001790  0.22117470  1
  O  O147  1  1.00185316  0.13514043  0.75288099  1
  O  O148  1  1.01562043  0.67462714  0.29716643  1
  O  O149  1  1.00554446  0.60980606  0.68973642  1
  O  O150  1  0.43540922  0.38712542  -0.02986993  1
  O  O151  1  0.39974437  0.26478439  0.53691321  1
  O  O152  1  0.30742404  0.76257469  -0.03414997  1
  O  O153  1  0.40800590  0.76193597  0.54648430  1
  O  O154  1  0.89187809  0.26977868  -0.01902584  1
  O  O155  1  0.88255769  0.31425956  0.44424455  1
  O  O156  1  0.83267790  0.68090905  -0.09438741  1
  O  O157  1  0.89019711  0.74437745  0.47134131  1
  O  O158  1  0.14128486  0.19321562  0.51662256  1
  O  O159  1  0.18977820  0.21605031  0.97085593  1
  O  O160  1  0.11522300  0.83020129  0.53432498  1
  O  O161  1  0.14390276  0.72919580  0.93174978  1
  O  O162  1  0.60246472  0.23912302  0.51563540  1
  O  O163  1  0.66298499  0.25716338  0.96949537  1
  O  O164  1  0.60042063  0.74594034  0.50555557  1
  O  O165  1  0.69261353  0.71376474  0.97487958  1
  O  O166  1  0.49644442  0.25451317  0.07679543  1
  O  O167  1  0.51350004  0.24464512  0.65198118  1
  O  O168  1  0.37195238  0.87419298  0.17777375  1
  O  O169  1  0.46411579  0.67134287  0.66357431  1
  O  O170  1  1.06002149  0.26341552  0.21579763  1
  O  O171  1  0.99691578  0.20349102  0.63454467  1
  O  O172  1  1.04667249  0.70406736  0.13897127  1
  O  O173  1  1.00497150  0.72246277  0.59673497  1
  O  O174  1  -0.02284085  0.17575876  0.35495990  1
  O  O175  1  0.01154679  0.27412258  0.83775266  1
  O  O176  1  -0.03579576  0.71363588  0.34230140  1
  O  O177  1  0.02438411  0.73399665  0.81514121  1
  O  O178  1  0.59069608  0.37914155  0.39356823  1
  O  O179  1  0.53647325  0.27139054  0.88336702  1
  O  O180  1  0.47664563  0.79841285  0.38576190  1
  O  O181  1  0.50555812  0.80007958  0.93567852  1
  O  O182  1  0.29748034  0.17846718  0.41498383  1
  O  O183  1  0.17222355  0.05340319  0.98489591  1
  O  O184  1  0.27147546  0.65708290  0.55169596  1
  O  O185  1  0.12995120  0.54451146  0.98320138  1
  O  O186  1  0.72838815  0.12684442  0.51582408  1
  O  O187  1  0.77904155  0.13558806  1.00272047  1
  O  O188  1  0.72709228  0.65710915  0.47999602  1
  O  O189  1  0.79160246  0.58846401  1.03128906  1
  O  O190  1  0.24566729  0.36484213  0.04296260  1
  O  O191  1  0.17560700  0.35561185  0.41304591  1
  O  O192  1  0.18437967  0.85338809  0.02672948  1
  O  O193  1  0.31153955  0.90398550  0.52870890  1
  O  O194  1  0.78890214  0.40627463  -0.02431770  1
  O  O195  1  0.71550032  0.36625286  0.51044251  1
  O  O196  1  0.87695272  0.69412780  0.12485450  1
  O  O197  1  0.72528157  0.87143086  0.49762193  1
  O  O198  1  0.08054086  0.55247590  0.22146081  1
  O  O199  1  0.10457004  0.46217442  0.69479985  1
  O  O200  1  0.14624983  0.98072291  0.26789887  1
  O  O201  1  0.13121576  1.00368245  0.80155650  1
  O  O202  1  0.62905196  0.49739893  0.20905234  1
  O  O203  1  0.66417796  0.50172156  0.74190596  1
  O  O204  1  0.63976820  0.98366145  0.16101379  1
  O  O205  1  0.62310938  0.96860209  0.77792445  1
  O  O206  1  0.37549584  0.02465281  0.21337645  1
  O  O207  1  0.36444067  0.02232883  0.77366227  1
  O  O208  1  0.37900997  0.51189075  0.29615182  1
  O  O209  1  0.35866873  0.41736623  0.73294059  1
  O  O210  1  0.87789211  0.01224670  0.22829601  1
  O  O211  1  0.87329136  -0.02916139  0.77545078  1
  O  O212  1  0.77307825  0.58317674  0.33347926  1
  O  O213  1  0.88480270  0.48934048  0.70421502  1
  O  O214  1  0.00763835  0.45580657  0.35357748  1
  O  O215  1  0.14350908  0.36141229  0.88931609  1
  O  O216  1  0.16850936  0.91752763  0.38735095  1
  O  O217  1  -0.01718965  0.80765668  1.02732379  1
  O  O218  1  0.73796946  0.39641349  0.32983371  1
  O  O219  1  0.65210834  0.38130658  0.85821468  1
  O  O220  1  0.65632051  0.77367932  0.30696418  1
  O  O221  1  0.64346679  0.83664872  0.86571762  1
  O  O222  1  0.38053928  0.15519130  0.11744101  1
  O  O223  1  0.40711470  0.14858166  0.70553097  1
  O  O224  1  0.37191499  0.60362354  0.14941195  1
  O  O225  1  0.27067167  0.63578809  0.71174080  1
  O  O226  1  0.93703078  0.09204602  0.09164661  1
  O  O227  1  0.88719990  0.08736717  0.63705893  1
  O  O228  1  0.85402944  0.52031634  0.18608197  1
  O  O229  1  0.89237534  0.61803593  0.59710732  1
  O  O230  1  0.23879500  0.28710741  0.14399082  1
  O  O231  1  0.27479913  0.28188728  0.56335443  1
  O  O232  1  0.21323008  0.69647133  0.07996483  1
  O  O233  1  0.17092842  0.78604035  0.55153243  1
  O  O234  1  0.77558646  0.28035323  0.12223676  1
  O  O235  1  0.74510202  0.26403264  0.62664509  1
  O  O236  1  0.89665827  0.68188173  0.18998400  1
  O  O237  1  0.76542126  0.76603368  0.61172751  1
  O  O238  1  0.25434704  0.26013838  0.32226070  1
  O  O239  1  0.33113268  0.31262487  0.88485230  1
  O  O240  1  0.27924337  0.74040375  0.40520284  1
  O  O241  1  0.22058626  0.74669498  0.81086787  1
  O  O242  1  0.73782606  0.32746706  0.31364971  1
  O  O243  1  0.74798883  0.24052267  0.85496155  1
  O  O244  1  0.85020878  0.79867791  0.41821774  1
  O  O245  1  0.71114285  0.69029909  0.79935632  1
  O  O246  1  0.04249397  0.14097236  -0.06317244  1
  O  O247  1  0.03742131  0.06922200  0.55876309  1
  O  O248  1  0.03126060  0.65556990  0.08986359  1
  O  O249  1  -0.00353547  0.61872354  0.48235635  1
  O  O250  1  0.49560875  0.10500348  0.01704736  1
  O  O251  1  0.57063401  0.07662052  0.49839952  1
  O  O252  1  0.45424578  0.73488864  0.10364435  1
  O  O253  1  0.51702150  0.63248334  0.51114731  1
  O  O254  1  0.51579944  0.41579071  0.53234282  1
  O  O255  1  0.41229117  0.45351253  0.98590637  1
  O  O256  1  0.46405458  0.91982426  0.57685708  1
  O  O257  1  0.41863482  0.90155361  0.98859014  1
  O  O258  1  0.86596634  0.38207029  0.42101762  1
  O  O259  1  1.00687099  0.37107236  0.96439714  1
  O  O260  1  0.97512792  0.91568616  0.51056095  1
  O  O261  1  0.92600977  0.77693859  0.99834308  1
  O  O262  1  0.47785813  0.52108800  0.42033165  1
  O  O263  1  0.46666312  0.50173243  0.84027291  1
  O  O264  1  0.53063808  0.93761533  0.45382719  1
  O  O265  1  0.50477528  0.98682954  0.91500917  1
  O  O266  1  0.96541792  0.51234800  0.33903970  1
  O  O267  1  1.01481526  0.45502319  0.82911488  1
  O  O268  1  1.02963677  1.02960293  0.40731991  1
  O  O269  1  0.93824855  0.96019493  0.83073433  1
  O  O270  1  0.06758414  -0.00603814  0.09791705  1
  O  O271  1  0.00822947  0.00246627  0.69088909  1
  O  O272  1  -0.15168712  0.47688684  0.24160243  1
  O  O273  1  0.00817210  0.49745033  0.58101571  1
  O  O274  1  0.48312441  -0.02600764  0.10127918  1
  O  O275  1  0.49176564  0.06392904  0.61892589  1
  O  O276  1  0.50120520  0.45444978  0.14205203  1
  O  O277  1  0.54522689  0.52075272  0.63401812  1
  O  O278  1  0.24345380  0.39908082  0.23661583  1
  O  O279  1  0.21929303  0.36656991  0.71443145  1
  O  O280  1  0.23894539  0.85668918  0.28104957  1
  O  O281  1  0.23240673  0.93686923  0.85354797  1
  O  O282  1  0.81086137  0.32065630  0.16739590  1
  O  O283  1  0.76569973  0.38242303  0.73401993  1
  O  O284  1  0.83404375  0.84865288  0.23803746  1
  O  O285  1  0.70419000  0.84154811  0.73046350  1
  O  O286  1  0.21399452  0.15047285  0.23261415  1
  O  O287  1  0.24462801  0.11992504  0.81373529  1
  O  O288  1  0.19515562  0.68327169  0.26022518  1
  O  O289  1  0.31987891  0.57940549  0.69138611  1
  O  O290  1  0.75180826  0.11744175  0.18879686  1
  O  O291  1  0.75566972  0.12762830  0.75260301  1
  O  O292  1  0.69956743  0.70188957  0.14982999  1
  O  O293  1  0.79116207  0.60222849  0.70891924  1
  O  O294  1  0.34777485  0.15432455  0.27620937  1
  O  O295  1  0.40066367  0.14797061  0.86432273  1
  O  O296  1  0.37209694  0.62939487  0.42784873  1
  O  O297  1  0.39321845  0.61200986  0.97656464  1
  O  O298  1  0.81184291  0.11232029  0.32987452  1
  O  O299  1  0.86815575  0.13974267  0.86427634  1
  O  O300  1  0.83308265  0.62579468  0.32641473  1
  O  O301  1  0.92956700  0.58229960  0.80551802  1
  O  O302  1  0.14545869  0.41443961  0.14470922  1
  O  O303  1  0.12603650  0.36547234  0.58616888  1
  O  O304  1  0.13307236  0.83704135  0.20939752  1
  O  O305  1  0.16292065  0.92962964  0.64062105  1
  O  O306  1  0.60410635  0.35460496  0.15623349  1
  O  O307  1  0.63713017  0.37736772  0.64546114  1
  O  O308  1  0.64616838  0.87425396  0.04434924  1
  O  O309  1  0.63171268  0.87862266  0.60552856  1
  O  O310  1  0.01925632  0.24525574  0.36715168  1
  O  O311  1  0.11316118  0.26077298  0.72636565  1
  O  O312  1  0.11549841  0.79765121  0.35195635  1
  O  O313  1  0.11637710  0.72200057  0.70897597  1
  O  O314  1  0.58996433  0.31668509  0.36225166  1
  O  O315  1  0.63471376  0.27747498  0.76465172  1
  O  O316  1  0.63439858  0.80813379  0.24976721  1
  O  O317  1  0.55780591  0.78251292  0.73143403  1
  O  O318  1  0.43330742  0.32787070  0.25715569  1
  O  O319  1  0.29785765  0.21663430  0.74168371  1
  O  O320  1  0.37031168  0.73722250  0.23641181  1
  O  O321  1  0.41021801  0.72527631  0.80076914  1
  O  O322  1  0.90124401  0.18680591  0.22291101  1
  O  O323  1  0.89507815  0.25777147  0.73942288  1
  O  O324  1  0.72623259  0.66512567  0.20451112  1
  O  O325  1  0.90360764  0.71020810  0.72769074  1
  O  O326  1  0.41066556  0.53491332  0.55936774  1
  O  O327  1  0.32566618  0.58728345  0.98392130  1
  O  O328  1  0.40740390  1.05017706  0.49139166  1
  O  O329  1  0.35740979  1.03323741  1.02495302  1
  O  O330  1  0.85098940  0.53873543  0.44222205  1
  O  O331  1  0.91402767  0.50721074  0.93919996  1
  O  O332  1  0.89061449  1.06132433  0.48087569  1
  O  O333  1  0.87750445  0.97384432  0.96427340  1
  O  O334  1  0.03992766  -0.10133225  -0.06946533  1
  O  O335  1  0.21046401  0.04464489  0.51195683  1
  O  O336  1  0.07307836  0.51393468  0.01233766  1
  O  O337  1  0.13965607  0.48682211  0.49017784  1
  O  O338  1  0.66118215  0.03714229  0.01628897  1
  O  O339  1  0.61344795  0.16064409  0.35707826  1
  O  O340  1  0.61181832  0.39814467  0.03740968  1
  O  O341  1  0.62902816  0.54482257  0.52360777  1
  O  O342  1  0.34960690  0.40786009  0.15299307  1
  O  O343  1  0.33924653  0.30658767  0.52782535  1
  O  O344  1  0.32494367  0.85800435  0.12834802  1
  O  O345  1  0.35864035  0.85239425  0.67236037  1
  O  O346  1  0.90031253  0.40873956  0.06891201  1
  O  O347  1  0.84965761  0.37796741  0.58764481  1
  O  O348  1  0.93428414  0.90060933  0.13501643  1
  O  O349  1  0.83751428  0.91331981  0.61215586  1
  O  O350  1  0.16257170  0.13709723  0.34740241  1
  O  O351  1  0.03655437  -0.02976770  0.93821225  1
  O  O352  1  0.15817728  0.65489882  0.43739796  1
  O  O353  1  0.12807219  0.60841274  0.82531232  1
  O  O354  1  0.65102403  0.17888800  0.30257236  1
  O  O355  1  0.65601409  0.13121950  0.89346333  1
  O  O356  1  0.60541730  0.62727188  0.38253897  1
  O  O357  1  0.69304467  0.56465015  0.91141705  1
