# generated using pymatgen
data_V51Zn51O256
_symmetry_space_group_name_H-M   'P 1'
_cell_length_a   17.28541907
_cell_length_b   17.89994582
_cell_length_c   18.00462037
_cell_angle_alpha   89.04889042
_cell_angle_beta   92.40539551
_cell_angle_gamma   89.64509556
_symmetry_Int_Tables_number   1
_chemical_formula_structural   V51Zn51O256
_chemical_formula_sum   'V51 Zn51 O256'
_cell_volume   5564.96699314
_cell_formula_units_Z   1
loop_
 _symmetry_equiv_pos_site_id
 _symmetry_equiv_pos_as_xyz
  1  'x, y, z'
loop_
 _atom_site_type_symbol
 _atom_site_label
 _atom_site_symmetry_multiplicity
 _atom_site_fract_x
 _atom_site_fract_y
 _atom_site_fract_z
 _atom_site_occupancy
  V  V0  1  0.57717263  0.51111022  0.12662868  1
  V  V1  1  0.51293358  0.08425946  0.14343230  1
  V  V2  1  0.60638917  0.12053237  0.02359135  1
  V  V3  1  0.52072201  0.75553111  0.72747770  1
  V  V4  1  0.78044644  0.10969845  0.93387687  1
  V  V5  1  -0.00018474  0.37732477  0.35017662  1
  V  V6  1  0.22544955  0.63101814  0.31799962  1
  V  V7  1  0.72895684  0.87657307  0.14933348  1
  V  V8  1  0.79518613  0.10723403  0.39863898  1
  V  V9  1  0.66121176  0.46697281  0.62387573  1
  V  V10  1  0.50036021  0.64578408  0.07163569  1
  V  V11  1  0.65100089  -0.01418413  0.60919165  1
  V  V12  1  0.12731839  0.24363936  0.82456027  1
  V  V13  1  -0.00616700  0.59036473  0.64840494  1
  V  V14  1  0.38547111  0.62325577  0.75763505  1
  V  V15  1  0.50250381  0.24408795  0.28070841  1
  V  V16  1  0.86151012  0.50669327  0.92373818  1
  V  V17  1  0.64237247  0.80967373  0.86110470  1
  V  V18  1  0.37361837  0.08571865  0.69987353  1
  V  V19  1  0.86966449  0.83839207  0.46713814  1
  V  V20  1  0.24147176  -0.01703588  0.24106620  1
  V  V21  1  0.15932900  0.81168916  0.71053157  1
  V  V22  1  0.39513115  0.08044034  0.26502037  1
  V  V23  1  -0.05548798  0.08960588  0.67696844  1
  V  V24  1  0.25974002  0.89783269  0.08815175  1
  V  V25  1  0.63560705  0.38254915  0.79793064  1
  V  V26  1  0.85712715  0.63465390  0.76375410  1
  V  V27  1  0.36935554  0.74798960  0.08501883  1
  V  V28  1  0.75000621  0.70571202  0.50670667  1
  V  V29  1  -0.00965970  0.17469449  0.10610136  1
  V  V30  1  0.89034919  0.54174183  0.36831044  1
  V  V31  1  0.28746367  0.36169241  0.11577744  1
  V  V32  1  0.72194251  0.60619511  0.88272211  1
  V  V33  1  0.87814522  0.76514343  0.14623189  1
  V  V34  1  0.15681028  0.11937641  0.49957194  1
  V  V35  1  0.50880921  0.76585820  0.27591651  1
  V  V36  1  0.75844436  0.78114431  -0.01303993  1
  V  V37  1  0.47228568  0.86841500  0.89056895  1
  V  V38  1  -0.04045218  -0.00716450  0.08512349  1
  V  V39  1  0.62506846  0.71770865  0.39076038  1
  V  V40  1  0.00724952  0.65327902  0.15337524  1
  V  V41  1  0.48667833  0.24128068  0.75857072  1
  V  V42  1  0.28963802  0.48629028  0.25034749  1
  V  V43  1  0.14895990  0.38621710  0.20837161  1
  V  V44  1  0.87502300  0.35951163  0.45802597  1
  V  V45  1  0.73936921  0.58496493  0.23059600  1
  V  V46  1  -0.02376448  0.27222297  0.22557629  1
  V  V47  1  0.00444841  0.89719549  0.93206659  1
  V  V48  1  0.25930935  -0.03194565  0.74746800  1
  V  V49  1  0.00682803  0.54993418  0.01413460  1
  V  V50  1  0.14852777  0.14077459  0.02635797  1
  Zn  Zn51  1  0.51668166  0.66381521  0.87561547  1
  Zn  Zn52  1  0.37587392  0.23350041  0.16940584  1
  Zn  Zn53  1  0.35592344  0.12457121  0.50040677  1
  Zn  Zn54  1  0.30427193  0.09193518  0.10890647  1
  Zn  Zn55  1  0.83163200  0.52334522  0.54926412  1
  Zn  Zn56  1  0.35677743  0.81317987  0.76236517  1
  Zn  Zn57  1  0.56775628  0.81357984  0.04093031  1
  Zn  Zn58  1  0.95914596  0.19522207  0.93227003  1
  Zn  Zn59  1  0.80095782  0.31996689  0.88615929  1
  Zn  Zn60  1  0.50840501  0.07058966  0.84529647  1
  Zn  Zn61  1  0.84870393  0.01321616  0.55207826  1
  Zn  Zn62  1  0.18610578  0.21830118  0.20487553  1
  Zn  Zn63  1  0.94970471  0.69522534  0.47438798  1
  Zn  Zn64  1  0.98992181  0.89930192  0.74961225  1
  Zn  Zn65  1  0.81197902  0.62102185  0.05541687  1
  Zn  Zn66  1  0.26226915  0.52440329  0.45091190  1
  Zn  Zn67  1  0.71066672  0.63321360  0.67411327  1
  Zn  Zn68  1  0.35690070  0.53931211  0.08029263  1
  Zn  Zn69  1  0.85831600  0.80432694  0.84939269  1
  Zn  Zn70  1  0.70909684  0.93029381  0.44976147  1
  Zn  Zn71  1  0.67016490  0.43607829  0.96679475  1
  Zn  Zn72  1  0.42030781  0.68336883  0.37513175  1
  Zn  Zn73  1  0.16258509  0.09328019  0.68876521  1
  Zn  Zn74  1  0.18717265  0.97501128  0.92967082  1
  Zn  Zn75  1  0.98987813  0.48651167  0.21023810  1
  Zn  Zn76  1  0.98045643  0.20666269  0.42896344  1
  Zn  Zn77  1  0.02503637  0.54354496  0.82891379  1
  Zn  Zn78  1  0.01686751  0.81910584  0.58926482  1
  Zn  Zn79  1  0.47441685  0.95176384  0.73323540  1
  Zn  Zn80  1  0.09394627  0.09300985  0.22072343  1
  Zn  Zn81  1  0.17719912  0.61087248  0.74766462  1
  Zn  Zn82  1  0.06290856  0.83867803  0.10659850  1
  Zn  Zn83  1  0.54979258  0.55480569  0.73313904  1
  Zn  Zn84  1  0.69966235  0.95452462  0.94894557  1
  Zn  Zn85  1  0.76777831  1.06299637  0.11829578  1
  Zn  Zn86  1  0.95291606  0.73050063  0.99946831  1
  Zn  Zn87  1  0.81563101  0.27668943  0.30794277  1
  Zn  Zn88  1  0.60150285  0.29423859  0.62611268  1
  Zn  Zn89  1  0.12259423  0.50038270  0.34386048  1
  Zn  Zn90  1  0.77851125  0.77159516  0.30650803  1
  Zn  Zn91  1  0.45062580  0.40107945  0.22237453  1
  Zn  Zn92  1  0.21447539  0.65062882  0.14177218  1
  Zn  Zn93  1  0.32318104  0.26510541  0.76384073  1
  Zn  Zn94  1  0.24612359  1.10849711  0.34753544  1
  Zn  Zn95  1  0.56983526  0.59697204  0.27965027  1
  Zn  Zn96  1  0.30242065  0.78665144  0.24335593  1
  Zn  Zn97  1  0.57747639  0.09656797  0.34469891  1
  Zn  Zn98  1  0.62742835  0.78163877  0.58764122  1
  Zn  Zn99  1  0.55827507  0.15838779  0.51150373  1
  Zn  Zn100  1  0.59589763  0.25383188  0.89414941  1
  Zn  Zn101  1  0.43335150  0.91542049  0.17369778  1
  O  O102  1  0.13280202  0.15401370  0.12213169  1
  O  O103  1  0.04649821  0.08263000  0.69386298  1
  O  O104  1  0.10504079  0.66540124  0.14180580  1
  O  O105  1  0.08354261  0.55754289  0.66543883  1
  O  O106  1  0.61586223  0.10436900  0.12724572  1
  O  O107  1  0.64199234  0.08071732  0.58704531  1
  O  O108  1  0.59153749  0.61870542  0.11086203  1
  O  O109  1  0.63181928  0.55788573  0.66108201  1
  O  O110  1  0.40494934  0.32472948  0.47841503  1
  O  O111  1  0.38300696  0.24733738  0.94851550  1
  O  O112  1  0.30849598  0.87045887  0.40403011  1
  O  O113  1  0.37982045  0.84252157  0.86797669  1
  O  O114  1  0.84978721  0.35980431  0.36193760  1
  O  O115  1  0.86130389  0.41531094  0.90975260  1
  O  O116  1  0.85906019  0.83067313  0.37391325  1
  O  O117  1  0.94579759  0.87709742  0.84928283  1
  O  O118  1  0.24462924  -0.00174215  0.33459653  1
  O  O119  1  0.24469917  -0.02185795  0.84002122  1
  O  O120  1  0.24486105  0.50384692  0.34143735  1
  O  O121  1  0.23675183  0.62546732  0.98556332  1
  O  O122  1  0.77931248  0.00745491  0.41044656  1
  O  O123  1  0.76974060  0.02126470  0.90089744  1
  O  O124  1  0.66680131  0.32453363  0.32842345  1
  O  O125  1  0.74308325  0.51162206  0.91974503  1
  O  O126  1  0.30191730  0.46839287  0.14644677  1
  O  O127  1  0.19334908  0.43657004  0.56044707  1
  O  O128  1  0.26870187  0.98839456  0.12425577  1
  O  O129  1  0.13346899  1.01545303  0.51988975  1
  O  O130  1  0.77537378  0.57528429  0.14506377  1
  O  O131  1  0.75923943  0.47754934  0.61449482  1
  O  O132  1  0.71433690  0.97028229  0.14220731  1
  O  O133  1  0.74919075  0.97319347  0.57349615  1
  O  O134  1  -0.02713116  0.37845343  0.24301098  1
  O  O135  1  -0.01780774  0.43046655  0.76227875  1
  O  O136  1  -0.02654376  1.02692230  0.28516509  1
  O  O137  1  0.09047455  0.85150934  0.76284718  1
  O  O138  1  0.48133319  0.33342627  0.30391284  1
  O  O139  1  0.42195458  0.31283985  0.77755652  1
  O  O140  1  0.50382439  0.84303016  0.21953091  1
  O  O141  1  0.46946615  0.84571154  0.73191851  1
  O  O142  1  0.51060473  0.08596296  0.25031575  1
  O  O143  1  0.47186900  0.06184373  0.73840424  1
  O  O144  1  0.51807265  0.68316997  0.22895754  1
  O  O145  1  0.54073373  0.66382961  0.76706096  1
  O  O146  1  1.00951276  0.17438323  0.21829107  1
  O  O147  1  0.91776739  0.14841152  0.74508289  1
  O  O148  1  0.99183474  0.63394688  0.24026347  1
  O  O149  1  0.95777915  0.59409249  0.74818089  1
  O  O150  1  0.39578002  0.31407991  -0.06258027  1
  O  O151  1  0.37614904  0.31808635  0.53920150  1
  O  O152  1  0.33239353  0.74979971  0.00136369  1
  O  O153  1  0.44968030  0.88086442  0.51924389  1
  O  O154  1  0.99926584  0.35615017  -0.02378792  1
  O  O155  1  0.91036120  0.26933354  0.48070257  1
  O  O156  1  0.86063030  0.77646922  -0.04352123  1
  O  O157  1  0.84727646  0.73771408  0.51177062  1
  O  O158  1  0.07960254  0.17129943  0.46559298  1
  O  O159  1  0.11612876  0.33308870  0.85387812  1
  O  O160  1  0.15814684  0.79918265  0.44588654  1
  O  O161  1  0.17440703  0.76114845  0.94678754  1
  O  O162  1  0.62242699  0.22975345  0.54934945  1
  O  O163  1  0.61032560  0.21135285  0.99301413  1
  O  O164  1  0.63476395  0.73760936  0.48911899  1
  O  O165  1  0.64882483  0.77336121  0.96419456  1
  O  O166  1  0.51690626  0.22351205  0.17381229  1
  O  O167  1  0.51336089  0.23780652  0.66838251  1
  O  O168  1  0.48271010  0.74896014  0.08212891  1
  O  O169  1  0.53716310  0.74859532  0.63617397  1
  O  O170  1  0.98896699  0.27773842  0.12765957  1
  O  O171  1  0.95486547  0.16778037  0.61954290  1
  O  O172  1  0.98749157  0.76659251  0.14993423  1
  O  O173  1  0.99331705  0.69658565  0.62564328  1
  O  O174  1  -0.00523934  0.27604593  0.34020331  1
  O  O175  1  0.03999292  0.20110026  0.85478983  1
  O  O176  1  0.05187062  0.77209439  0.32921858  1
  O  O177  1  0.02111742  0.82068673  0.99483949  1
  O  O178  1  0.55969848  0.20439739  0.35011059  1
  O  O179  1  0.51822214  0.18074060  0.83835635  1
  O  O180  1  0.51432325  0.73923258  0.38402353  1
  O  O181  1  0.53042621  0.78402926  0.87108113  1
  O  O182  1  0.25099188  0.13189156  0.45795110  1
  O  O183  1  0.24835618  0.14982452  1.03160874  1
  O  O184  1  0.26213492  0.63740238  0.42215363  1
  O  O185  1  0.24193404  0.58369963  1.05777209  1
  O  O186  1  0.79614241  0.10355148  0.50099180  1
  O  O187  1  0.72850203  0.10825053  1.02259107  1
  O  O188  1  0.76578128  0.61292154  0.50834971  1
  O  O189  1  0.76215825  0.65870779  0.95612695  1
  O  O190  1  0.29393723  0.36108319  0.02637874  1
  O  O191  1  0.23317021  0.32777669  0.46501531  1
  O  O192  1  0.25756079  0.91653730  -0.00384176  1
  O  O193  1  0.31846394  0.81580091  0.44537183  1
  O  O194  1  0.74239851  0.34708474  -0.01357571  1
  O  O195  1  0.80170163  0.37310365  0.51206064  1
  O  O196  1  0.75216066  0.87498799  0.00856188  1
  O  O197  1  0.76315020  0.84681439  0.48860519  1
  O  O198  1  0.10510990  0.47276172  0.22603923  1
  O  O199  1  0.12870803  0.54668941  0.81331763  1
  O  O200  1  0.14497374  0.99621100  0.21716389  1
  O  O201  1  0.17578995  0.98275619  0.69337772  1
  O  O202  1  0.64353054  0.54022549  0.22295872  1
  O  O203  1  0.60436143  0.47378773  0.79107205  1
  O  O204  1  0.61564044  0.98326188  0.31572518  1
  O  O205  1  0.69762434  0.99700299  0.69268487  1
  O  O206  1  0.39528787  -0.01506600  0.24732765  1
  O  O207  1  0.35784685  -0.02766755  0.71155015  1
  O  O208  1  0.38294640  0.47584065  0.27512328  1
  O  O209  1  0.43943437  0.55654167  0.71278339  1
  O  O210  1  0.83219656  0.09483696  0.20134895  1
  O  O211  1  0.80063298  -0.11472525  0.75763665  1
  O  O212  1  0.80932395  0.54877702  0.30316138  1
  O  O213  1  0.94045397  0.38189808  0.78885003  1
  O  O214  1  0.09669707  0.39445600  0.35451187  1
  O  O215  1  0.08015311  0.27225050  0.74179691  1
  O  O216  1  0.14933466  0.86649537  0.43523159  1
  O  O217  1  0.08935945  0.92726960  0.90191096  1
  O  O218  1  0.47450352  0.57387546  0.34342477  1
  O  O219  1  0.61627587  0.36742896  0.89915527  1
  O  O220  1  0.63950576  0.92829647  0.35659114  1
  O  O221  1  0.63844514  0.90310672  0.86807408  1
  O  O222  1  0.40871844  0.12410199  0.14564432  1
  O  O223  1  0.36804813  0.09250715  0.60584955  1
  O  O224  1  0.39501889  0.64411324  0.09761276  1
  O  O225  1  0.36291369  0.71586233  0.55622106  1
  O  O226  1  0.89834054  0.16653250  0.08528339  1
  O  O227  1  0.84403130  0.06506934  0.65655172  1
  O  O228  1  0.90742061  0.67608476  0.09254400  1
  O  O229  1  0.82619343  0.61947402  0.67421842  1
  O  O230  1  0.26637888  0.26373596  0.14858594  1
  O  O231  1  0.16941240  0.13896010  0.59193749  1
  O  O232  1  0.28936898  0.73239654  0.14663342  1
  O  O233  1  0.29337581  0.71238068  0.56653493  1
  O  O234  1  0.79377587  0.36048957  0.05329344  1
  O  O235  1  0.85882064  0.32386824  0.66034049  1
  O  O236  1  0.77988604  0.73967704  0.07592306  1
  O  O237  1  0.72018435  0.71859316  0.60421188  1
  O  O238  1  0.26928630  0.32229834  0.40814133  1
  O  O239  1  0.22852905  0.26395610  0.81039519  1
  O  O240  1  0.22429905  0.72189861  0.29245723  1
  O  O241  1  0.14080428  0.73200924  0.89371006  1
  O  O242  1  0.78089291  0.20498949  0.38913548  1
  O  O243  1  0.73203975  0.20850077  0.89642258  1
  O  O244  1  0.73477477  0.72659233  0.39884741  1
  O  O245  1  0.74411430  0.79118886  0.86831116  1
  O  O246  1  0.03551276  0.17980770  0.01398619  1
  O  O247  1  -0.04639403  0.03688613  0.58706875  1
  O  O248  1  0.01950946  0.64403151  -0.00515731  1
  O  O249  1  0.01591905  0.65358317  0.56175129  1
  O  O250  1  0.50583699  0.11526280  0.03965884  1
  O  O251  1  0.45280694  0.16570616  0.48706109  1
  O  O252  1  0.50658631  0.64387114  -0.02013938  1
  O  O253  1  0.47023108  0.59890927  0.46525929  1
  O  O254  1  0.36277701  0.50960237  0.56202126  1
  O  O255  1  0.40147895  0.47443215  0.94029911  1
  O  O256  1  0.43185730  0.94564172  0.49999772  1
  O  O257  1  0.49131602  0.87622941  0.98416702  1
  O  O258  1  0.97987394  0.39384328  0.44251588  1
  O  O259  1  0.99174620  0.39603454  1.03016341  1
  O  O260  1  0.97175304  0.80155644  0.49013752  1
  O  O261  1  0.99273818  0.91808613  1.13561504  1
  O  O262  1  0.49385000  0.55179448  0.41853664  1
  O  O263  1  0.39150083  0.45536451  0.87361221  1
  O  O264  1  0.55676172  1.07688699  0.44646038  1
  O  O265  1  0.49043759  0.95762223  0.84760464  1
  O  O266  1  0.96617544  0.49113526  0.32452843  1
  O  O267  1  0.97231699  0.51741393  0.91717788  1
  O  O268  1  0.94003002  0.97252896  0.31161599  1
  O  O269  1  0.96725230  0.96977522  0.98579311  1
  O  O270  1  0.01238752  0.06868508  0.12414409  1
  O  O271  1  -0.04764863  0.00637687  0.73654929  1
  O  O272  1  -0.01066737  0.55177859  0.12053686  1
  O  O273  1  -0.06493681  0.52833213  0.60233946  1
  O  O274  1  0.49930076  -0.00672512  0.12899131  1
  O  O275  1  0.55713370  -0.01718099  0.64184158  1
  O  O276  1  0.48073675  0.53604338  0.08731331  1
  O  O277  1  0.30559526  0.55633968  0.56867038  1
  O  O278  1  0.24405781  0.39168763  0.25292858  1
  O  O279  1  0.27788661  0.32041127  0.65877757  1
  O  O280  1  0.26282355  0.88775372  0.23462566  1
  O  O281  1  0.25617884  0.85876723  0.73296503  1
  O  O282  1  0.70132769  0.29460216  0.27652739  1
  O  O283  1  0.73384021  0.36644558  0.80763427  1
  O  O284  1  0.73750459  0.85455193  0.24176824  1
  O  O285  1  0.81097305  0.86150047  0.69417355  1
  O  O286  1  0.29163889  0.08710327  0.22433442  1
  O  O287  1  0.27647556  0.07950231  0.73257339  1
  O  O288  1  0.25774930  0.58620548  0.22883626  1
  O  O289  1  0.28875878  0.60676363  0.74159382  1
  O  O290  1  0.82189982  0.08919114  0.30929624  1
  O  O291  1  0.74930677  0.15667154  0.84192906  1
  O  O292  1  0.72593550  0.67424807  0.24955446  1
  O  O293  1  0.73990238  0.63838525  0.78756290  1
  O  O294  1  0.37408643  0.08594827  0.35553628  1
  O  O295  1  0.39210920  0.08853951  0.91469631  1
  O  O296  1  0.32790491  0.62220221  0.37470705  1
  O  O297  1  0.41055828  0.62267700  0.85059837  1
  O  O298  1  0.89829864  0.11967949  0.41557173  1
  O  O299  1  0.87777164  0.12068079  0.94167092  1
  O  O300  1  0.92248548  0.62638300  0.39826314  1
  O  O301  1  0.85210522  0.57670892  0.84981038  1
  O  O302  1  0.17507735  0.38464695  0.11744256  1
  O  O303  1  0.13364012  0.45752084  0.52362198  1
  O  O304  1  0.17214486  0.85499313  0.10371461  1
  O  O305  1  0.12589437  0.82006173  0.61921443  1
  O  O306  1  0.54276023  0.44270714  0.18341771  1
  O  O307  1  0.63296666  0.38178192  0.67833714  1
  O  O308  1  0.64567300  0.83414795  0.11479453  1
  O  O309  1  0.64408392  0.88581257  0.61717369  1
  O  O310  1  0.10797564  0.30101701  0.22788394  1
  O  O311  1  0.15711300  0.16072900  0.77299865  1
  O  O312  1  0.03649515  0.83886221  0.32398130  1
  O  O313  1  0.16693059  0.71873852  0.73230928  1
  O  O314  1  0.57783932  0.26293848  0.20564184  1
  O  O315  1  0.58091548  0.29514588  0.78507172  1
  O  O316  1  0.61613520  0.77681016  0.30959561  1
  O  O317  1  0.61793680  0.79040457  0.76369505  1
  O  O318  1  0.40850162  0.19934168  0.27226608  1
  O  O319  1  0.38693715  0.17923804  0.73815703  1
  O  O320  1  0.40194222  0.76098731  0.29375659  1
  O  O321  1  0.40589961  0.72132270  0.72786139  1
  O  O322  1  0.87909900  0.25446480  0.22944502  1
  O  O323  1  0.89514742  0.26629425  0.88540151  1
  O  O324  1  0.85989199  0.73886680  0.23235655  1
  O  O325  1  0.87780331  0.72571911  0.77896797  1
  O  O326  1  0.35945223  0.47541952  0.49405513  1
  O  O327  1  0.33986413  0.50971101  0.97079733  1
  O  O328  1  0.27652140  0.93261482  0.54678077  1
  O  O329  1  0.36716803  1.04052784  0.95740949  1
  O  O330  1  0.86552359  0.49299601  0.44672917  1
  O  O331  1  0.87516201  0.53221089  1.01663501  1
  O  O332  1  0.88716124  0.93028775  0.49732859  1
  O  O333  1  0.86487596  1.00752245  1.09426009  1
  O  O334  1  0.13873252  0.05331423  -0.00707062  1
  O  O335  1  0.12241779  0.02771208  0.44648377  1
  O  O336  1  0.09314869  0.51437331  0.01595923  1
  O  O337  1  0.14781812  0.51414814  0.46651266  1
  O  O338  1  0.60788710  0.01647804  -0.01923412  1
  O  O339  1  0.62384084  -0.03130933  0.50694644  1
  O  O340  1  0.62883644  0.47237717  0.05840274  1
  O  O341  1  0.61638820  0.45752607  0.54325863  1
  O  O342  1  0.38874903  0.34400343  0.15014911  1
  O  O343  1  0.23097991  0.28700443  0.61589303  1
  O  O344  1  0.35893975  0.85436814  0.11177837  1
  O  O345  1  0.29068745  0.86676392  0.56124811  1
  O  O346  1  0.84865949  0.31519968  0.06270838  1
  O  O347  1  0.91315530  0.35362666  0.63004804  1
  O  O348  1  0.83982924  0.85412202  0.13332591  1
  O  O349  1  0.95520753  0.87439701  0.65333855  1
  O  O350  1  0.16519653  0.15355878  0.28699308  1
  O  O351  1  0.15524068  0.20348434  0.91777866  1
  O  O352  1  0.13146818  0.60818538  0.33349847  1
  O  O353  1  0.20926233  0.59000274  0.93225863  1
  O  O354  1  0.69321910  0.11121461  0.37676562  1
  O  O355  1  0.59923448  0.07507488  0.92406518  1
  O  O356  1  0.62309136  0.62458904  0.37305830  1
  O  O357  1  0.62624108  0.61467686  0.88678165  1
