# generated using pymatgen
data_V51Zn51O256
_symmetry_space_group_name_H-M   'P 1'
_cell_length_a   17.06584394
_cell_length_b   17.17730113
_cell_length_c   17.12089992
_cell_angle_alpha   89.88443736
_cell_angle_beta   89.26673588
_cell_angle_gamma   89.56484144
_symmetry_Int_Tables_number   1
_chemical_formula_structural   V51Zn51O256
_chemical_formula_sum   'V51 Zn51 O256'
_cell_volume   5018.34361528
_cell_formula_units_Z   1
loop_
 _symmetry_equiv_pos_site_id
 _symmetry_equiv_pos_as_xyz
  1  'x, y, z'
loop_
 _atom_site_type_symbol
 _atom_site_label
 _atom_site_symmetry_multiplicity
 _atom_site_fract_x
 _atom_site_fract_y
 _atom_site_fract_z
 _atom_site_occupancy
  V  V0  1  0.36334455  0.24875987  0.63984433  1
  V  V1  1  0.49952387  0.74061806  0.75669947  1
  V  V2  1  0.02065565  0.21124501  0.76677943  1
  V  V3  1  0.22970150  0.38263578  0.60942210  1
  V  V4  1  0.89202618  0.23237345  0.65340484  1
  V  V5  1  0.75711047  -0.00888930  0.27968434  1
  V  V6  1  0.23420014  0.13093749  0.36848625  1
  V  V7  1  -0.01425791  0.41892756  0.86197045  1
  V  V8  1  0.57100095  0.01307143  0.62145599  1
  V  V9  1  0.23232093  0.49286230  0.76375198  1
  V  V10  1  0.87196984  0.64135817  0.27295134  1
  V  V11  1  0.88924344  0.37605419  0.03168794  1
  V  V12  1  0.26432539  0.58560744  0.34505755  1
  V  V13  1  0.39405278  0.60380747  0.19900113  1
  V  V14  1  0.12060620  0.21380072  0.90483693  1
  V  V15  1  0.27431208  0.26332677  -0.00996445  1
  V  V16  1  0.74696218  0.39939306  0.14642021  1
  V  V17  1  0.11863447  0.25711789  0.33155852  1
  V  V18  1  0.11311827  -0.01689883  0.14583089  1
  V  V19  1  0.47922633  0.46165775  0.46277430  1
  V  V20  1  0.51069909  0.74089137  0.18750768  1
  V  V21  1  0.72599063  0.79249372  0.51149886  1
  V  V22  1  0.24418847  0.70967540  -0.02577488  1
  V  V23  1  0.47410026  0.63973604  0.60238316  1
  V  V24  1  -0.03138825  -0.07225778  0.01703095  1
  V  V25  1  0.76961826  0.23143443  0.06752240  1
  V  V26  1  0.14181121  0.63334647  0.48132170  1
  V  V27  1  0.24265254  0.25085200  0.49577493  1
  V  V28  1  0.51552003  0.50461726  -0.04476623  1
  V  V29  1  0.51120506  0.89089348  0.85846337  1
  V  V30  1  0.70065419  0.23045087  0.45280465  1
  V  V31  1  0.90168027  0.39045466  0.54035548  1
  V  V32  1  0.37384527  0.87217134  0.48038212  1
  V  V33  1  0.03086824  0.49777187  0.50524641  1
  V  V34  1  -0.01737436  0.73947266  0.72715403  1
  V  V35  1  0.34176381  0.85666091  -0.01506027  1
  V  V36  1  0.61134285  0.50259210  0.59537726  1
  V  V37  1  0.76482340  0.10990909  0.88367490  1
  V  V38  1  0.11874191  0.49418646  0.14052372  1
  V  V39  1  0.75572891  0.51043274  0.28468664  1
  V  V40  1  0.33994823  0.77591521  0.64898332  1
  V  V41  1  0.35049757  0.61947007  0.74874534  1
  V  V42  1  0.10286249  0.12082853  0.49920073  1
  V  V43  1  0.64995058  0.25347583  0.85571860  1
  V  V44  1  0.24819348  0.38173028  0.12262882  1
  V  V45  1  0.38944502  0.11473390  0.23783574  1
  V  V46  1  0.00404616  0.64227548  0.15452545  1
  V  V47  1  0.81568970  -0.01415994  0.75176342  1
  V  V48  1  0.12763850  0.85105764  0.27641654  1
  V  V49  1  -0.00200417  0.37529917  0.35290684  1
  V  V50  1  -0.00149070  0.53430159  0.00310268  1
  Zn  Zn51  1  0.59951276  0.29001386  0.10693532  1
  Zn  Zn52  1  0.55097598  0.31117405  0.56639733  1
  Zn  Zn53  1  0.17890026  0.67275373  0.68094763  1
  Zn  Zn54  1  0.16198106  0.42993871  0.94052838  1
  Zn  Zn55  1  0.47853830  0.29729399  0.97620106  1
  Zn  Zn56  1  0.66149422  0.63521647  0.21316229  1
  Zn  Zn57  1  0.70504363  0.41462060  0.95053663  1
  Zn  Zn58  1  0.19845765  0.95399777  0.43186379  1
  Zn  Zn59  1  0.57838369  0.80432007  0.00770428  1
  Zn  Zn60  1  0.15676295  0.91728971  0.93424224  1
  Zn  Zn61  1  0.93242049  0.45986563  0.19526609  1
  Zn  Zn62  1  0.95745810  0.72872593  0.94642440  1
  Zn  Zn63  1  0.30653160  0.56084527  0.55143473  1
  Zn  Zn64  1  0.80701290  0.81233992  0.78530403  1
  Zn  Zn65  1  0.91224708  0.23380762  0.44220790  1
  Zn  Zn66  1  0.05703273  0.29567886  0.57074201  1
  Zn  Zn67  1  0.31292789  0.52542682  0.03745768  1
  Zn  Zn68  1  0.06401705  0.56083312  0.32082753  1
  Zn  Zn69  1  0.65911246  0.66187234  0.66488132  1
  Zn  Zn70  1  0.70245594  0.92179817  0.90328523  1
  Zn  Zn71  1  0.53330706  0.83232373  0.58636409  1
  Zn  Zn72  1  0.27672354  0.07273518  0.07131646  1
  Zn  Zn73  1  0.78717734  0.02250380  0.05458273  1
  Zn  Zn74  1  0.92492306  0.64455390  0.47303258  1
  Zn  Zn75  1  0.44509562  0.41792865  0.13061414  1
  Zn  Zn76  1  0.78897233  0.37957375  0.39199320  1
  Zn  Zn77  1  0.07929565  0.81598002  0.07909752  1
  Zn  Zn78  1  0.68515767  0.23390626  0.65479527  1
  Zn  Zn79  1  0.58600278  0.10786097  0.32681317  1
  Zn  Zn80  1  0.20617371  0.66100470  0.17981612  1
  Zn  Zn81  1  0.81665409  0.82259581  0.32031966  1
  Zn  Zn82  1  0.37170768  0.79450842  0.28246771  1
  Zn  Zn83  1  0.83043856  0.56589803  0.08581761  1
  Zn  Zn84  1  0.05138258  0.79643070  0.52728043  1
  Zn  Zn85  1  0.07466917  0.03661496  0.33607814  1
  Zn  Zn86  1  0.53518779  0.52440536  0.27285215  1
  Zn  Zn87  1  0.62268057  0.95448686  0.43678629  1
  Zn  Zn88  1  0.39898525  0.45417310  0.63237794  1
  Zn  Zn89  1  1.00806363  0.94355959  0.82159346  1
  Zn  Zn90  1  1.06275227  0.44557535  0.68771887  1
  Zn  Zn91  1  0.36651785  0.04232292  0.60309323  1
  Zn  Zn92  1  0.07495869  0.29737067  0.08785480  1
  Zn  Zn93  1  0.58308806  0.08074460  0.82227822  1
  Zn  Zn94  1  0.53387877  0.53970843  0.74284093  1
  Zn  Zn95  1  0.93414373  0.18758878  0.96037117  1
  Zn  Zn96  1  0.18844835  0.42567917  0.41287115  1
  Zn  Zn97  1  0.23377461  0.28545140  0.77985250  1
  Zn  Zn98  1  0.42382131  0.67990902  0.92135740  1
  Zn  Zn99  1  0.79974681  0.52346295  0.50219121  1
  Zn  Zn100  1  0.34826719  0.69369917  0.46766745  1
  Zn  Zn101  1  0.84688795  0.28675701  0.84834956  1
  O  O102  1  0.09255915  0.07671764  0.16041648  1
  O  O103  1  0.09884349  0.09469817  0.58905048  1
  O  O104  1  0.10990683  0.61259149  0.14525546  1
  O  O105  1  0.15471631  0.62812296  0.57936634  1
  O  O106  1  0.60563363  0.08249211  0.08287812  1
  O  O107  1  0.62970210  0.10684288  0.65125227  1
  O  O108  1  0.69642552  0.63278721  0.09433227  1
  O  O109  1  0.57585890  0.64076933  0.58914244  1
  O  O110  1  0.39032948  0.34057706  0.34970012  1
  O  O111  1  0.42869113  0.36133274  0.80471887  1
  O  O112  1  0.36684214  0.84788343  0.38496582  1
  O  O113  1  0.42812594  0.88068982  0.91916775  1
  O  O114  1  0.90155121  0.34812723  0.39539841  1
  O  O115  1  0.89651895  0.37361904  0.90121014  1
  O  O116  1  0.92614343  0.81539683  0.40769856  1
  O  O117  1  0.84110538  0.80553915  0.90283017  1
  O  O118  1  0.25254715  0.03414213  0.36736495  1
  O  O119  1  0.25256895  -0.00326422  0.92219507  1
  O  O120  1  0.26851410  0.48918273  0.36015023  1
  O  O121  1  0.22998088  0.48261242  0.86175660  1
  O  O122  1  0.71799421  -0.00541801  0.38022801  1
  O  O123  1  0.73744977  0.02340424  0.94237173  1
  O  O124  1  0.76336704  0.49979834  0.38471657  1
  O  O125  1  0.76525807  0.51131591  0.89639533  1
  O  O126  1  0.21664534  0.50445971  0.10785416  1
  O  O127  1  0.23982793  0.48095137  0.60075388  1
  O  O128  1  0.21161588  0.99641587  0.11335210  1
  O  O129  1  0.21910663  1.05366159  0.68213774  1
  O  O130  1  0.75643535  0.50228044  0.14011935  1
  O  O131  1  0.70156391  0.52135661  0.55847211  1
  O  O132  1  0.76905246  0.99246679  0.17836985  1
  O  O133  1  0.80958673  0.97739179  0.65776792  1
  O  O134  1  -0.01571174  0.37978369  0.25631506  1
  O  O135  1  -0.01726383  0.42218295  0.76357686  1
  O  O136  1  0.04612047  0.80469434  0.29252441  1
  O  O137  1  0.00817660  0.83866946  0.76418890  1
  O  O138  1  0.40159832  0.36334874  0.28295732  1
  O  O139  1  0.48765029  0.37812229  0.76592935  1
  O  O140  1  0.47983717  0.81682509  0.24665833  1
  O  O141  1  0.49489692  0.85152631  0.76616499  1
  O  O142  1  0.49392207  0.11333688  0.25770782  1
  O  O143  1  0.46746997  0.14664859  0.83195151  1
  O  O144  1  0.50408680  0.62858677  0.21219231  1
  O  O145  1  0.47045971  0.63545773  0.72976802  1
  O  O146  1  0.97826568  0.08873693  0.26505072  1
  O  O147  1  1.02270164  0.11727180  0.75844938  1
  O  O148  1  0.99230473  0.62831758  0.25842040  1
  O  O149  1  0.93573043  0.65376996  0.70719038  1
  O  O150  1  0.36942663  0.28034448  -0.03469085  1
  O  O151  1  0.33690976  0.24568929  0.47852771  1
  O  O152  1  0.34998902  0.74615897  -0.02540645  1
  O  O153  1  0.34216634  0.78415666  0.53176252  1
  O  O154  1  0.85997354  0.26708348  0.01385570  1
  O  O155  1  0.91879297  0.27952519  0.55063763  1
  O  O156  1  0.86608149  0.81102798  0.11628497  1
  O  O157  1  0.81551863  0.82021319  0.54432308  1
  O  O158  1  0.11139519  0.22840457  0.49591956  1
  O  O159  1  0.12078334  0.24090523  1.00349007  1
  O  O160  1  0.12355758  0.73123028  0.47028189  1
  O  O161  1  0.15622815  0.72692202  1.04197651  1
  O  O162  1  0.50044605  0.16226802  0.47756813  1
  O  O163  1  0.67550733  0.24707576  1.03271600  1
  O  O164  1  0.61975600  0.78725733  0.51378400  1
  O  O165  1  0.66073569  0.71475012  0.99538717  1
  O  O166  1  0.49597893  0.32590422  0.08530307  1
  O  O167  1  0.46275731  0.26930667  0.62931665  1
  O  O168  1  0.51389613  0.76843455  0.08835559  1
  O  O169  1  0.46990872  0.74883831  0.63405245  1
  O  O170  1  1.00103525  0.23094111  0.15593747  1
  O  O171  1  1.01122061  0.24907936  0.66626261  1
  O  O172  1  1.01707138  0.73722762  0.13904726  1
  O  O173  1  1.00918888  0.76646677  0.62884449  1
  O  O174  1  0.01498043  0.25818037  0.36081203  1
  O  O175  1  0.01012812  0.22181944  0.88314361  1
  O  O176  1  -0.04666220  0.76633336  0.45870725  1
  O  O177  1  -0.03124630  0.72241108  0.83084619  1
  O  O178  1  0.54968703  0.27220607  0.32988455  1
  O  O179  1  0.55990592  0.26201237  0.90498348  1
  O  O180  1  0.52071667  0.71072196  0.37818985  1
  O  O181  1  0.49984966  0.73328847  0.85867819  1
  O  O182  1  0.22116210  0.13578308  0.47666402  1
  O  O183  1  0.27629972  0.16174299  1.01034059  1
  O  O184  1  0.25791483  0.61716491  0.46191312  1
  O  O185  1  0.26322095  0.61380298  0.97919915  1
  O  O186  1  0.64838847  0.24548929  0.54835889  1
  O  O187  1  0.78357001  0.13227373  1.07924349  1
  O  O188  1  0.74446930  0.69673295  0.48087544  1
  O  O189  1  0.81122135  0.65090942  0.99136312  1
  O  O190  1  0.23344871  0.36839428  -0.00222490  1
  O  O191  1  0.22218867  0.35893543  0.49942352  1
  O  O192  1  0.24067801  0.84433339  -0.03422430  1
  O  O193  1  0.27827655  0.93155180  0.51238000  1
  O  O194  1  0.76998765  0.38897030  0.03399831  1
  O  O195  1  0.80395898  0.40079743  0.51062031  1
  O  O196  1  0.78157388  0.82405996  -0.05237911  1
  O  O197  1  0.70136078  0.89774801  0.50818708  1
  O  O198  1  0.11630712  0.49185061  0.23891285  1
  O  O199  1  0.13740422  0.51188367  0.73872241  1
  O  O200  1  0.10266548  0.96295823  0.25787465  1
  O  O201  1  0.17287158  1.03751690  0.73745632  1
  O  O202  1  0.64923208  0.53122095  0.26370363  1
  O  O203  1  0.63475566  0.55112202  0.69397269  1
  O  O204  1  0.66550700  1.03913786  0.26583559  1
  O  O205  1  0.62435592  1.05327327  0.71434780  1
  O  O206  1  0.39881288  0.01443750  0.26002647  1
  O  O207  1  0.34751983  0.05119120  0.79721419  1
  O  O208  1  0.43893197  0.50046146  0.20900127  1
  O  O209  1  0.34687700  0.51126600  0.72845738  1
  O  O210  1  0.84490622  -0.06730419  0.31394294  1
  O  O211  1  0.91125616  -0.02792397  0.77846267  1
  O  O212  1  0.86352793  0.52216754  0.25968899  1
  O  O213  1  0.77143398  0.48544652  0.71809862  1
  O  O214  1  0.11243362  0.36170126  0.35990128  1
  O  O215  1  0.07339849  0.37971590  0.88855619  1
  O  O216  1  0.16169720  0.87237171  0.37105723  1
  O  O217  1  0.11391751  0.92275215  0.83447303  1
  O  O218  1  0.56907111  0.29126926  0.26063279  1
  O  O219  1  0.68687810  0.34912490  0.86576162  1
  O  O220  1  0.59189469  0.86811848  0.38225969  1
  O  O221  1  0.59934475  0.86435313  0.91435474  1
  O  O222  1  0.37477519  0.07570341  0.14125836  1
  O  O223  1  0.35701628  0.15302022  0.61072157  1
  O  O224  1  0.37362291  0.59719834  0.10343162  1
  O  O225  1  0.35620590  0.63624228  0.62819925  1
  O  O226  1  0.95799210  0.17778332  0.12281357  1
  O  O227  1  0.89150732  0.14032051  0.63447785  1
  O  O228  1  0.89616273  0.63271508  0.14715326  1
  O  O229  1  0.84843254  0.61746658  0.54730251  1
  O  O230  1  0.26497432  0.28098159  0.10059798  1
  O  O231  1  0.24428304  0.25751647  0.60150210  1
  O  O232  1  0.22735921  0.73136478  0.08705812  1
  O  O233  1  0.23997788  0.76341571  0.65646236  1
  O  O234  1  0.76770181  0.27932263  0.15534350  1
  O  O235  1  0.79413667  0.26075553  0.65977021  1
  O  O236  1  0.67895537  0.70591405  0.07058651  1
  O  O237  1  0.70969725  0.75773743  0.61061306  1
  O  O238  1  0.22187321  0.24638061  0.37548332  1
  O  O239  1  0.22508639  0.25674356  0.89148677  1
  O  O240  1  0.34241813  0.68408416  0.35281044  1
  O  O241  1  0.23119949  0.72890583  0.86179151  1
  O  O242  1  0.69742343  0.31517406  0.40075261  1
  O  O243  1  0.76034031  0.22136864  0.87735312  1
  O  O244  1  0.74441233  0.80397426  0.40722790  1
  O  O245  1  0.75283645  0.70876025  0.79141526  1
  O  O246  1  -0.01331413  0.14511008  0.05656750  1
  O  O247  1  -0.00859016  0.13731673  0.46506870  1
  O  O248  1  -0.00521315  0.63510955  0.01063967  1
  O  O249  1  0.03210240  0.60838546  0.46994271  1
  O  O250  1  0.55900954  0.12983627  0.05490379  1
  O  O251  1  0.45308606  0.10919168  0.48206048  1
  O  O252  1  0.50853548  0.60768483  -0.03114224  1
  O  O253  1  0.44626147  0.64725208  0.50717731  1
  O  O254  1  0.49819721  0.36514005  0.48051078  1
  O  O255  1  0.50585562  0.40531950  0.93185507  1
  O  O256  1  0.47007073  0.87861141  0.50449584  1
  O  O257  1  0.50681700  0.96575158  1.05710000  1
  O  O258  1  1.01609419  0.38852674  0.50594074  1
  O  O259  1  0.98610802  0.35631455  1.03436718  1
  O  O260  1  0.99347415  0.90916883  0.52731401  1
  O  O261  1  0.98292626  0.82193657  1.00142167  1
  O  O262  1  0.48395542  0.48239952  0.36480921  1
  O  O263  1  0.52505491  0.52327029  0.85293225  1
  O  O264  1  0.54956447  1.01443481  0.37472333  1
  O  O265  1  0.52708385  0.98725513  0.84290675  1
  O  O266  1  1.00891721  0.47550537  0.37507515  1
  O  O267  1  0.98721329  0.51732668  0.89826522  1
  O  O268  1  0.96533591  1.01227886  0.41110767  1
  O  O269  1  0.98413628  0.97468301  0.93101822  1
  O  O270  1  0.00424564  -0.03512065  0.11061996  1
  O  O271  1  0.13066059  -0.08599687  0.63042393  1
  O  O272  1  0.00520990  0.51843532  0.12340681  1
  O  O273  1  0.03377093  0.51467754  0.60168640  1
  O  O274  1  0.47479826  0.01138427  0.01205791  1
  O  O275  1  0.47343230  0.02982721  0.63235375  1
  O  O276  1  0.51669349  0.49028245  0.05669733  1
  O  O277  1  0.48855378  0.52494263  0.63640700  1
  O  O278  1  0.25759823  0.38180975  0.21771262  1
  O  O279  1  0.23775392  0.39053616  0.72979105  1
  O  O280  1  0.25933826  0.81429410  0.24381183  1
  O  O281  1  0.27688236  0.99827422  0.66730834  1
  O  O282  1  0.76002677  0.40740651  0.25721537  1
  O  O283  1  0.75826592  0.41707018  0.73100693  1
  O  O284  1  0.72894119  0.88674752  0.26660353  1
  O  O285  1  0.75405817  0.90853714  0.79773616  1
  O  O286  1  0.28473659  0.13036460  0.24347811  1
  O  O287  1  0.30422558  0.10081292  0.82575597  1
  O  O288  1  0.28122220  0.59806410  0.23730876  1
  O  O289  1  0.24380199  0.61195393  0.74883031  1
  O  O290  1  0.82131546  0.06503958  0.29047582  1
  O  O291  1  0.77595882  0.07989885  0.78616260  1
  O  O292  1  0.76445444  0.62205345  0.26557299  1
  O  O293  1  0.75758253  0.65858196  0.73549918  1
  O  O294  1  0.37134277  0.15091924  0.33383362  1
  O  O295  1  0.43781703  0.14636991  0.89862101  1
  O  O296  1  0.37922801  0.60838725  0.33965626  1
  O  O297  1  0.36640329  0.61732829  0.84697131  1
  O  O298  1  0.79871233  0.20294516  0.45420673  1
  O  O299  1  0.85773127  0.11690619  0.92004790  1
  O  O300  1  0.88339302  0.63303332  0.37060149  1
  O  O301  1  0.85655266  0.65585831  0.93166784  1
  O  O302  1  0.12923612  0.38866932  0.12228684  1
  O  O303  1  0.12714691  0.36798419  0.62994470  1
  O  O304  1  0.13106448  0.86513068  0.16687042  1
  O  O305  1  0.13977090  0.87344656  0.57018358  1
  O  O306  1  0.64899133  0.38853170  0.14143278  1
  O  O307  1  0.60197864  0.40599562  0.61569942  1
  O  O308  1  0.65163525  0.87560950  0.08915636  1
  O  O309  1  0.58644817  0.91490675  0.64113061  1
  O  O310  1  0.12455066  0.26104062  0.23681447  1
  O  O311  1  0.12111949  0.24298753  0.78898087  1
  O  O312  1  0.20319674  0.75820591  0.25969133  1
  O  O313  1  0.07931501  0.70343499  0.72980330  1
  O  O314  1  0.60618591  0.23599777  0.21520272  1
  O  O315  1  0.63455832  0.24326054  0.75647004  1
  O  O316  1  0.60891068  0.73290331  0.21321425  1
  O  O317  1  0.59584591  0.73013127  0.73439628  1
  O  O318  1  0.41506318  0.19943570  0.18802774  1
  O  O319  1  0.33512368  0.24737464  0.73695550  1
  O  O320  1  0.39276480  0.71007615  0.20035502  1
  O  O321  1  0.36667568  0.73338311  0.74600563  1
  O  O322  1  0.94070381  0.14606455  0.28907408  1
  O  O323  1  0.90966789  0.24085079  0.76562635  1
  O  O324  1  0.85914858  0.74171799  0.26297587  1
  O  O325  1  0.88680878  0.78692779  0.71039363  1
  O  O326  1  0.39015831  0.48826268  0.51313270  1
  O  O327  1  0.41025276  0.50368138  0.95452473  1
  O  O328  1  0.34610704  0.98122963  0.50101180  1
  O  O329  1  0.31080814  0.98455957  0.96914171  1
  O  O330  1  0.91908209  0.49512489  0.49652079  1
  O  O331  1  0.89808023  0.49051043  1.01890617  1
  O  O332  1  0.93946016  1.06440967  0.45693077  1
  O  O333  1  0.87041879  0.94858849  1.03736674  1
  O  O334  1  0.09889854  -0.07495433  0.03165688  1
  O  O335  1  0.10801720  0.02651721  0.44750098  1
  O  O336  1  0.09489835  0.50094012  0.00813997  1
  O  O337  1  0.13211140  0.50658866  0.47326056  1
  O  O338  1  0.68974610  -0.07467876  0.04864605  1
  O  O339  1  0.59940603  0.02034754  0.52344494  1
  O  O340  1  0.62033220  0.49830681  -0.04180542  1
  O  O341  1  0.55938724  0.51215112  0.49978236  1
  O  O342  1  0.34205093  0.42538787  0.08753539  1
  O  O343  1  0.33876322  0.36048493  0.61729845  1
  O  O344  1  0.36022450  0.87583558  0.07500503  1
  O  O345  1  0.35739086  0.86907146  0.65895329  1
  O  O346  1  0.87196110  0.38464942  0.13288546  1
  O  O347  1  0.90107132  0.40932007  0.63379545  1
  O  O348  1  0.79726510  0.79451187  0.10712045  1
  O  O349  1  0.97632273  0.94767164  0.58690427  1
  O  O350  1  0.13333809  0.13871758  0.33699084  1
  O  O351  1  0.13678596  0.12023324  0.90494778  1
  O  O352  1  0.16257949  0.61390251  0.35245148  1
  O  O353  1  0.16245411  0.71082401  0.89469726  1
  O  O354  1  0.64723047  0.16474819  0.39725255  1
  O  O355  1  0.65239144  0.13875199  0.88202468  1
  O  O356  1  0.56574357  0.65485654  0.37958999  1
  O  O357  1  0.72547725  0.56078207  0.86093739  1
