# generated using pymatgen
data_V51Zn51O256
_symmetry_space_group_name_H-M   'P 1'
_cell_length_a   17.65497868
_cell_length_b   17.46921142
_cell_length_c   17.31205452
_cell_angle_alpha   88.72151459
_cell_angle_beta   89.28534423
_cell_angle_gamma   89.98341695
_symmetry_Int_Tables_number   1
_chemical_formula_structural   V51Zn51O256
_chemical_formula_sum   'V51 Zn51 O256'
_cell_volume   5337.61441646
_cell_formula_units_Z   1
loop_
 _symmetry_equiv_pos_site_id
 _symmetry_equiv_pos_as_xyz
  1  'x, y, z'
loop_
 _atom_site_type_symbol
 _atom_site_label
 _atom_site_symmetry_multiplicity
 _atom_site_fract_x
 _atom_site_fract_y
 _atom_site_fract_z
 _atom_site_occupancy
  V  V0  1  0.16607222  0.74311888  0.89905078  1
  V  V1  1  0.50264873  0.24139588  0.68994114  1
  V  V2  1  0.25848336  0.53625750  0.76401058  1
  V  V3  1  -0.02773190  0.01023650  -0.04275552  1
  V  V4  1  0.87421291  -0.00584889  0.36860567  1
  V  V5  1  0.72402389  0.20599956  0.40405627  1
  V  V6  1  0.67048956  0.90887133  0.74888031  1
  V  V7  1  0.74900209  0.63325963  0.35647790  1
  V  V8  1  0.16752584  0.27634062  0.85323010  1
  V  V9  1  0.51994849  0.73195503  0.26754113  1
  V  V10  1  0.74404749  0.39089235  0.08013680  1
  V  V11  1  0.22565503  0.15845059  0.38245624  1
  V  V12  1  0.24238469  0.23129898  0.01747148  1
  V  V13  1  -0.01491441  0.79649122  0.18448217  1
  V  V14  1  0.74833489  0.74503037  0.01461361  1
  V  V15  1  0.74025097  0.89565589  0.11815800  1
  V  V16  1  0.52309468  0.00191605  0.52329898  1
  V  V17  1  0.51047030  0.48451429  0.00951796  1
  V  V18  1  -0.02296816  0.38262323  0.87229197  1
  V  V19  1  0.87909970  0.17767379  0.10574639  1
  V  V20  1  0.49960875  0.86207244  0.87540796  1
  V  V21  1  0.48571249  0.47056091  0.44054787  1
  V  V22  1  0.61455373  0.38157086  0.78504427  1
  V  V23  1  0.26506021  0.47224491  0.28693555  1
  V  V24  1  0.35146654  0.35750747  0.01039597  1
  V  V25  1  0.39045283  0.78516707  0.15138424  1
  V  V26  1  0.48054199  0.62500839  0.12629453  1
  V  V27  1  -0.01764780  0.49744631  0.50632186  1
  V  V28  1  0.01303000  0.51386368  0.00450317  1
  V  V29  1  0.49603201  0.67592237  0.66181704  1
  V  V30  1  0.45456008  0.31226358  0.84535853  1
  V  V31  1  0.71318405  0.40114307  0.62389166  1
  V  V32  1  0.73955909  0.47339690  0.25828274  1
  V  V33  1  0.25733571  0.79603849  0.05596568  1
  V  V34  1  -0.03591450  0.86044840  0.88889469  1
  V  V35  1  0.52149808  -0.02902727  0.01589059  1
  V  V36  1  0.64193711  0.71882512  0.85470743  1
  V  V37  1  0.45157769  -0.06568424  0.38911769  1
  V  V38  1  0.88009626  0.58911020  0.22309706  1
  V  V39  1  0.10477807  0.00932769  0.07787080  1
  V  V40  1  0.68421690  0.03990178  0.61234916  1
  V  V41  1  0.61965885  0.62731574  0.01909596  1
  V  V42  1  0.48520906  0.22583964  0.28498470  1
  V  V43  1  0.21707091  0.64311636  0.36486152  1
  V  V44  1  0.35515116  0.52895253  0.91682403  1
  V  V45  1  0.75786241  0.22972296  -0.02563243  1
  V  V46  1  0.63373761  0.87459680  0.25660149  1
  V  V47  1  0.14471087  0.41605446  0.75160171  1
  V  V48  1  0.79743147  0.53005680  0.72412016  1
  V  V49  1  0.97669998  0.18308209  0.57042314  1
  V  V50  1  -0.02200344  0.73979383  0.76053576  1
  Zn  Zn51  1  0.80839018  0.79719974  0.81778403  1
  Zn  Zn52  1  0.04188492  0.28185937  0.02955134  1
  Zn  Zn53  1  0.91782286  0.97661925  0.14148818  1
  Zn  Zn54  1  0.77488864  0.40821076  0.90250409  1
  Zn  Zn55  1  0.02855707  0.67886322  0.30352664  1
  Zn  Zn56  1  0.18139183  0.43634523  0.96688631  1
  Zn  Zn57  1  0.68115726  0.66893519  0.65780868  1
  Zn  Zn58  1  0.66725640  0.92379239  0.95167685  1
  Zn  Zn59  1  0.93790359  0.19824340  0.91654276  1
  Zn  Zn60  1  0.69488832  0.67372086  0.18777411  1
  Zn  Zn61  1  0.81681080  0.81076535  0.28484593  1
  Zn  Zn62  1  0.84118765  0.29078609  0.27020484  1
  Zn  Zn63  1  0.15258799  0.68081530  0.73009887  1
  Zn  Zn64  1  0.61037263  0.87075479  0.44838967  1
  Zn  Zn65  1  0.52389385  0.85557243  0.62344054  1
  Zn  Zn66  1  0.18057159  0.75881516  0.21293575  1
  Zn  Zn67  1  0.19563214  0.96148308  0.36923193  1
  Zn  Zn68  1  0.34217745  0.76654587  0.33852687  1
  Zn  Zn69  1  0.58468415  0.56496775  0.29162467  1
  Zn  Zn70  1  0.68614962  0.22641138  0.66987701  1
  Zn  Zn71  1  0.95180334  0.71029704  1.00285775  1
  Zn  Zn72  1  0.17269571  0.16100025  0.18514494  1
  Zn  Zn73  1  0.21603982  0.58863069  0.57110382  1
  Zn  Zn74  1  0.90791300  0.41918846  0.15585827  1
  Zn  Zn75  1  0.03956183  0.23249235  0.75565541  1
  Zn  Zn76  1  0.99501611  0.88252343  0.67810477  1
  Zn  Zn77  1  0.43792391  0.64399209  0.43487158  1
  Zn  Zn78  1  0.05237892  0.08092405  0.42178622  1
  Zn  Zn79  1  0.38828465  0.46400289  0.13429751  1
  Zn  Zn80  1  0.11502134  0.12660762  0.93261191  1
  Zn  Zn81  1  0.88039256  0.02150784  0.58062935  1
  Zn  Zn82  1  0.55855063  0.31819479  0.09928200  1
  Zn  Zn83  1  0.69123306  0.43278596  0.43154647  1
  Zn  Zn84  1  0.07831120  0.83345781  0.04266760  1
  Zn  Zn85  1  0.53564360  0.56574640  0.83408532  1
  Zn  Zn86  1  0.97280071  0.47234613  0.71015324  1
  Zn  Zn87  1  0.33848484  0.18028161  0.89405543  1
  Zn  Zn88  1  0.45349985  0.19451809  0.50832677  1
  Zn  Zn89  1  0.36564320  0.73012374  0.94164288  1
  Zn  Zn90  1  0.78729238  0.55477698  0.06414631  1
  Zn  Zn91  1  0.59932426  0.05090487  0.33717651  1
  Zn  Zn92  1  0.48769226  0.93837427  0.21072872  1
  Zn  Zn93  1  0.46762946  1.00644289  0.72493579  1
  Zn  Zn94  1  0.90135382  0.63670449  0.42145290  1
  Zn  Zn95  1  0.18089412  0.44725934  0.44643080  1
  Zn  Zn96  1  0.34596869  0.32269853  0.39614427  1
  Zn  Zn97  1  0.07362244  0.57919410  0.85037040  1
  Zn  Zn98  1  0.66876606  0.30516877  0.23872354  1
  Zn  Zn99  1  0.33316911  0.05812240  0.49450332  1
  Zn  Zn100  1  0.78136311  0.55380724  0.54153281  1
  Zn  Zn101  1  0.57200778  0.79862085  0.07471041  1
  O  O102  1  0.08737897  -0.02900261  0.25987078  1
  O  O103  1  0.07580333  0.00022229  0.70119266  1
  O  O104  1  0.09939134  0.54135992  0.18347813  1
  O  O105  1  0.15751806  0.65948686  0.62398877  1
  O  O106  1  0.60572276  0.15527904  0.09479011  1
  O  O107  1  0.66962528  0.13570176  0.61315958  1
  O  O108  1  0.62223489  0.61813068  0.11775574  1
  O  O109  1  0.58215846  0.66892180  0.61468127  1
  O  O110  1  0.38060317  0.27335002  0.48638882  1
  O  O111  1  0.39543817  0.36599434  0.90559360  1
  O  O112  1  0.40301572  0.84930907  0.38322067  1
  O  O113  1  0.41858436  0.81256295  0.88818910  1
  O  O114  1  0.93896663  0.34512823  0.24050734  1
  O  O115  1  0.88195920  0.40053519  0.86806600  1
  O  O116  1  0.87461477  0.89148597  0.34805812  1
  O  O117  1  0.86927107  0.86947233  0.87775276  1
  O  O118  1  0.20573001  0.06974394  0.33011166  1
  O  O119  1  0.32194262  0.04540152  0.79760636  1
  O  O120  1  0.22011141  0.52693408  0.37514743  1
  O  O121  1  0.26124452  0.50688773  0.93205018  1
  O  O122  1  0.77514560  -0.01436154  0.36867711  1
  O  O123  1  0.77283202  0.09226289  0.83222922  1
  O  O124  1  0.75360630  0.48996377  0.35983601  1
  O  O125  1  0.75395496  0.53305077  0.80853722  1
  O  O126  1  0.19760449  0.43215605  0.23867860  1
  O  O127  1  0.27374121  0.54965695  0.66824653  1
  O  O128  1  0.13779053  1.06872444  0.14969753  1
  O  O129  1  0.27318831  0.97783866  0.55762271  1
  O  O130  1  0.74010339  0.47511547  0.14075231  1
  O  O131  1  0.78623443  0.43466558  0.68409968  1
  O  O132  1  0.71163972  0.98385664  0.10924845  1
  O  O133  1  0.77393427  1.01103427  0.59780551  1
  O  O134  1  0.07612412  0.34879475  0.12171605  1
  O  O135  1  0.03035964  0.41534412  0.78167739  1
  O  O136  1  -0.01582671  0.89355886  0.18120148  1
  O  O137  1  0.00359763  0.84203014  0.78480679  1
  O  O138  1  0.40834694  0.28887338  0.30522481  1
  O  O139  1  0.44814042  0.31591630  0.74046695  1
  O  O140  1  0.52877062  0.84090340  0.26504292  1
  O  O141  1  0.49073320  0.91861418  0.79318617  1
  O  O142  1  0.55091880  0.14871507  0.28120776  1
  O  O143  1  0.49619538  0.12738020  0.70838800  1
  O  O144  1  0.51180561  0.62326716  0.22986204  1
  O  O145  1  0.49988054  0.62856489  0.74945680  1
  O  O146  1  1.02757307  0.13980534  0.30864913  1
  O  O147  1  0.94567292  0.08136851  0.75763898  1
  O  O148  1  0.97511180  0.60765503  0.23237038  1
  O  O149  1  1.04023670  0.65913670  0.77169247  1
  O  O150  1  0.34742722  0.25380661  -0.00190575  1
  O  O151  1  0.36518280  0.14248666  0.55020331  1
  O  O152  1  0.36557269  0.76722055  0.04975600  1
  O  O153  1  0.43783201  0.67292524  0.55083191  1
  O  O154  1  0.83266463  0.22390846  -0.09008050  1
  O  O155  1  0.95770057  0.24644857  0.49829442  1
  O  O156  1  0.84130681  0.73447339  -0.00443204  1
  O  O157  1  0.87570674  0.79308833  0.51663089  1
  O  O158  1  0.12617994  0.36110258  0.43007753  1
  O  O159  1  0.14150861  0.24176858  0.98148808  1
  O  O160  1  0.11658490  0.79849775  0.44307358  1
  O  O161  1  0.16810123  0.76453992  1.09465057  1
  O  O162  1  0.64976087  0.26251226  0.46209656  1
  O  O163  1  0.57545474  0.20523402  1.05312307  1
  O  O164  1  0.71160240  0.77267663  0.52804003  1
  O  O165  1  0.62849339  0.73207228  1.00342575  1
  O  O166  1  0.49876020  0.26063422  0.18629034  1
  O  O167  1  0.50292785  0.25242515  0.59319018  1
  O  O168  1  0.49367934  0.73938586  0.13481831  1
  O  O169  1  0.47224776  0.77018266  0.67337981  1
  O  O170  1  0.95160530  0.21559750  0.04030317  1
  O  O171  1  1.02299239  0.22291879  0.64804262  1
  O  O172  1  0.99481474  0.76705555  0.08784723  1
  O  O173  1  0.99065933  0.76500760  0.66535589  1
  O  O174  1  -0.00062477  0.20543790  0.31487774  1
  O  O175  1  -0.01560930  0.28250266  0.84592532  1
  O  O176  1  -0.03009081  0.71160061  0.39070190  1
  O  O177  1  -0.02430851  0.75875722  0.89923770  1
  O  O178  1  0.48609671  0.20891432  0.38685367  1
  O  O179  1  0.44104984  0.21936143  0.87012358  1
  O  O180  1  0.50639118  0.70526898  0.36243292  1
  O  O181  1  0.56327242  0.78435132  0.85384651  1
  O  O182  1  0.22823804  0.11607628  0.47946273  1
  O  O183  1  0.25704620  0.14626062  0.96994666  1
  O  O184  1  0.22402989  0.64768682  0.46550015  1
  O  O185  1  0.14995866  0.58211659  1.15797957  1
  O  O186  1  0.76293479  0.16406585  0.48026094  1
  O  O187  1  0.68634649  0.18241119  0.93987253  1
  O  O188  1  0.79354821  0.62217533  0.45484004  1
  O  O189  1  0.72620123  0.63325226  1.00618570  1
  O  O190  1  0.25070350  0.35492309  0.01569501  1
  O  O191  1  0.22686029  0.49145814  0.52879734  1
  O  O192  1  0.25641817  0.88720799  0.03853581  1
  O  O193  1  0.26492810  0.91325311  0.44392715  1
  O  O194  1  0.76644064  0.46202159  0.00175455  1
  O  O195  1  0.71542413  0.45958698  0.53690098  1
  O  O196  1  0.72609555  0.85483286  0.01432491  1
  O  O197  1  0.70121896  0.84857058  0.52199604  1
  O  O198  1  -0.00566990  0.36828009  0.29850720  1
  O  O199  1  0.14625648  0.51925060  0.78512175  1
  O  O200  1  0.11001633  0.91593049  0.30142375  1
  O  O201  1  0.12696544  0.97003468  0.65755564  1
  O  O202  1  0.64219275  0.47742095  0.25471620  1
  O  O203  1  0.58344234  0.47054539  0.80020608  1
  O  O204  1  0.61078508  0.97205060  0.25894506  1
  O  O205  1  0.66294229  1.00617182  0.70852474  1
  O  O206  1  0.43872877  -0.01871285  0.30260773  1
  O  O207  1  0.34996460  0.01212197  0.73482799  1
  O  O208  1  0.34997726  0.46422855  0.23482267  1
  O  O209  1  0.35255664  0.52231901  0.81386643  1
  O  O210  1  0.90323468  -0.00288143  0.26946450  1
  O  O211  1  0.88588033  0.04112869  0.76424687  1
  O  O212  1  0.86197772  0.48907152  0.23256735  1
  O  O213  1  0.89398948  0.54053623  0.73364673  1
  O  O214  1  0.04003147  0.41964323  0.27612231  1
  O  O215  1  0.14442080  0.36906768  0.88529551  1
  O  O216  1  0.26932794  0.92703871  0.28377696  1
  O  O217  1  0.11562145  0.81684598  0.93850546  1
  O  O218  1  0.69610613  0.31435650  0.42400888  1
  O  O219  1  0.55089298  0.33222337  0.85770726  1
  O  O220  1  0.65271097  0.84809029  0.35211275  1
  O  O221  1  0.64227806  0.91459244  0.84547453  1
  O  O222  1  0.42044512  0.11910588  0.07606343  1
  O  O223  1  0.24968237  0.15927287  0.68619301  1
  O  O224  1  0.38797476  0.62689421  0.12998060  1
  O  O225  1  0.41764181  0.62187605  0.60770375  1
  O  O226  1  0.88869051  0.08323774  0.12949034  1
  O  O227  1  0.89679524  0.12864392  0.59619133  1
  O  O228  1  0.85337349  0.61387113  0.12883166  1
  O  O229  1  0.94208563  0.81445151  0.51399794  1
  O  O230  1  0.24065920  0.21138501  0.11285738  1
  O  O231  1  0.26637592  0.34143684  0.57977637  1
  O  O232  1  0.28772870  0.78634249  0.16601245  1
  O  O233  1  0.23662822  0.77590743  0.58003402  1
  O  O234  1  0.78553345  0.18814297  0.06651646  1
  O  O235  1  0.73117842  0.30847931  0.60708430  1
  O  O236  1  0.74415636  0.74407381  0.11436750  1
  O  O237  1  0.74527771  0.74906836  0.59177025  1
  O  O238  1  0.25942041  0.24949566  0.40430793  1
  O  O239  1  0.26192521  0.25787744  0.85425725  1
  O  O240  1  0.23489163  0.73684501  0.31301699  1
  O  O241  1  0.25542037  0.75094442  0.95530926  1
  O  O242  1  0.81210260  0.24134639  0.36406588  1
  O  O243  1  0.72905572  0.32915735  0.98682253  1
  O  O244  1  0.75751010  0.72958825  0.33865944  1
  O  O245  1  0.72829599  0.75431577  0.89225567  1
  O  O246  1  0.00235939  0.10778240  -0.06933792  1
  O  O247  1  0.03341104  0.11670209  0.52171084  1
  O  O248  1  -0.00501983  0.60960839  0.01180765  1
  O  O249  1  -0.02920671  0.60645666  0.51079791  1
  O  O250  1  0.46239031  0.11170687  0.01921977  1
  O  O251  1  0.51213043  0.09837850  0.51081434  1
  O  O252  1  0.51185509  0.63631515  0.02461561  1
  O  O253  1  0.52232683  0.56476528  0.46355633  1
  O  O254  1  0.43115886  0.39252093  0.41431838  1
  O  O255  1  0.52224356  0.38754295  1.02190284  1
  O  O256  1  0.52467307  0.87936121  0.51426311  1
  O  O257  1  0.54122922  0.87138115  0.98487529  1
  O  O258  1  0.98113659  0.40138376  0.48918321  1
  O  O259  1  1.00406169  0.36824726  0.96736994  1
  O  O260  1  1.10223798  0.84184988  0.49597665  1
  O  O261  1  0.98309167  0.89199666  0.98572929  1
  O  O262  1  0.50362058  0.49471568  0.34005041  1
  O  O263  1  0.47376151  0.51342821  0.91570659  1
  O  O264  1  0.55043596  0.97531618  0.40963203  1
  O  O265  1  0.45516669  0.96807767  0.91872925  1
  O  O266  1  0.94463493  0.51645069  0.41085766  1
  O  O267  1  1.00342481  0.50225549  0.90013190  1
  O  O268  1  0.97394402  1.00483459  0.39644274  1
  O  O269  1  0.99729059  0.96508103  0.86682861  1
  O  O270  1  0.00384620  0.01555444  0.06493666  1
  O  O271  1  0.11262849  -0.10069655  0.63560122  1
  O  O272  1  -0.04943715  0.47079669  0.07014506  1
  O  O273  1  0.00609037  0.49393903  0.60462465  1
  O  O274  1  0.51775296  -0.01633191  0.11262316  1
  O  O275  1  0.48789252  -0.02224217  0.61908118  1
  O  O276  1  0.48759272  0.51432521  0.10988967  1
  O  O277  1  0.49036444  0.43981083  0.53656494  1
  O  O278  1  0.27635564  0.40031564  0.37091224  1
  O  O279  1  0.24410583  0.42415328  0.76134406  1
  O  O280  1  0.26708179  0.96146915  0.21927097  1
  O  O281  1  0.25221101  0.88115381  0.70687959  1
  O  O282  1  0.75584081  0.37052658  0.26345768  1
  O  O283  1  0.70139570  0.37511359  0.82332021  1
  O  O284  1  0.73864631  0.86986863  0.22964818  1
  O  O285  1  0.75803299  0.86791890  0.74543211  1
  O  O286  1  0.21974732  0.19445619  0.28391866  1
  O  O287  1  0.21342322  0.10115176  0.67377430  1
  O  O288  1  0.25977836  0.58185732  0.28027590  1
  O  O289  1  0.23947884  0.62810453  0.79150746  1
  O  O290  1  0.70482569  0.21411021  0.28975363  1
  O  O291  1  0.76149559  0.19499226  0.75400644  1
  O  O292  1  0.74819150  0.59364474  0.24755859  1
  O  O293  1  0.75911293  0.59074025  0.64719289  1
  O  O294  1  0.32283144  0.11908568  0.38470006  1
  O  O295  1  0.37463397  0.08254684  0.83887552  1
  O  O296  1  0.34222234  0.66892986  0.39621114  1
  O  O297  1  0.36606089  0.62285162  0.93467737  1
  O  O298  1  0.85847877  0.09135915  0.35824963  1
  O  O299  1  0.94110132  0.15383513  0.78097141  1
  O  O300  1  0.85712926  0.62210892  0.32028951  1
  O  O301  1  0.86360174  0.61549354  0.87570957  1
  O  O302  1  0.10263859  0.30438331  0.17805649  1
  O  O303  1  0.13148568  0.42546220  0.65852267  1
  O  O304  1  0.12215527  0.91637773  0.10320302  1
  O  O305  1  0.24247114  0.92101349  0.51968009  1
  O  O306  1  0.66057948  0.33796210  0.13020966  1
  O  O307  1  0.62916735  0.40426588  0.67671710  1
  O  O308  1  0.62973012  0.85708001  0.14667295  1
  O  O309  1  0.61195953  0.85742234  0.69182718  1
  O  O310  1  0.08186540  0.22958722  0.17230148  1
  O  O311  1  0.14158258  0.30385861  0.75588684  1
  O  O312  1  0.06890242  0.76339601  0.23546337  1
  O  O313  1  0.17177958  0.76418199  0.80145114  1
  O  O314  1  0.56222133  0.29661059  0.29129512  1
  O  O315  1  0.59425455  0.26455126  0.72549108  1
  O  O316  1  0.61714725  0.72890490  0.24699247  1
  O  O317  1  0.66699688  0.70436072  0.76210657  1
  O  O318  1  0.42093801  0.15982065  0.25155506  1
  O  O319  1  0.42652742  0.16634579  0.70772719  1
  O  O320  1  0.40916416  0.74536801  0.24829621  1
  O  O321  1  0.30579232  0.77109357  0.57672671  1
  O  O322  1  0.87757662  0.22148249  0.19194632  1
  O  O323  1  0.89142708  0.31900918  0.63064373  1
  O  O324  1  0.90360962  0.76626985  0.23217177  1
  O  O325  1  0.88155518  0.72581563  0.77193374  1
  O  O326  1  0.39833054  0.52338040  0.44682644  1
  O  O327  1  0.37964283  0.46852008  1.01212310  1
  O  O328  1  0.41448983  0.99006787  0.46579977  1
  O  O329  1  0.41641450  0.96656955  0.98932727  1
  O  O330  1  0.88409268  0.49368047  0.54213012  1
  O  O331  1  0.85731061  0.56448138  0.92442824  1
  O  O332  1  0.87045105  0.98024242  0.47145192  1
  O  O333  1  0.88065769  1.01699349  0.96193971  1
  O  O334  1  0.13881571  0.03363376  -0.01365727  1
  O  O335  1  0.12173583  0.00013518  0.43534063  1
  O  O336  1  0.10672816  0.49240990  0.02340243  1
  O  O337  1  0.07672612  0.50712887  0.47500855  1
  O  O338  1  0.60161011  0.01239561  -0.02230366  1
  O  O339  1  0.62608695  -0.00225818  0.54045114  1
  O  O340  1  0.60298147  0.51943242  -0.00023700  1
  O  O341  1  0.57748846  0.42598165  0.43144650  1
  O  O342  1  0.38512279  0.35295638  0.10173102  1
  O  O343  1  0.30866703  0.31503491  0.62932918  1
  O  O344  1  0.40980823  0.87838274  0.15443170  1
  O  O345  1  0.31400036  0.85449087  0.72379749  1
  O  O346  1  0.82665893  0.35229467  0.11117828  1
  O  O347  1  0.92474222  0.35294426  0.68211228  1
  O  O348  1  0.83788544  0.90402691  0.11869321  1
  O  O349  1  0.95576816  0.95332173  0.60833001  1
  O  O350  1  0.13100218  0.17313220  0.40593472  1
  O  O351  1  0.11712889  0.18739100  0.83853197  1
  O  O352  1  0.12331082  0.64030451  0.34521546  1
  O  O353  1  0.12388580  0.65599790  0.91432481  1
  O  O354  1  0.66457951  0.12178470  0.38438163  1
  O  O355  1  0.72881723  0.13578364  0.79576424  1
  O  O356  1  0.65331726  0.61154810  0.36572712  1
  O  O357  1  0.60950797  0.63043619  0.89238379  1
