# generated using pymatgen
data_V51Zn51O256
_symmetry_space_group_name_H-M   'P 1'
_cell_length_a   17.25926342
_cell_length_b   17.35643501
_cell_length_c   17.56211866
_cell_angle_alpha   92.60229386
_cell_angle_beta   90.81577467
_cell_angle_gamma   89.35012840
_symmetry_Int_Tables_number   1
_chemical_formula_structural   V51Zn51O256
_chemical_formula_sum   'V51 Zn51 O256'
_cell_volume   5254.63645246
_cell_formula_units_Z   1
loop_
 _symmetry_equiv_pos_site_id
 _symmetry_equiv_pos_as_xyz
  1  'x, y, z'
loop_
 _atom_site_type_symbol
 _atom_site_label
 _atom_site_symmetry_multiplicity
 _atom_site_fract_x
 _atom_site_fract_y
 _atom_site_fract_z
 _atom_site_occupancy
  V  V0  1  0.45095976  0.88399491  0.88798480  1
  V  V1  1  0.61316296  0.25454920  0.85366930  1
  V  V2  1  0.25602837  0.03353233  0.67251508  1
  V  V3  1  0.96676162  0.61152251  0.26320735  1
  V  V4  1  0.44910903  0.26171868  0.77672967  1
  V  V5  1  -0.00694107  0.43655894  -0.01755864  1
  V  V6  1  0.47917894  0.12546117  0.67841231  1
  V  V7  1  0.19615842  0.26765806  0.49140084  1
  V  V8  1  0.77970038  0.59715846  0.40172187  1
  V  V9  1  0.38813039  0.24941907  0.14663132  1
  V  V10  1  0.73148129  0.02495524  0.23304894  1
  V  V11  1  0.12411824  0.61846996  0.01647603  1
  V  V12  1  0.63815945  0.59682769  0.01051419  1
  V  V13  1  0.28604618  0.39576146  0.62191648  1
  V  V14  1  0.10782259  0.21425658  0.90051556  1
  V  V15  1  0.03003868  0.52606360  0.50373322  1
  V  V16  1  0.72771769  0.37830122  0.11321937  1
  V  V17  1  0.36794527  0.03050521  0.35056845  1
  V  V18  1  0.16212082  0.35338326  0.77846914  1
  V  V19  1  -0.04849518  0.90722999  0.38258536  1
  V  V20  1  0.26375508  0.18738961  0.83801767  1
  V  V21  1  -0.05142171  -0.02925108  0.57747196  1
  V  V22  1  0.82486220  0.78693176  0.67471481  1
  V  V23  1  0.45817063  0.39336934  0.88503540  1
  V  V24  1  -0.00696493  0.23545749  0.23555104  1
  V  V25  1  0.63324934  0.37058146  0.28083951  1
  V  V26  1  0.62171218  0.83252827  0.27402879  1
  V  V27  1  0.40209080  0.80647505  0.54156733  1
  V  V28  1  -0.00733252  -0.00178251  0.01089939  1
  V  V29  1  0.89113529  0.48010177  0.83416699  1
  V  V30  1  0.84996805  0.13348072  0.24742565  1
  V  V31  1  0.86269956  0.24966581  0.09906193  1
  V  V32  1  0.61921924  0.14536126  -0.01731037  1
  V  V33  1  0.07892430  0.09708957  0.52630427  1
  V  V34  1  0.48408150  0.50271169  0.01298761  1
  V  V35  1  0.68746710  0.00839352  0.73049987  1
  V  V36  1  0.61200882  0.36618335  0.73070223  1
  V  V37  1  0.26598209  0.52594930  0.24359054  1
  V  V38  1  0.87953327  0.38888492  0.45384095  1
  V  V39  1  0.11304582  0.46157699  0.12308119  1
  V  V40  1  0.70889585  0.91326710  0.58626217  1
  V  V41  1  0.61476868  0.52305677  0.64658948  1
  V  V42  1  0.76060531  0.54460037  0.22791277  1
  V  V43  1  0.38771167  0.39596640  0.45745996  1
  V  V44  1  0.74859048  0.13302455  0.84172404  1
  V  V45  1  0.51722255  0.00111488  -0.00773569  1
  V  V46  1  0.11257509  0.82815045  0.40700890  1
  V  V47  1  0.00203988  0.78585192  0.21149916  1
  V  V48  1  0.60177467  0.77204767  0.84995797  1
  V  V49  1  0.16233907  0.85799344  0.76178509  1
  V  V50  1  0.88852837  0.24636326  0.59782440  1
  Zn  Zn51  1  0.79740280  0.08611632  0.03141210  1
  Zn  Zn52  1  0.07850455  0.26258508  0.09290373  1
  Zn  Zn53  1  0.94479294  0.98808999  0.21266397  1
  Zn  Zn54  1  0.46134063  0.21372917  0.34520009  1
  Zn  Zn55  1  0.41098702  0.93571302  0.70512120  1
  Zn  Zn56  1  1.02271996  0.69029082  0.41910643  1
  Zn  Zn57  1  0.06225403  0.79342413  0.02963455  1
  Zn  Zn58  1  0.16597186  0.13164229  0.22789571  1
  Zn  Zn59  1  0.92676314  0.18362115  0.93141941  1
  Zn  Zn60  1  0.46358021  0.45214685  0.68784227  1
  Zn  Zn61  1  0.84193105  0.75631193  0.31406977  1
  Zn  Zn62  1  0.48184725  0.64818700  0.60769798  1
  Zn  Zn63  1  0.15286581  0.98442326  0.35582703  1
  Zn  Zn64  1  0.30114364  0.85366120  0.39713033  1
  Zn  Zn65  1  0.10076973  0.51961371  0.87405912  1
  Zn  Zn66  1  0.60316298  0.64098086  0.21101452  1
  Zn  Zn67  1  0.78849560  0.09145787  0.62822520  1
  Zn  Zn68  1  0.99743488  0.24492058  0.44686395  1
  Zn  Zn69  1  0.28697283  0.28592205  0.30098238  1
  Zn  Zn70  1  0.15482778  0.92303984  0.93192800  1
  Zn  Zn71  1  0.22454088  0.48575936  0.44225090  1
  Zn  Zn72  1  0.15302848  0.68289566  0.27901054  1
  Zn  Zn73  1  0.80269137  0.50451842  0.03385065  1
  Zn  Zn74  1  0.97624321  0.90650421  0.74072625  1
  Zn  Zn75  1  0.17059031  0.37164755  0.97236069  1
  Zn  Zn76  1  0.28286763  0.49579256  0.04926849  1
  Zn  Zn77  1  0.17214143  0.72918606  0.89451620  1
  Zn  Zn78  1  0.44147925  0.10271323  0.87305715  1
  Zn  Zn79  1  0.90167594  0.65195889  0.54757933  1
  Zn  Zn80  1  0.11190789  0.04014384  0.79539218  1
  Zn  Zn81  1  0.57683503  0.84076031  0.46608199  1
  Zn  Zn82  1  0.93598358  0.59609333  0.94161336  1
  Zn  Zn83  1  0.75046903  0.90815749  0.39168429  1
  Zn  Zn84  1  0.25604207  0.07045260  0.49144443  1
  Zn  Zn85  1  0.78982519  0.30487600  0.76282794  1
  Zn  Zn86  1  0.45890431  0.45510954  0.20312602  1
  Zn  Zn87  1  0.20827914  0.20901992  0.65838941  1
  Zn  Zn88  1  0.55431159  0.31749680  0.04247863  1
  Zn  Zn89  1  0.66667105  0.71948577  0.67496696  1
  Zn  Zn90  1  0.32599768  0.05165175  0.14633426  1
  Zn  Zn91  1  0.01237571  0.09668327  0.34114196  1
  Zn  Zn92  1  0.68075289  0.42626867  0.92672516  1
  Zn  Zn93  1  0.82572230  0.34189148  0.25916463  1
  Zn  Zn94  1  0.46195409  0.91575986  0.17629603  1
  Zn  Zn95  1  0.68332088  0.45819863  0.46088260  1
  Zn  Zn96  1  0.47706944  0.69260583  0.95347595  1
  Zn  Zn97  1  0.66755791  0.96049595  0.89979641  1
  Zn  Zn98  1  0.67571197  0.20664667  0.17514514  1
  Zn  Zn99  1  0.46768670  0.30862843  0.59306954  1
  Zn  Zn100  1  0.22293041  0.88648864  0.56756979  1
  Zn  Zn101  1  0.94526564  0.42282935  0.17583640  1
  O  O102  1  0.22680198  0.09600878  0.14256135  1
  O  O103  1  0.13092256  0.15872525  0.58542297  1
  O  O104  1  0.10724039  0.56129958  0.10281740  1
  O  O105  1  0.14912417  0.56293056  0.70186842  1
  O  O106  1  0.62879968  0.15674328  0.07920713  1
  O  O107  1  0.56719480  0.12313718  0.64715357  1
  O  O108  1  0.63215784  0.62723130  0.10297600  1
  O  O109  1  0.66467218  0.60527724  0.66011162  1
  O  O110  1  0.36882281  0.35648810  0.35000105  1
  O  O111  1  0.36429512  0.39061080  0.89228676  1
  O  O112  1  0.35881611  0.92663815  0.33699856  1
  O  O113  1  0.36273233  0.86402415  0.91008146  1
  O  O114  1  0.87001166  0.36191288  0.35980550  1
  O  O115  1  0.83374998  0.38039990  0.84971679  1
  O  O116  1  0.85763119  0.86234903  0.35882077  1
  O  O117  1  0.81886803  0.86821457  0.90249967  1
  O  O118  1  0.26056217  0.03235913  0.37293149  1
  O  O119  1  0.25682559  -0.03632287  0.99026133  1
  O  O120  1  0.23074234  0.48924828  0.32507516  1
  O  O121  1  0.28478011  0.55713649  0.84236144  1
  O  O122  1  0.72198141  -0.01520067  0.32032159  1
  O  O123  1  0.72535819  0.02261808  0.83558025  1
  O  O124  1  0.80601035  0.53107343  0.32237036  1
  O  O125  1  0.78296326  0.44723615  0.85569059  1
  O  O126  1  0.22781954  0.48323074  0.15214568  1
  O  O127  1  0.23579846  0.45413865  0.56738727  1
  O  O128  1  0.36177230  0.95081836  0.14917413  1
  O  O129  1  0.26186266  0.99658763  0.57294187  1
  O  O130  1  0.76852917  0.48483380  0.13740811  1
  O  O131  1  0.82590533  0.56196955  0.63276243  1
  O  O132  1  0.74774418  0.96725200  0.03025893  1
  O  O133  1  0.70035580  1.01929127  0.61977099  1
  O  O134  1  -0.00661797  0.33346380  0.23494791  1
  O  O135  1  0.08139407  0.34787120  0.73179115  1
  O  O136  1  -0.03425429  0.87766761  0.22807768  1
  O  O137  1  0.06526476  0.83873687  0.75916648  1
  O  O138  1  0.54839043  0.41713696  0.25610146  1
  O  O139  1  0.46771956  0.37172297  0.77454647  1
  O  O140  1  0.55163320  0.89011011  0.23252062  1
  O  O141  1  0.45918583  0.88881338  0.79185432  1
  O  O142  1  0.53271766  0.14706363  0.30359149  1
  O  O143  1  0.47609402  0.15318679  0.78255290  1
  O  O144  1  0.48811717  0.60750253  0.21761694  1
  O  O145  1  0.43580928  0.68167507  0.73809824  1
  O  O146  1  0.95426893  0.11335083  0.23307989  1
  O  O147  1  1.00742853  0.00207820  0.79252427  1
  O  O148  1  1.06134739  0.61938979  0.24411754  1
  O  O149  1  1.08593481  0.55909307  0.73206805  1
  O  O150  1  0.34722875  0.23756536  0.05699474  1
  O  O151  1  0.39220362  0.29245646  0.39748071  1
  O  O152  1  0.38585364  0.72867757  0.01650515  1
  O  O153  1  0.40896537  0.70739879  0.55771876  1
  O  O154  1  0.86295410  0.24590467  0.00200478  1
  O  O155  1  0.91118096  0.30180235  0.50396846  1
  O  O156  1  0.95290815  0.78644422  -0.12118894  1
  O  O157  1  1.07248601  0.74817873  0.61829157  1
  O  O158  1  0.09826018  0.27954416  0.48714158  1
  O  O159  1  0.11003331  0.21066527  0.99727385  1
  O  O160  1  0.13515083  0.84743976  0.49991704  1
  O  O161  1  0.14245920  0.70981918  1.05012938  1
  O  O162  1  0.51487376  0.23664803  0.50383339  1
  O  O163  1  0.61355750  0.25305303  0.96644274  1
  O  O164  1  0.61395333  0.72272176  0.46236381  1
  O  O165  1  0.62657043  0.69211974  0.95063648  1
  O  O166  1  0.48598534  0.25883853  0.11443543  1
  O  O167  1  0.44665188  0.23537071  0.67186187  1
  O  O168  1  0.45069668  0.64558543  0.16065895  1
  O  O169  1  0.57931553  0.71919369  0.59069582  1
  O  O170  1  0.96445174  0.24117172  0.11594866  1
  O  O171  1  0.96983277  0.19861077  0.60979516  1
  O  O172  1  1.00336804  0.77067206  0.11531691  1
  O  O173  1  1.07654939  0.69294190  0.65862952  1
  O  O174  1  0.00855833  0.22027002  0.33337821  1
  O  O175  1  0.01443274  0.20097255  0.87016852  1
  O  O176  1  -0.00094858  0.80433772  0.40442913  1
  O  O177  1  -0.03799384  0.75276558  0.93913064  1
  O  O178  1  0.53856684  0.25257890  0.43805507  1
  O  O179  1  0.50070627  0.27748636  0.87317152  1
  O  O180  1  0.41655999  0.74095476  0.32715560  1
  O  O181  1  0.50286018  0.77513511  0.88822206  1
  O  O182  1  0.23069188  0.17691028  0.46898667  1
  O  O183  1  0.27111252  0.03432010  0.98991042  1
  O  O184  1  0.20525292  0.64677191  0.55687378  1
  O  O185  1  0.21777320  0.57513746  1.01083361  1
  O  O186  1  0.56573716  0.09554444  0.48106626  1
  O  O187  1  0.72615498  0.12491074  0.95578432  1
  O  O188  1  0.83838886  0.59159845  0.48149960  1
  O  O189  1  0.73661536  0.58601963  0.99332685  1
  O  O190  1  0.27144610  0.39348917  0.00780854  1
  O  O191  1  0.24034733  0.35975388  0.44924905  1
  O  O192  1  0.19344563  0.93040313  0.13566858  1
  O  O193  1  0.30733101  0.83400804  0.50343522  1
  O  O194  1  0.74592686  0.39842206  0.01610459  1
  O  O195  1  0.79437038  0.42267926  0.48666478  1
  O  O196  1  0.74991155  0.77703982  -0.00108137  1
  O  O197  1  0.75373117  0.92658409  0.50107764  1
  O  O198  1  0.08799127  0.45804605  0.21175626  1
  O  O199  1  0.16770916  0.44464856  0.82499011  1
  O  O200  1  0.11321705  1.06546150  0.29507740  1
  O  O201  1  0.16922783  0.94327951  0.82770533  1
  O  O202  1  0.66455906  0.55845266  0.24885031  1
  O  O203  1  0.62053543  0.47187699  0.73477447  1
  O  O204  1  0.66951530  0.99282366  0.16799607  1
  O  O205  1  0.59476422  1.00395851  0.74854201  1
  O  O206  1  0.33326191  0.04809727  0.25837180  1
  O  O207  1  0.30731979  -0.02536263  0.73104121  1
  O  O208  1  0.36353920  0.50190081  0.23986100  1
  O  O209  1  0.35421388  0.56674512  0.83609238  1
  O  O210  1  0.83353271  0.02309423  0.20616249  1
  O  O211  1  0.83615471  -0.08391362  0.85616248  1
  O  O212  1  0.92958025  0.52767740  0.21999994  1
  O  O213  1  0.90246330  0.47028681  0.74262919  1
  O  O214  1  0.15695364  0.32173973  0.23055585  1
  O  O215  1  0.13138725  0.31250864  0.88078951  1
  O  O216  1  0.06178735  0.91627839  0.37090897  1
  O  O217  1  0.12942637  0.82164466  0.95238041  1
  O  O218  1  0.65138407  0.38665533  0.37682699  1
  O  O219  1  0.63165658  0.36463922  0.84483931  1
  O  O220  1  0.63396524  0.85923270  0.37399873  1
  O  O221  1  0.64848857  0.85552410  0.87632846  1
  O  O222  1  0.39325340  0.14781579  0.15017119  1
  O  O223  1  0.36234130  0.15593643  0.54894013  1
  O  O224  1  0.37829739  0.63668205  0.15412613  1
  O  O225  1  0.30276469  0.60514722  0.68495970  1
  O  O226  1  0.83358062  0.15160958  0.11545130  1
  O  O227  1  0.81716063  0.17857688  0.57565345  1
  O  O228  1  0.85530343  0.71763277  0.08045036  1
  O  O229  1  0.88813287  0.72696092  0.62370342  1
  O  O230  1  0.29179566  0.27148043  0.18137326  1
  O  O231  1  0.23767023  0.29080184  0.58529308  1
  O  O232  1  0.29899222  0.80491641  0.13633130  1
  O  O233  1  0.22883654  0.70881143  0.58350492  1
  O  O234  1  0.74603903  0.27522291  0.11779617  1
  O  O235  1  0.65607255  0.21699549  0.56120338  1
  O  O236  1  0.80968101  0.76295412  0.11139499  1
  O  O237  1  0.75213265  0.81665663  0.60422898  1
  O  O238  1  0.21557321  0.30694953  0.38932741  1
  O  O239  1  0.25606248  0.23728083  0.91812142  1
  O  O240  1  0.19734471  0.87102281  0.36153077  1
  O  O241  1  0.31309446  0.73901064  0.98995198  1
  O  O242  1  0.69374804  0.21315740  0.39186149  1
  O  O243  1  0.72721309  0.24056265  0.83179478  1
  O  O244  1  0.78007850  0.69174756  0.37313586  1
  O  O245  1  0.79739579  0.73492116  0.96635357  1
  O  O246  1  -0.01313145  0.09720218  -0.01256755  1
  O  O247  1  0.02758216  0.03574537  0.58672263  1
  O  O248  1  0.01652034  0.61944485  0.00629935  1
  O  O249  1  0.00546941  0.63035992  0.50974971  1
  O  O250  1  0.51623900  0.12159676  -0.03549868  1
  O  O251  1  0.42901996  0.12966749  0.56032659  1
  O  O252  1  0.51693866  0.60500349  -0.00185434  1
  O  O253  1  0.61258664  0.68030500  0.52040768  1
  O  O254  1  0.48041221  0.41457226  0.46143366  1
  O  O255  1  0.49391769  0.39058033  0.98748230  1
  O  O256  1  0.46752949  0.83030304  0.47314415  1
  O  O257  1  0.51782660  0.90079680  0.98218617  1
  O  O258  1  1.07512482  0.36994603  0.37056523  1
  O  O259  1  0.98348971  0.34373068  0.96807532  1
  O  O260  1  0.93467232  0.94284206  0.47664141  1
  O  O261  1  0.99163634  0.89722371  1.03236761  1
  O  O262  1  0.46774805  0.60400476  0.37762921  1
  O  O263  1  0.48161736  0.48965333  0.88896949  1
  O  O264  1  0.46389738  1.01487787  0.33329412  1
  O  O265  1  0.45511835  0.99601538  0.90571220  1
  O  O266  1  1.05524233  0.43088153  0.34440675  1
  O  O267  1  0.99151830  0.47185234  0.87401386  1
  O  O268  1  0.94762674  0.99406695  0.33469528  1
  O  O269  1  0.97100982  0.95760653  0.91985818  1
  O  O270  1  0.00147136  0.00890986  0.11364482  1
  O  O271  1  -0.02230821  -0.10589863  0.62426685  1
  O  O272  1  0.00588022  0.44648066  0.08736931  1
  O  O273  1  0.03747022  0.50369805  0.59191714  1
  O  O274  1  0.50449869  0.00592585  0.10201185  1
  O  O275  1  0.44365233  0.03445487  0.66961537  1
  O  O276  1  0.50284352  0.48911895  0.10736436  1
  O  O277  1  0.51191643  0.54900231  0.64217258  1
  O  O278  1  0.20958873  0.36711304  0.24984689  1
  O  O279  1  0.35745018  0.45396115  0.66616430  1
  O  O280  1  0.34364233  0.79098927  0.19175218  1
  O  O281  1  0.16069785  1.03824364  0.69734739  1
  O  O282  1  0.72486801  0.39293220  0.23408624  1
  O  O283  1  0.69932963  0.34140456  0.69818049  1
  O  O284  1  0.73290038  0.79641844  0.26283095  1
  O  O285  1  0.71912682  0.91519692  0.70750776  1
  O  O286  1  0.24514034  0.18594737  0.28736920  1
  O  O287  1  0.28793417  0.12907191  0.68016085  1
  O  O288  1  0.24419509  0.62472749  0.25151544  1
  O  O289  1  0.27505971  0.66527955  0.71278489  1
  O  O290  1  0.73250301  0.13109182  0.23437441  1
  O  O291  1  0.74277270  0.11092568  0.73689807  1
  O  O292  1  0.79143637  0.62948802  0.20514742  1
  O  O293  1  0.81625351  0.57806117  0.70032342  1
  O  O294  1  0.38465364  0.13210146  0.36694959  1
  O  O295  1  0.33152098  0.11614530  0.85368113  1
  O  O296  1  0.48757879  0.58531325  0.44148893  1
  O  O297  1  0.29467578  0.70009409  0.92708498  1
  O  O298  1  0.84512048  0.12963733  0.33992450  1
  O  O299  1  0.84406735  0.13853356  0.86241093  1
  O  O300  1  0.96208960  0.61057901  0.36001032  1
  O  O301  1  0.87383711  0.57999471  0.85495643  1
  O  O302  1  0.13301793  0.36059439  0.08433259  1
  O  O303  1  0.23502952  0.37972451  0.70555884  1
  O  O304  1  0.17663370  0.92536026  0.20344684  1
  O  O305  1  0.19710741  0.86235159  0.66987414  1
  O  O306  1  0.62938559  0.37220767  0.11055076  1
  O  O307  1  0.54555135  0.37216763  0.64770266  1
  O  O308  1  0.70993385  0.85369973  0.21416939  1
  O  O309  1  0.61674405  0.89063395  0.56109912  1
  O  O310  1  0.08399793  0.20353794  0.19133059  1
  O  O311  1  0.20721783  0.24719143  0.76526550  1
  O  O312  1  0.09517782  0.77859779  0.24633136  1
  O  O313  1  0.20354796  0.77941477  0.80455467  1
  O  O314  1  0.62514614  0.27300991  0.25457800  1
  O  O315  1  0.58214693  0.26306644  0.75471988  1
  O  O316  1  0.58712027  0.74160576  0.25926997  1
  O  O317  1  0.59502427  0.76036727  0.75442868  1
  O  O318  1  0.41203048  0.24584373  0.25054736  1
  O  O319  1  0.35654798  0.25374885  0.79990189  1
  O  O320  1  0.34603603  0.75145103  0.33931085  1
  O  O321  1  0.38488494  0.73031347  0.75419408  1
  O  O322  1  0.87266262  0.23652737  0.23541582  1
  O  O323  1  0.86235397  0.29271371  0.68320213  1
  O  O324  1  0.92968109  0.71587989  0.24897317  1
  O  O325  1  0.76770965  0.73241445  0.73009684  1
  O  O326  1  0.33733301  0.48257438  0.45373699  1
  O  O327  1  0.38720556  0.51961483  1.01665368  1
  O  O328  1  0.37104629  1.02824385  0.45329856  1
  O  O329  1  0.44022153  1.03491971  1.06111607  1
  O  O330  1  0.95466250  0.45872259  0.46268097  1
  O  O331  1  0.89894739  0.49107586  0.98438939  1
  O  O332  1  0.87014340  1.01057365  0.62201541  1
  O  O333  1  0.88920788  1.01472899  1.02204716  1
  O  O334  1  0.09359673  0.00451814  -0.00569519  1
  O  O335  1  0.14136055  0.03873099  0.47164490  1
  O  O336  1  0.09631154  0.46324675  -0.02536715  1
  O  O337  1  0.11840979  0.51498699  0.45901200  1
  O  O338  1  0.61805605  0.02331289  -0.02136496  1
  O  O339  1  0.60700354  0.03779505  0.47325615  1
  O  O340  1  0.61375300  0.49909338  -0.01388771  1
  O  O341  1  0.64428154  0.47607626  0.56521463  1
  O  O342  1  0.40108199  0.35349400  0.15208686  1
  O  O343  1  0.37176299  0.35261764  0.55176569  1
  O  O344  1  0.42082900  0.80224788  0.18638977  1
  O  O345  1  0.41584266  0.85637799  0.62490114  1
  O  O346  1  0.85665279  0.35630223  0.14482706  1
  O  O347  1  0.68424959  0.27172795  0.53038596  1
  O  O348  1  0.77052785  0.91636001  0.07352977  1
  O  O349  1  0.87817963  0.85086370  0.73135686  1
  O  O350  1  0.01440369  0.13197647  0.45513474  1
  O  O351  1  0.16290620  0.13300689  0.85288886  1
  O  O352  1  0.12891405  0.72377441  0.38740329  1
  O  O353  1  0.12396993  0.62784256  0.90507502  1
  O  O354  1  0.68518153  0.14362094  0.39118852  1
  O  O355  1  0.62369594  0.15284820  0.86072801  1
  O  O356  1  0.69036622  0.56638046  0.42795962  1
  O  O357  1  0.65823059  0.68654953  0.87596592  1
