# generated using pymatgen
data_V51Zn51O256
_symmetry_space_group_name_H-M   'P 1'
_cell_length_a   17.55259525
_cell_length_b   17.77650943
_cell_length_c   17.82834233
_cell_angle_alpha   87.95880713
_cell_angle_beta   90.70574326
_cell_angle_gamma   90.84625334
_symmetry_Int_Tables_number   1
_chemical_formula_structural   V51Zn51O256
_chemical_formula_sum   'V51 Zn51 O256'
_cell_volume   5558.34531082
_cell_formula_units_Z   1
loop_
 _symmetry_equiv_pos_site_id
 _symmetry_equiv_pos_as_xyz
  1  'x, y, z'
loop_
 _atom_site_type_symbol
 _atom_site_label
 _atom_site_symmetry_multiplicity
 _atom_site_fract_x
 _atom_site_fract_y
 _atom_site_fract_z
 _atom_site_occupancy
  V  V0  1  0.77131105  0.65636288  0.38981932  1
  V  V1  1  0.76068645  0.47650931  0.22467918  1
  V  V2  1  0.48977924  0.66576550  0.64110187  1
  V  V3  1  0.86608239  0.39112839  0.49278398  1
  V  V4  1  0.36498140  0.12090945  0.75269337  1
  V  V5  1  0.14987150  0.65079689  -0.00819356  1
  V  V6  1  0.48456008  0.35200553  0.34621289  1
  V  V7  1  0.01189358  0.51362334  0.02450537  1
  V  V8  1  0.12116266  0.53980938  0.59524843  1
  V  V9  1  0.69874064  0.40528498  0.64570198  1
  V  V10  1  0.77833874  -0.00698577  0.70742515  1
  V  V11  1  0.38079613  0.41499557  0.51515132  1
  V  V12  1  0.25422536  0.92725663  0.10036526  1
  V  V13  1  0.87161204  0.63063651  0.71200966  1
  V  V14  1  0.87042601  -0.01850993  0.90363526  1
  V  V15  1  0.66626113  0.84541377  0.67667097  1
  V  V16  1  0.08811061  0.01214024  0.10558505  1
  V  V17  1  0.49905889  0.12002894  0.15381279  1
  V  V18  1  0.77133549  0.01547252  0.26559918  1
  V  V19  1  0.69509749  -0.05945618  0.11562154  1
  V  V20  1  0.12321570  0.90879006  0.80580604  1
  V  V21  1  0.48053071  0.48722191  0.03348914  1
  V  V22  1  0.61872504  0.47993767  0.79658190  1
  V  V23  1  0.92157186  0.89262887  0.51282348  1
  V  V24  1  0.76803021  0.33167728  0.13309651  1
  V  V25  1  0.27958537  0.29562265  0.07247639  1
  V  V26  1  0.26565638  0.75761545  0.48993030  1
  V  V27  1  0.71669398  0.12749634  0.82346429  1
  V  V28  1  0.36350742  0.85458253  -0.00405397  1
  V  V29  1  0.05396326  0.12477833  -0.02504126  1
  V  V30  1  0.07424290  0.69811220  0.25385217  1
  V  V31  1  -0.04320450  0.28040969  0.75813112  1
  V  V32  1  0.22630910  0.40547764  0.18311799  1
  V  V33  1  0.89211895  0.50694062  0.36947542  1
  V  V34  1  0.85608409  0.28496320  0.62374712  1
  V  V35  1  0.81172749  0.80549588  0.18678926  1
  V  V36  1  0.11494823  0.24078563  0.87126714  1
  V  V37  1  -0.00254331  0.83194729  0.90467332  1
  V  V38  1  0.49771622  0.87290912  0.89774748  1
  V  V39  1  0.81211731  0.16289600  0.37744311  1
  V  V40  1  0.52329863  0.54772804  0.45034126  1
  V  V41  1  0.92002436  0.25085566  0.14243018  1
  V  V42  1  0.02784572  0.36953352  0.39094267  1
  V  V43  1  0.01568050  0.88673598  0.36053999  1
  V  V44  1  0.46785845  0.88944413  0.35429242  1
  V  V45  1  0.02049616  0.13835563  0.65564479  1
  V  V46  1  0.10743808  0.37518817  0.75225297  1
  V  V47  1  0.74066300  0.72762240  0.02682943  1
  V  V48  1  0.61575497  0.07262550  0.50215832  1
  V  V49  1  0.89267302  0.61289408  0.21245016  1
  V  V50  1  0.49748571  0.10356831  0.63107387  1
  Zn  Zn51  1  0.25758314  0.40404036  0.66054475  1
  Zn  Zn52  1  0.41614992  0.41273860  0.17709856  1
  Zn  Zn53  1  0.47945580  0.74320444  0.46741751  1
  Zn  Zn54  1  0.34872253  -0.00532061  0.64115477  1
  Zn  Zn55  1  0.74264433  0.93368082  0.53763731  1
  Zn  Zn56  1  0.14464930  0.85306414  -0.00556945  1
  Zn  Zn57  1  0.90413713  0.72813994  0.32771504  1
  Zn  Zn58  1  0.95735707  0.21104874  0.47701957  1
  Zn  Zn59  1  0.49573368  0.92704572  0.68154251  1
  Zn  Zn60  1  0.61143054  0.56247218  0.29354582  1
  Zn  Zn61  1  0.28970575  0.12392140  0.10421167  1
  Zn  Zn62  1  0.77335574  0.11916544  0.56828701  1
  Zn  Zn63  1  0.84245701  0.33089615  0.30723577  1
  Zn  Zn64  1  0.15797150  0.53370969  0.85519676  1
  Zn  Zn65  1  0.18431950  0.23070837  0.72282168  1
  Zn  Zn66  1  0.20668829  0.70842044  0.64455137  1
  Zn  Zn67  1  0.63546921  0.40053934  0.46025080  1
  Zn  Zn68  1  0.13985669  -0.10839225  0.24576806  1
  Zn  Zn69  1  0.58777410  0.22393055  0.41593792  1
  Zn  Zn70  1  0.18586836  0.45888534  0.47927304  1
  Zn  Zn71  1  1.03289014  0.37646843  0.18427555  1
  Zn  Zn72  1  0.19383339  0.59464873  0.14993322  1
  Zn  Zn73  1  0.02306408  0.06246880  0.80770757  1
  Zn  Zn74  1  0.67125103  0.97806695  0.92708779  1
  Zn  Zn75  1  0.31023308  0.43162725  0.35842360  1
  Zn  Zn76  1  0.41311127  0.94829059  0.17926210  1
  Zn  Zn77  1  0.58589520  0.27525841  0.57948839  1
  Zn  Zn78  1  0.84490678  0.53376948  0.06811910  1
  Zn  Zn79  1  0.27078410  0.52100573  0.01650898  1
  Zn  Zn80  1  0.18449474  0.92431036  0.44391114  1
  Zn  Zn81  1  0.79364284  0.54871739  0.54042033  1
  Zn  Zn82  1  0.96495999  0.94160703  0.69991285  1
  Zn  Zn83  1  0.91161843  0.07240430  0.06844462  1
  Zn  Zn84  1  0.02123064  0.36683689  0.57852775  1
  Zn  Zn85  1  0.72176466  0.66336114  0.21296161  1
  Zn  Zn86  1  0.46946204  0.28234508  0.04600105  1
  Zn  Zn87  1  0.06670477  0.59048523  0.41007171  1
  Zn  Zn88  1  0.89402798  0.16211260  0.89006379  1
  Zn  Zn89  1  0.94819364  0.45435887  0.67649212  1
  Zn  Zn90  1  0.69497777  0.16802468  0.22085287  1
  Zn  Zn91  1  0.58401078  0.82838144  0.02553449  1
  Zn  Zn92  1  0.39689060  0.81423296  0.62829807  1
  Zn  Zn93  1  0.66071502  0.65485324  0.72441149  1
  Zn  Zn94  1  0.15038693  0.40262594  0.95180297  1
  Zn  Zn95  1  0.90248518  0.64868833  0.92066853  1
  Zn  Zn96  1  0.11457812  0.22752964  0.09468249  1
  Zn  Zn97  1  0.32622846  0.91393172  0.79536352  1
  Zn  Zn98  1  0.06033306  0.77811280  0.54368965  1
  Zn  Zn99  1  0.93332258  0.93532739  0.18658976  1
  Zn  Zn100  1  0.54849590  0.07111784  0.79585699  1
  Zn  Zn101  1  0.78965052  0.85982484  0.37782941  1
  O  O102  1  0.09536316  0.11505566  0.08335424  1
  O  O103  1  0.11304458  0.17050059  0.66191264  1
  O  O104  1  -0.00525715  0.73931828  0.08138055  1
  O  O105  1  0.15308921  0.61552470  0.64598549  1
  O  O106  1  0.59788448  0.14035661  0.17524739  1
  O  O107  1  0.66291517  0.12688669  0.56634918  1
  O  O108  1  0.60688654  0.62954876  0.19515931  1
  O  O109  1  0.58550139  0.64734329  0.64626527  1
  O  O110  1  0.40690648  0.39374402  0.39181649  1
  O  O111  1  0.36076208  0.27205589  1.02867523  1
  O  O112  1  0.36941748  0.87531744  0.33665150  1
  O  O113  1  0.37831275  0.88401548  0.89586309  1
  O  O114  1  0.89962007  0.39651451  0.37899500  1
  O  O115  1  0.79073934  0.47376019  0.89492500  1
  O  O116  1  0.97311507  0.93937676  0.43285121  1
  O  O117  1  0.92130494  0.89720076  0.88115402  1
  O  O118  1  0.22381875  0.02011760  0.38143602  1
  O  O119  1  0.30735667  0.06971591  0.95474328  1
  O  O120  1  0.25739248  0.53773314  0.36886666  1
  O  O121  1  0.32191745  0.48695051  0.81595126  1
  O  O122  1  0.76442385  -0.03772020  0.34586060  1
  O  O123  1  0.77523439  -0.02572766  0.88105381  1
  O  O124  1  0.79746799  0.48379539  0.31778937  1
  O  O125  1  0.64144166  0.57499577  0.79685333  1
  O  O126  1  0.22783312  0.49253425  0.13343919  1
  O  O127  1  0.19201587  0.47056035  0.59836986  1
  O  O128  1  0.25614249  1.02273169  0.11300502  1
  O  O129  1  0.23658066  0.98283456  0.59666323  1
  O  O130  1  0.80216605  0.45569711  0.13085715  1
  O  O131  1  0.72593456  0.48453547  0.59617274  1
  O  O132  1  0.77566444  0.88448176  0.12248921  1
  O  O133  1  0.78389929  1.01193114  0.61005905  1
  O  O134  1  0.02450575  0.37958170  0.29225210  1
  O  O135  1  -0.00947855  0.38161728  0.75542371  1
  O  O136  1  -0.00358818  0.92629439  0.27569949  1
  O  O137  1  0.03617091  0.88388142  0.76140162  1
  O  O138  1  0.45933678  0.35293548  0.25155685  1
  O  O139  1  0.52625025  0.42740392  0.75635251  1
  O  O140  1  0.46538982  0.88097428  0.24735015  1
  O  O141  1  0.51833544  0.92089040  0.80116159  1
  O  O142  1  0.49992877  0.11053520  0.25369261  1
  O  O143  1  0.46815569  0.13180117  0.75014339  1
  O  O144  1  0.37264893  0.66703522  0.32222427  1
  O  O145  1  0.45874796  0.69599508  0.72029936  1
  O  O146  1  1.09260387  0.12146207  0.33915142  1
  O  O147  1  0.96620518  0.17822582  0.72709605  1
  O  O148  1  0.97215980  0.67731030  0.25313593  1
  O  O149  1  0.96904278  0.64723621  0.70806447  1
  O  O150  1  0.23181865  0.21519841  0.11458772  1
  O  O151  1  0.39174612  0.30532337  0.51825782  1
  O  O152  1  0.34970005  0.76449835  0.00410206  1
  O  O153  1  0.36078441  0.75050692  0.46674174  1
  O  O154  1  0.68943146  0.31016010  -0.10899134  1
  O  O155  1  0.87755507  0.28854978  0.51520194  1
  O  O156  1  0.79173275  0.65659989  -0.04183983  1
  O  O157  1  0.95972225  0.80515967  0.52075836  1
  O  O158  1  0.16154142  0.13857159  0.48596296  1
  O  O159  1  0.10978060  0.21975451  0.97613141  1
  O  O160  1  0.16838574  0.75691982  0.52894091  1
  O  O161  1  0.14016436  0.74278214  1.00873214  1
  O  O162  1  0.62797543  0.29495629  0.48289520  1
  O  O163  1  0.55465911  0.25704599  0.99862555  1
  O  O164  1  0.62181464  0.76218071  0.49059834  1
  O  O165  1  0.64680380  0.74247501  1.00306965  1
  O  O166  1  0.47910836  0.21881319  0.14058716  1
  O  O167  1  0.52918493  0.19557908  0.62199443  1
  O  O168  1  0.53764379  0.71340426  0.12242201  1
  O  O169  1  0.46608242  0.74822857  0.57846664  1
  O  O170  1  1.01947466  0.27537692  0.12737389  1
  O  O171  1  0.96092789  0.28864077  0.63677004  1
  O  O172  1  0.93046492  0.73350988  0.05554659  1
  O  O173  1  1.03396044  0.66316967  0.54418490  1
  O  O174  1  0.02535628  0.27466523  0.41324585  1
  O  O175  1  -0.05818762  0.25593158  0.85125208  1
  O  O176  1  -0.02156739  0.79731697  0.36649621  1
  O  O177  1  -0.03488018  0.73986389  0.90063891  1
  O  O178  1  0.49152618  0.25908982  0.37653963  1
  O  O179  1  0.45691799  0.27479181  0.85435525  1
  O  O180  1  0.49002502  0.78495899  0.36194231  1
  O  O181  1  0.50183801  0.78658194  0.87196286  1
  O  O182  1  0.33429766  0.10064009  0.44084906  1
  O  O183  1  0.29885856  0.13447613  0.99096397  1
  O  O184  1  0.26155901  0.65884970  0.50653568  1
  O  O185  1  0.23217649  0.61948471  1.04409885  1
  O  O186  1  0.77962901  0.12348125  0.45941423  1
  O  O187  1  0.70740589  0.27814935  0.94975178  1
  O  O188  1  0.74650228  0.62558158  0.47685488  1
  O  O189  1  0.77578044  0.62143296  1.03168161  1
  O  O190  1  0.21542649  0.34043399  0.01683410  1
  O  O191  1  0.28940135  0.42519022  0.46839788  1
  O  O192  1  0.25697355  0.88405375  0.00578769  1
  O  O193  1  0.26521455  0.85802908  0.47930899  1
  O  O194  1  0.69688904  0.35514428  0.07816691  1
  O  O195  1  0.77191637  0.39052679  0.47475784  1
  O  O196  1  0.79204231  0.80049144  -0.00195583  1
  O  O197  1  0.82563198  0.89083516  0.47859723  1
  O  O198  1  0.21638382  0.55948273  0.30775152  1
  O  O199  1  0.12804682  0.46770867  0.77659412  1
  O  O200  1  0.11560560  0.99668251  0.19567250  1
  O  O201  1  0.11378222  0.99936961  0.82914156  1
  O  O202  1  0.66555815  0.49293291  0.23077010  1
  O  O203  1  0.50806399  0.49476070  0.78025622  1
  O  O204  1  0.69528644  0.99933734  0.19957806  1
  O  O205  1  0.70307204  0.92834186  0.72762043  1
  O  O206  1  0.35924071  0.01204553  0.23675422  1
  O  O207  1  0.33474704  0.02147379  0.74579415  1
  O  O208  1  0.37655006  0.50169062  0.24653125  1
  O  O209  1  0.33635272  0.48360848  0.74855734  1
  O  O210  1  0.85332573  0.00152649  0.22001558  1
  O  O211  1  0.86226786  -0.04210670  0.73876044  1
  O  O212  1  0.91892358  0.53071393  0.25732570  1
  O  O213  1  0.88260642  0.52748979  0.72057906  1
  O  O214  1  0.11866044  0.39986595  0.41619135  1
  O  O215  1  0.11689945  0.34250942  0.87047163  1
  O  O216  1  0.09593567  0.79113626  0.23792319  1
  O  O217  1  0.10532965  0.84743976  0.88808126  1
  O  O218  1  0.56901826  0.39814920  0.36529404  1
  O  O219  1  0.62735061  0.44534542  0.88183160  1
  O  O220  1  0.55685696  0.92507389  0.32819026  1
  O  O221  1  0.59323575  0.89763608  0.93248562  1
  O  O222  1  0.39656339  0.11816077  0.14503818  1
  O  O223  1  0.39951150  0.09381539  0.62032756  1
  O  O224  1  0.37361886  0.56760276  0.21789645  1
  O  O225  1  0.39739032  0.60026800  0.61175039  1
  O  O226  1  0.90023488  0.15659698  0.13155897  1
  O  O227  1  0.83186719  0.19253164  0.62130084  1
  O  O228  1  0.92081343  0.60406774  0.12393355  1
  O  O229  1  0.86129462  0.60275352  0.61423291  1
  O  O230  1  0.28618998  0.16212765  0.31222743  1
  O  O231  1  0.20469344  0.16653433  0.53231325  1
  O  O232  1  0.32206045  0.72618134  0.18044962  1
  O  O233  1  0.29415248  0.76866181  0.59145130  1
  O  O234  1  0.74553970  0.23861532  0.15865807  1
  O  O235  1  0.76140722  0.33003536  0.62980252  1
  O  O236  1  0.74337513  0.73886454  0.13134479  1
  O  O237  1  0.66119184  0.80583825  0.45059248  1
  O  O238  1  0.23705098  0.25673845  0.45089266  1
  O  O239  1  0.19817764  0.21249013  0.84083668  1
  O  O240  1  0.23173186  0.74811270  0.40028767  1
  O  O241  1  0.42478386  0.61987751  0.84873799  1
  O  O242  1  0.78312439  0.25389821  0.36415536  1
  O  O243  1  0.67592738  0.20281694  0.78774964  1
  O  O244  1  0.80491819  0.75045895  0.39111728  1
  O  O245  1  0.78341076  0.81073301  0.83963018  1
  O  O246  1  -0.04258357  0.14263153  -0.01304134  1
  O  O247  1  -0.01137404  0.14847376  0.56368041  1
  O  O248  1  0.07315101  0.59518330  0.03503348  1
  O  O249  1  -0.00460122  0.65038550  0.48417746  1
  O  O250  1  0.52964681  0.11158249  0.05938195  1
  O  O251  1  0.52178101  0.06266636  0.54155917  1
  O  O252  1  0.48726368  0.57911166  0.00647869  1
  O  O253  1  0.51600160  0.64007399  0.47780469  1
  O  O254  1  0.45965034  0.33845880  0.53467730  1
  O  O255  1  0.47179832  0.38461771  1.07816961  1
  O  O256  1  0.48054388  0.85989864  0.45196443  1
  O  O257  1  0.47097052  0.85972227  1.00356384  1
  O  O258  1  0.98452593  0.39954631  0.48452765  1
  O  O259  1  0.82496960  0.41878190  0.87349710  1
  O  O260  1  1.10511375  0.89621747  0.52717256  1
  O  O261  1  1.01169052  0.85044351  0.99360276  1
  O  O262  1  0.52358480  0.55399072  0.35275738  1
  O  O263  1  0.46003345  0.44307772  0.94938088  1
  O  O264  1  0.44429483  0.97584550  0.38360322  1
  O  O265  1  0.48757371  0.98008790  0.84213493  1
  O  O266  1  0.98838904  0.52173088  0.38001577  1
  O  O267  1  1.05502214  0.46267883  0.95916467  1
  O  O268  1  1.11906229  0.89213635  0.36271712  1
  O  O269  1  0.91957152  1.05751506  0.85461897  1
  O  O270  1  -0.01182007  -0.00321434  0.11126907  1
  O  O271  1  0.01753952  0.04412987  0.69634542  1
  O  O272  1  0.00559186  0.45866341  0.10576892  1
  O  O273  1  0.03370399  0.50435210  0.62281137  1
  O  O274  1  0.49601451  0.01715522  0.14639717  1
  O  O275  1  0.54391769  0.03128605  0.68843469  1
  O  O276  1  0.47473372  0.50200116  0.13384517  1
  O  O277  1  0.44914180  0.55936988  0.64730170  1
  O  O278  1  0.24257164  0.40923984  0.27668698  1
  O  O279  1  0.21081434  0.33987535  0.73542055  1
  O  O280  1  0.23125104  0.88214337  0.18318572  1
  O  O281  1  0.21522660  0.89548646  0.77533164  1
  O  O282  1  0.76344039  0.36974820  0.23183708  1
  O  O283  1  0.68879896  0.43119555  0.74075838  1
  O  O284  1  0.77787712  0.83841928  0.26701919  1
  O  O285  1  0.72378373  0.84290392  0.60016314  1
  O  O286  1  0.19219021  0.23133355  0.40480389  1
  O  O287  1  0.27842251  0.17059528  0.69349384  1
  O  O288  1  0.24955881  0.60834119  0.26048402  1
  O  O289  1  0.27152502  0.70032663  0.74473695  1
  O  O290  1  0.76429252  0.11419131  0.29155109  1
  O  O291  1  0.76288960  0.08199386  0.74475281  1
  O  O292  1  0.79019247  0.57892255  0.19636771  1
  O  O293  1  0.76806201  0.62624508  0.71761897  1
  O  O294  1  0.38020612  0.15162293  0.45294570  1
  O  O295  1  0.34775542  0.14433087  0.83744701  1
  O  O296  1  0.39258238  0.62127946  0.37182575  1
  O  O297  1  0.37807522  0.64592884  0.89110657  1
  O  O298  1  0.90870009  0.16461107  0.38769932  1
  O  O299  1  0.78466390  0.15430072  0.88875995  1
  O  O300  1  0.85895094  0.61400155  0.36426215  1
  O  O301  1  0.87161923  0.63482811  0.81107260  1
  O  O302  1  0.14469103  0.35681970  0.16511458  1
  O  O303  1  0.09610187  0.36815506  0.65650411  1
  O  O304  1  0.14013358  0.93503703  0.06728320  1
  O  O305  1  0.06835248  0.78105478  0.65773481  1
  O  O306  1  0.61323874  0.29818106  0.25658684  1
  O  O307  1  0.61058599  0.37551945  0.61538824  1
  O  O308  1  0.61880169  0.88051500  0.11479581  1
  O  O309  1  0.57485456  0.86193263  0.64891309  1
  O  O310  1  0.12588257  0.15399577  0.28689965  1
  O  O311  1  0.07410699  0.26665078  0.77178509  1
  O  O312  1  0.11053946  0.64610007  0.18347407  1
  O  O313  1  0.13684171  0.78705227  0.68532234  1
  O  O314  1  0.63967379  0.24204553  0.29293710  1
  O  O315  1  0.52643672  0.27968528  0.85703062  1
  O  O316  1  0.54784060  0.68556329  0.18760547  1
  O  O317  1  0.67109255  0.76236497  0.72893110  1
  O  O318  1  0.32808867  0.21826871  0.30959481  1
  O  O319  1  0.34494553  0.21384346  0.69288201  1
  O  O320  1  0.39168234  0.72034317  0.17686262  1
  O  O321  1  0.28698973  0.63220347  0.75860528  1
  O  O322  1  0.90174714  0.27844258  0.23138604  1
  O  O323  1  0.86122766  0.29536259  0.72996222  1
  O  O324  1  0.83755304  0.70825133  0.23554434  1
  O  O325  1  0.86105358  0.72542765  0.68679328  1
  O  O326  1  0.44121137  0.49496154  0.49359466  1
  O  O327  1  0.37489529  0.49679886  1.03524980  1
  O  O328  1  0.41164293  0.92136421  0.59832189  1
  O  O329  1  0.37082462  1.03643925  0.96250823  1
  O  O330  1  0.86374332  0.50557535  0.46624499  1
  O  O331  1  0.92288145  0.55165312  0.98344368  1
  O  O332  1  1.06322968  0.95026646  0.54936124  1
  O  O333  1  0.87330118  1.00217133  0.99594855  1
  O  O334  1  0.06888563  0.03222371  -0.02464607  1
  O  O335  1  0.22567281  0.00439399  0.52812742  1
  O  O336  1  0.22112170  0.48465643  -0.06890101  1
  O  O337  1  0.12494396  0.55183965  0.49406275  1
  O  O338  1  0.69567375  -0.00637973  0.03449712  1
  O  O339  1  0.65749143  -0.01404713  0.49310679  1
  O  O340  1  0.57663967  0.47889181  0.02869409  1
  O  O341  1  0.60566455  0.50411012  0.47949089  1
  O  O342  1  0.31246426  0.36083875  0.14521809  1
  O  O343  1  0.35004466  0.42007533  0.60518702  1
  O  O344  1  0.35968367  0.90581453  0.09656458  1
  O  O345  1  0.39515265  0.86755962  0.72066211  1
  O  O346  1  0.86066414  0.30932089  0.08422869  1
  O  O347  1  0.88272057  0.41131997  0.59151069  1
  O  O348  1  0.90509069  0.83163360  0.17502670  1
  O  O349  1  0.92487951  0.92699322  0.59999430  1
  O  O350  1  0.22206858  0.01831719  0.31100101  1
  O  O351  1  0.05806644  0.14640507  0.87207049  1
  O  O352  1  0.10580533  0.66322396  0.34034706  1
  O  O353  1  0.15164228  0.63189059  0.89784005  1
  O  O354  1  0.60694012  0.11973398  0.41509115  1
  O  O355  1  0.63908662  0.06658525  0.85902550  1
  O  O356  1  0.69612321  0.64016627  0.32381988  1
  O  O357  1  0.71977293  0.79143272  0.85943155  1
