# generated using pymatgen
data_V51Zn51O256
_symmetry_space_group_name_H-M   'P 1'
_cell_length_a   17.39862222
_cell_length_b   17.66108598
_cell_length_c   17.44303728
_cell_angle_alpha   89.86598823
_cell_angle_beta   91.25222323
_cell_angle_gamma   88.94452692
_symmetry_Int_Tables_number   1
_chemical_formula_structural   V51Zn51O256
_chemical_formula_sum   'V51 Zn51 O256'
_cell_volume   5357.66203563
_cell_formula_units_Z   1
loop_
 _symmetry_equiv_pos_site_id
 _symmetry_equiv_pos_as_xyz
  1  'x, y, z'
loop_
 _atom_site_type_symbol
 _atom_site_label
 _atom_site_symmetry_multiplicity
 _atom_site_fract_x
 _atom_site_fract_y
 _atom_site_fract_z
 _atom_site_occupancy
  V  V0  1  0.74285300  0.36545188  0.61441713  1
  V  V1  1  0.65467246  0.22745829  0.82408184  1
  V  V2  1  0.51616143  0.27521634  0.22401388  1
  V  V3  1  0.75189085  0.38221079  0.08802324  1
  V  V4  1  0.27252203  0.12767666  0.24761806  1
  V  V5  1  0.77543229  0.52779526  0.20883525  1
  V  V6  1  0.36699934  0.75554122  0.14703241  1
  V  V7  1  0.50014261  0.70271473  0.29351677  1
  V  V8  1  0.51161860  0.33704190  0.85005313  1
  V  V9  1  0.80093920  0.66297002  0.88359993  1
  V  V10  1  0.23151127  0.84652384  0.65005540  1
  V  V11  1  0.24031690  0.47582511  0.25244708  1
  V  V12  1  0.52699693  0.60437171  0.11834352  1
  V  V13  1  0.91083473  0.93441574  0.03924013  1
  V  V14  1  0.38998574  0.62342924  0.64631796  1
  V  V15  1  -0.04635234  0.10242458  0.61961747  1
  V  V16  1  0.80684431  0.78919000  0.00656627  1
  V  V17  1  0.49205767  0.19435653  0.71974401  1
  V  V18  1  0.11190887  0.05180937  0.15773448  1
  V  V19  1  0.22137454  0.61817577  0.38472127  1
  V  V20  1  0.12019369  0.08588967  0.47697305  1
  V  V21  1  0.05799021  0.58916624  0.05873461  1
  V  V22  1  0.11726696  0.76777113  0.38913279  1
  V  V23  1  0.60890230  0.77772428  0.92052972  1
  V  V24  1  0.00243972  0.75953261  0.24340057  1
  V  V25  1  0.61907605  0.65685587  0.56049562  1
  V  V26  1  0.51245322  0.02895615  0.06140492  1
  V  V27  1  0.30788428  -0.04787511  0.33342295  1
  V  V28  1  0.64752528  0.84211772  0.25064907  1
  V  V29  1  0.16098218  0.13945549  0.01619840  1
  V  V30  1  0.72662192  0.86777447  0.67335947  1
  V  V31  1  0.02816803  0.42967685  0.84991223  1
  V  V32  1  0.11686046  0.91697903  0.29560259  1
  V  V33  1  0.55963958  0.88027155  0.79234272  1
  V  V34  1  0.08565695  0.61607509  0.49478435  1
  V  V35  1  0.92358087  0.29610259  0.05536895  1
  V  V36  1  0.52359865  0.51051178  0.45118591  1
  V  V37  1  0.10933048  0.25502241  0.38559065  1
  V  V38  1  0.89203598  0.46541531  0.31084998  1
  V  V39  1  -0.02099344  0.93302679  0.85534677  1
  V  V40  1  0.76176841  0.24315339  -0.02516233  1
  V  V41  1  0.07573570  0.38107644  0.26305932  1
  V  V42  1  0.65941763  0.59867361  -0.01509425  1
  V  V43  1  -0.00680820  0.75678620  0.74624955  1
  V  V44  1  0.02754677  0.22216909  0.71451378  1
  V  V45  1  0.27164655  0.49334093  0.72405674  1
  V  V46  1  0.25637489  0.39338944  0.58020060  1
  V  V47  1  0.81689705  0.11972960  0.27073334  1
  V  V48  1  -0.05400923  -0.01307237  0.50235116  1
  V  V49  1  0.34748639  0.62400930  0.26398235  1
  V  V50  1  -0.04326798  0.86949216  0.38752329  1
  Zn  Zn51  1  0.42750092  0.79863239  0.73278239  1
  Zn  Zn52  1  0.70167450  0.69829771  0.13860905  1
  Zn  Zn53  1  0.58390828  0.30264063  0.02974097  1
  Zn  Zn54  1  0.89489133  0.37386202  0.71759959  1
  Zn  Zn55  1  0.07006514  0.40687027  0.06496245  1
  Zn  Zn56  1  0.09515328  0.59127284  0.78232722  1
  Zn  Zn57  1  0.75777509  0.35738071  0.40379261  1
  Zn  Zn58  1  0.92880251  0.90462694  0.66611070  1
  Zn  Zn59  1  0.09651683  0.96780950  0.98220585  1
  Zn  Zn60  1  0.58848818  0.82751961  0.06904664  1
  Zn  Zn61  1  0.75345817  0.88582132  0.36109139  1
  Zn  Zn62  1  0.35526046  0.32043998  0.73126532  1
  Zn  Zn63  1  0.30987423  0.28484435  0.25189066  1
  Zn  Zn64  1  0.21634771  0.64487781  0.60052003  1
  Zn  Zn65  1  0.23007819  0.60599700  0.13799038  1
  Zn  Zn66  1  0.67474363  0.40373781  0.92806846  1
  Zn  Zn67  1  0.45267286  0.47847483  0.26691788  1
  Zn  Zn68  1  0.08239997  0.86388781  0.11660125  1
  Zn  Zn69  1  0.94454843  0.15506133  0.40727159  1
  Zn  Zn70  1  0.77291138  0.56663927  0.58197227  1
  Zn  Zn71  1  0.98618433  0.62864925  0.36553971  1
  Zn  Zn72  1  1.04905588  0.26885391  0.91488193  1
  Zn  Zn73  1  0.74045240  0.01663986  0.51288174  1
  Zn  Zn74  1  0.47713015  0.89740452  0.22970725  1
  Zn  Zn75  1  0.10482531  0.59346176  0.24498323  1
  Zn  Zn76  1  0.90289054  0.48558367  0.10157977  1
  Zn  Zn77  1  0.40952645  0.64125457  0.44947120  1
  Zn  Zn78  1  0.45276976  0.69903724  0.99737836  1
  Zn  Zn79  1  0.28238447  -0.01500670  0.51837210  1
  Zn  Zn80  1  0.87550877  0.36055850  0.90506256  1
  Zn  Zn81  1  0.42936261  0.18420815  0.36876624  1
  Zn  Zn82  1  0.11926351  0.24030386  0.17917072  1
  Zn  Zn83  1  0.15406960  0.44777779  0.42691675  1
  Zn  Zn84  1  0.02023736  0.10733559  0.83349414  1
  Zn  Zn85  1  0.66990504  0.70182031  0.74130138  1
  Zn  Zn86  1  0.13055068  0.83457499  0.84046057  1
  Zn  Zn87  1  0.97792814  0.71806791  0.92874319  1
  Zn  Zn88  1  0.66307629  0.16915511  0.62921919  1
  Zn  Zn89  1  0.45649479  0.47706995  0.73891183  1
  Zn  Zn90  1  0.78417308  0.08005912  0.07340005  1
  Zn  Zn91  1  0.94911056  0.97295449  0.21967497  1
  Zn  Zn92  1  0.54188228  0.07034324  0.85269148  1
  Zn  Zn93  1  0.16231360  0.35880842  0.71463935  1
  Zn  Zn94  1  0.16137160  0.23706797  0.57561739  1
  Zn  Zn95  1  0.82766473  0.83403879  0.18105996  1
  Zn  Zn96  1  -0.00427726  0.27043182  0.52266196  1
  Zn  Zn97  1  0.04694592  0.80746467  0.55708394  1
  Zn  Zn98  1  0.22957294  0.78322717  0.26533132  1
  Zn  Zn99  1  0.56446397  0.83714034  0.59579679  1
  Zn  Zn100  1  0.59995349  0.54474732  0.27245980  1
  Zn  Zn101  1  0.34791183  0.09389653  0.06863051  1
  O  O102  1  0.11277880  0.15123412  0.11211123  1
  O  O103  1  0.12598529  0.13531753  0.56280058  1
  O  O104  1  0.12175617  0.62434924  0.13419845  1
  O  O105  1  0.10736507  0.62710177  0.59120058  1
  O  O106  1  0.69190305  0.13175115  0.10803670  1
  O  O107  1  0.49038034  0.24634305  0.50398756  1
  O  O108  1  0.62918574  0.62040139  0.08553889  1
  O  O109  1  0.61825784  0.64252601  0.65761976  1
  O  O110  1  0.39202397  0.39493781  0.38327492  1
  O  O111  1  0.41738088  0.31593386  0.82704780  1
  O  O112  1  0.52292460  0.90804769  0.39987576  1
  O  O113  1  0.35781511  0.95118603  0.86293077  1
  O  O114  1  0.84730504  0.39859553  0.36628647  1
  O  O115  1  0.92756339  0.40527605  0.82165930  1
  O  O116  1  0.86269231  0.85257121  0.37640025  1
  O  O117  1  0.92865053  0.90245573  0.93314587  1
  O  O118  1  0.31863461  -0.06794580  0.42931042  1
  O  O119  1  0.29864861  -0.01707024  0.88469783  1
  O  O120  1  0.22040242  0.51819829  0.36518704  1
  O  O121  1  0.34863937  0.51062595  0.78099125  1
  O  O122  1  0.72240214  -0.02678133  0.41451128  1
  O  O123  1  0.72002208  0.04097637  0.93678237  1
  O  O124  1  0.81175902  0.53712547  0.30635195  1
  O  O125  1  0.82212027  0.52065403  0.88525589  1
  O  O126  1  0.23262703  0.49411912  0.15675443  1
  O  O127  1  0.34005574  0.44584514  0.62936265  1
  O  O128  1  0.17464923  1.08226662  0.22963874  1
  O  O129  1  0.25199567  0.94162876  0.62336356  1
  O  O130  1  0.78616275  0.47796487  0.09197825  1
  O  O131  1  0.75055016  0.46701235  0.61203746  1
  O  O132  1  0.73472117  0.99022575  0.09837027  1
  O  O133  1  0.68823691  0.94933768  0.59752351  1
  O  O134  1  -0.01816182  0.40190377  0.26867332  1
  O  O135  1  -0.04772792  0.27939575  0.73151742  1
  O  O136  1  0.00266059  0.89493564  0.28727781  1
  O  O137  1  -0.03779735  0.88244234  0.77225607  1
  O  O138  1  0.48682423  0.37423853  0.23904406  1
  O  O139  1  0.51586103  0.43096918  0.81872372  1
  O  O140  1  0.52479053  0.79454684  0.27482750  1
  O  O141  1  0.47265001  0.84308114  0.82521363  1
  O  O142  1  0.51977415  0.17561938  0.22468497  1
  O  O143  1  0.47277439  0.12016742  0.78049649  1
  O  O144  1  0.44268786  0.59892358  0.28204709  1
  O  O145  1  0.40207479  0.69773877  0.70898898  1
  O  O146  1  0.91387376  0.16212554  0.29291749  1
  O  O147  1  1.01186524  0.11710776  0.71318833  1
  O  O148  1  1.01092963  0.65758368  0.25910147  1
  O  O149  1  1.05419920  0.67774691  0.73216108  1
  O  O150  1  0.29411414  0.30984341  -0.02167133  1
  O  O151  1  0.35101587  0.33827044  0.37743981  1
  O  O152  1  0.36447002  0.73292725  0.05020146  1
  O  O153  1  0.42402217  0.83023145  0.45839096  1
  O  O154  1  0.93828173  0.27547711  -0.04432764  1
  O  O155  1  0.82943199  0.21190234  0.48695857  1
  O  O156  1  0.90138694  0.76268315  0.00210591  1
  O  O157  1  0.86983845  0.70635280  0.58621323  1
  O  O158  1  0.10200675  0.28485645  0.48840509  1
  O  O159  1  0.12940429  0.22666787  0.98317059  1
  O  O160  1  0.10214034  0.74128234  0.48677076  1
  O  O161  1  0.13875103  0.85489899  1.01491608  1
  O  O162  1  0.42048350  0.23954844  0.46995631  1
  O  O163  1  0.67170080  0.23585113  1.00848169  1
  O  O164  1  0.58717707  0.74740054  0.53926530  1
  O  O165  1  0.67831242  0.78707500  0.99610423  1
  O  O166  1  0.53470119  0.27860018  0.12371055  1
  O  O167  1  0.55180505  0.16878710  0.64666050  1
  O  O168  1  0.48824883  0.68391268  0.15835051  1
  O  O169  1  0.44335937  0.80862741  0.52320038  1
  O  O170  1  0.97709432  0.24052993  0.10946507  1
  O  O171  1  0.98663137  0.20435097  0.60827853  1
  O  O172  1  1.02831797  0.77764594  0.15099999  1
  O  O173  1  0.99438844  0.80813783  0.65163388  1
  O  O174  1  -0.04632879  0.26179721  0.42380187  1
  O  O175  1  0.05411599  0.20902435  0.82038926  1
  O  O176  1  0.00277807  0.77120736  0.36587996  1
  O  O177  1  0.03447999  0.77426201  0.84744407  1
  O  O178  1  0.50350239  0.25923376  0.32544426  1
  O  O179  1  0.54870059  0.26168546  0.77682326  1
  O  O180  1  0.47974252  0.70016936  0.38944929  1
  O  O181  1  0.52579240  0.77820110  0.98391044  1
  O  O182  1  0.21424641  0.05597532  0.46723608  1
  O  O183  1  0.25929311  0.14318868  1.02867174  1
  O  O184  1  0.21811370  0.62391197  0.48444130  1
  O  O185  1  0.25673024  0.57697273  0.98725189  1
  O  O186  1  0.54624440  0.20849707  0.47499816  1
  O  O187  1  0.80846741  0.16127797  1.00268841  1
  O  O188  1  0.71458008  0.64240673  0.53495448  1
  O  O189  1  0.75610658  0.62524544  0.97394328  1
  O  O190  1  0.25945233  0.36914708  -0.03708474  1
  O  O191  1  0.24499537  0.40966885  0.48557148  1
  O  O192  1  0.21564169  0.83234580  -0.00331861  1
  O  O193  1  0.27330244  0.81660405  0.56271674  1
  O  O194  1  0.77923406  0.35478810  -0.04616271  1
  O  O195  1  0.74149839  0.37684868  0.51422778  1
  O  O196  1  0.81269091  0.88594130  0.01430498  1
  O  O197  1  0.67270153  0.87369317  0.57299574  1
  O  O198  1  0.12188366  0.47781084  0.25795660  1
  O  O199  1  0.19135933  0.53349716  0.76197577  1
  O  O200  1  0.10967440  0.99964804  0.33400950  1
  O  O201  1  0.20540909  1.05456582  0.77127222  1
  O  O202  1  0.68575940  0.49658194  0.22717866  1
  O  O203  1  0.63403533  0.51080994  0.75311149  1
  O  O204  1  0.58949831  0.92164474  0.24718794  1
  O  O205  1  0.54670634  0.97527192  0.79815166  1
  O  O206  1  0.39098462  -0.07261994  0.29011094  1
  O  O207  1  0.34550561  0.03980453  0.73107473  1
  O  O208  1  0.34043424  0.50928985  0.26540069  1
  O  O209  1  0.45998652  0.55591997  0.66394977  1
  O  O210  1  0.85221954  0.02195016  0.25411936  1
  O  O211  1  0.72278176  -0.02395275  0.91199107  1
  O  O212  1  0.86848657  0.46587977  0.20680753  1
  O  O213  1  0.88025304  0.52463646  0.71342337  1
  O  O214  1  0.11007032  0.36911372  0.36466831  1
  O  O215  1  0.08070587  0.39269012  0.77884403  1
  O  O216  1  0.11945561  0.86511811  0.39914652  1
  O  O217  1  0.08165157  0.93125464  0.87583057  1
  O  O218  1  0.65837234  0.34216248  0.37742468  1
  O  O219  1  0.63344091  0.32835942  0.85822360  1
  O  O220  1  0.66616372  0.81386127  0.34428097  1
  O  O221  1  0.60565262  0.87372440  0.89390956  1
  O  O222  1  0.32501852  0.09210389  0.17580592  1
  O  O223  1  0.32991660  0.09086350  0.68566471  1
  O  O224  1  0.33360465  0.63358579  0.16035306  1
  O  O225  1  0.39179625  0.65940066  0.55513954  1
  O  O226  1  0.83785556  0.11560441  0.16992350  1
  O  O227  1  0.86562681  0.11212122  0.64514057  1
  O  O228  1  0.96994310  0.56868522  0.09596049  1
  O  O229  1  0.85273506  0.57840501  0.67271016  1
  O  O230  1  0.23085509  0.21534740  0.20748106  1
  O  O231  1  0.25050130  0.29756431  0.60078785  1
  O  O232  1  0.27284424  0.78331077  0.16648136  1
  O  O233  1  0.21840713  0.74515627  0.65843546  1
  O  O234  1  0.82090786  0.29253576  0.07485895  1
  O  O235  1  0.72509105  0.26909878  0.60254392  1
  O  O236  1  0.78660690  0.76236824  0.10285942  1
  O  O237  1  0.72592796  0.77030459  0.67388433  1
  O  O238  1  0.19939623  0.23134856  0.38039948  1
  O  O239  1  0.31478599  0.14299553  0.85999406  1
  O  O240  1  0.21514499  0.73867801  0.37054940  1
  O  O241  1  0.22784696  0.83778127  0.92369624  1
  O  O242  1  0.78113938  0.24086603  0.44006900  1
  O  O243  1  0.75010344  0.22908574  0.87341967  1
  O  O244  1  0.84940788  0.75577560  0.54071328  1
  O  O245  1  0.78311159  0.75907499  0.90433570  1
  O  O246  1  0.08449611  0.08281342  -0.06351973  1
  O  O247  1  -0.05724702  0.09416333  0.50635032  1
  O  O248  1  0.05142875  0.65286045  -0.01584373  1
  O  O249  1  -0.01061224  0.63948150  0.47665733  1
  O  O250  1  0.46014333  0.12286362  0.06823419  1
  O  O251  1  0.45463268  0.07821203  0.39564106  1
  O  O252  1  0.47764661  0.59439491  0.03323615  1
  O  O253  1  0.56460915  0.59147698  0.49838287  1
  O  O254  1  0.52911110  0.40369991  0.47907979  1
  O  O255  1  0.51218261  0.32327705  0.94933542  1
  O  O256  1  0.50494830  0.95506644  0.56837317  1
  O  O257  1  0.55253588  0.93695223  1.05408825  1
  O  O258  1  1.00624703  0.38637571  0.57892628  1
  O  O259  1  1.05609615  0.38087524  0.93531491  1
  O  O260  1  0.97816033  0.87354902  0.49172823  1
  O  O261  1  1.01441419  0.93204167  1.05069177  1
  O  O262  1  0.53719534  0.49566943  0.34998204  1
  O  O263  1  0.68902591  0.49632988  0.79677434  1
  O  O264  1  0.58030877  0.90502793  0.44132555  1
  O  O265  1  0.52933709  1.04135757  0.96195131  1
  O  O266  1  0.95569650  0.52286315  0.35729600  1
  O  O267  1  1.03991154  0.52548453  0.84930369  1
  O  O268  1  0.95139477  0.97477929  0.39824971  1
  O  O269  1  0.95311368  1.02704032  0.84316775  1
  O  O270  1  0.01744699  0.04930239  0.18229566  1
  O  O271  1  -0.02984085  -0.00511000  0.61296771  1
  O  O272  1  0.09943390  0.50409501  0.02998606  1
  O  O273  1  -0.01211880  0.41931314  0.63985340  1
  O  O274  1  0.48953215  0.00051259  0.15595802  1
  O  O275  1  0.43013371  -0.04461721  0.57533867  1
  O  O276  1  0.52082001  0.52508728  0.17852537  1
  O  O277  1  0.54442439  0.44618414  0.54011676  1
  O  O278  1  0.25615466  0.38079615  0.25904817  1
  O  O279  1  0.26482459  0.38788006  0.74782737  1
  O  O280  1  0.22717320  0.89624658  0.29603304  1
  O  O281  1  0.18654279  0.86081692  0.74293545  1
  O  O282  1  0.73911611  0.36032072  0.17707001  1
  O  O283  1  0.77991179  0.36556831  0.71633813  1
  O  O284  1  0.74438104  0.87710485  0.23953840  1
  O  O285  1  0.66640294  0.89037623  0.74787912  1
  O  O286  1  0.28877792  0.04902636  0.32123363  1
  O  O287  1  0.20346161  0.10810300  0.72626391  1
  O  O288  1  0.22527653  0.62015146  0.26458437  1
  O  O289  1  0.29226510  0.58308332  0.65611566  1
  O  O290  1  0.72339229  0.09262833  0.28033332  1
  O  O291  1  0.70899571  0.11053153  0.55384120  1
  O  O292  1  0.77009088  0.61852290  0.17692644  1
  O  O293  1  0.75108781  0.64387593  0.80090070  1
  O  O294  1  0.34001417  0.18767693  0.30481919  1
  O  O295  1  0.36502892  0.17089025  0.90085530  1
  O  O296  1  0.32413944  0.63568909  0.37124342  1
  O  O297  1  0.40894937  0.67548236  0.88076530  1
  O  O298  1  0.83541557  0.10494797  0.37241547  1
  O  O299  1  0.80521702  0.09209643  0.80524665  1
  O  O300  1  0.91196657  0.49216137  0.51791075  1
  O  O301  1  0.89750740  0.64957396  0.88385150  1
  O  O302  1  0.09938092  0.35392758  0.16182387  1
  O  O303  1  0.18362544  0.43990238  0.62755122  1
  O  O304  1  0.12010267  0.93870732  0.19147228  1
  O  O305  1  0.13846761  0.85912571  0.60760424  1
  O  O306  1  0.65797467  0.38463950  0.04662517  1
  O  O307  1  0.65084174  0.37422203  0.64381670  1
  O  O308  1  0.63410229  0.78472134  0.16232879  1
  O  O309  1  0.52414009  0.84506195  0.69390364  1
  O  O310  1  0.07604394  0.26928540  0.28124392  1
  O  O311  1  0.11106672  0.26661804  0.67901127  1
  O  O312  1  0.11108014  0.78909815  0.27484160  1
  O  O313  1  0.20020500  0.72205961  0.84214106  1
  O  O314  1  0.61080683  0.29770971  0.23453815  1
  O  O315  1  0.68539566  0.19582269  0.73707548  1
  O  O316  1  0.58642224  0.65231132  0.28185147  1
  O  O317  1  0.61127153  0.75419384  0.82069957  1
  O  O318  1  0.41089486  0.28202933  0.19593600  1
  O  O319  1  0.40485494  0.23225809  0.68776920  1
  O  O320  1  0.38414735  0.72353336  0.25916111  1
  O  O321  1  0.33856610  0.66631934  0.87139883  1
  O  O322  1  0.78078095  0.21146719  0.26055525  1
  O  O323  1  0.77124298  0.04343074  0.76906398  1
  O  O324  1  0.90569998  0.77545437  0.24055822  1
  O  O325  1  0.90597829  0.72663599  0.75110627  1
  O  O326  1  0.42958774  0.52951465  0.45541775  1
  O  O327  1  0.41257596  0.42408248  1.03347884  1
  O  O328  1  0.39109183  1.01865897  0.55355686  1
  O  O329  1  0.40996545  1.00520042  1.03203994  1
  O  O330  1  0.85716927  0.53624289  0.49960940  1
  O  O331  1  0.86878541  0.49777915  0.93578090  1
  O  O332  1  0.85103003  0.97487214  0.51646393  1
  O  O333  1  0.88166223  1.02463418  1.03301290  1
  O  O334  1  0.14863337  0.02707914  0.06351496  1
  O  O335  1  0.06705638  0.00848461  0.49459186  1
  O  O336  1  0.29776768  0.53297032  -0.04898223  1
  O  O337  1  0.09108744  0.52017113  0.47932580  1
  O  O338  1  0.59296264  0.07544845  0.08794513  1
  O  O339  1  0.56458200  0.06231732  0.46692752  1
  O  O340  1  0.65133447  0.50947935  -0.04974781  1
  O  O341  1  0.66093911  0.49178121  0.43970942  1
  O  O342  1  0.36406998  0.43343409  0.08315429  1
  O  O343  1  0.40269991  0.40064311  0.66158377  1
  O  O344  1  0.42480384  0.83355805  0.15172369  1
  O  O345  1  0.32136624  0.84274879  0.70231771  1
  O  O346  1  0.95474103  0.39133561  0.06698212  1
  O  O347  1  0.85116172  0.34887794  0.61471373  1
  O  O348  1  0.89612848  0.91158083  0.13976646  1
  O  O349  1  0.82000743  0.89708425  0.67975222  1
  O  O350  1  0.07050724  0.15376206  0.40470713  1
  O  O351  1  0.16551100  0.08773463  0.92151541  1
  O  O352  1  0.11185391  0.63937974  0.37847424  1
  O  O353  1  0.17470082  0.66057668  0.86581918  1
  O  O354  1  0.53404067  0.06485064  0.40100464  1
  O  O355  1  0.61508225  0.15151380  0.86836619  1
  O  O356  1  0.69414708  0.53843838  0.39932908  1
  O  O357  1  0.60606247  0.65755925  0.92862192  1
