# generated using pymatgen
data_V51Zn51O256
_symmetry_space_group_name_H-M   'P 1'
_cell_length_a   18.10246298
_cell_length_b   17.66805619
_cell_length_c   18.04873084
_cell_angle_alpha   90.22783284
_cell_angle_beta   88.16700332
_cell_angle_gamma   88.54321807
_symmetry_Int_Tables_number   1
_chemical_formula_structural   V51Zn51O256
_chemical_formula_sum   'V51 Zn51 O256'
_cell_volume   5767.73691180
_cell_formula_units_Z   1
loop_
 _symmetry_equiv_pos_site_id
 _symmetry_equiv_pos_as_xyz
  1  'x, y, z'
loop_
 _atom_site_type_symbol
 _atom_site_label
 _atom_site_symmetry_multiplicity
 _atom_site_fract_x
 _atom_site_fract_y
 _atom_site_fract_z
 _atom_site_occupancy
  V  V0  1  0.28280730  0.72313203  0.01166162  1
  V  V1  1  0.00677374  0.83764628  0.38190693  1
  V  V2  1  0.64726686  0.22564971  0.38545144  1
  V  V3  1  0.41161628  0.10512249  0.23399947  1
  V  V4  1  0.54636330  0.43227329  0.87481107  1
  V  V5  1  0.66057449  0.83217879  0.66256079  1
  V  V6  1  0.02628924  0.38506939  0.83023958  1
  V  V7  1  0.22491330  0.77800858  0.49600300  1
  V  V8  1  0.30534117  0.37348995  -0.04058486  1
  V  V9  1  0.37440395  0.26280466  0.10630629  1
  V  V10  1  0.16882084  -0.02972032  0.16170908  1
  V  V11  1  0.29441358  0.12566472  0.36452799  1
  V  V12  1  0.38702367  0.86102219  0.48283833  1
  V  V13  1  0.16685311  0.77508617  0.89452127  1
  V  V14  1  0.77159081  0.52215799  0.71797225  1
  V  V15  1  0.82746550  0.17208669  0.91201628  1
  V  V16  1  0.50198209  0.26814304  0.79164768  1
  V  V17  1  0.03948105  -0.04256772  0.05547447  1
  V  V18  1  0.47459169  0.82064542  0.35462414  1
  V  V19  1  0.96704243  0.04954169  0.39675149  1
  V  V20  1  0.55131364  0.16274691  -0.04358274  1
  V  V21  1  0.62523308  0.48676894  0.59125437  1
  V  V22  1  -0.03241189  0.75918521  0.73384675  1
  V  V23  1  0.41938394  0.87964135  0.00101754  1
  V  V24  1  0.31814952  0.53727553  0.37093210  1
  V  V25  1  0.48419238  0.73015105  0.78285040  1
  V  V26  1  0.41478911  0.39600654  0.38523294  1
  V  V27  1  0.37980932  0.74696218  0.15686841  1
  V  V28  1  0.20466958  0.14557727  0.89899147  1
  V  V29  1  0.64368784  0.64746669  -0.02601389  1
  V  V30  1  0.64562798  0.59358843  0.46489642  1
  V  V31  1  0.11436287  0.53729746  0.62677829  1
  V  V32  1  0.12063879  0.48785251  0.12145565  1
  V  V33  1  0.08879932  0.62317917  -0.01184977  1
  V  V34  1  0.62357118  -0.02935083  0.11095697  1
  V  V35  1  0.88434233  1.00424541  0.55761597  1
  V  V36  1  0.47999023  0.59275935  0.59384805  1
  V  V37  1  0.89797669  0.49019281  0.39124814  1
  V  V38  1  0.13903367  0.83594291  0.26295641  1
  V  V39  1  0.17916109  0.14045840  0.49423591  1
  V  V40  1  -0.00440889  0.71822308  0.24677224  1
  V  V41  1  0.53636832  0.63456727  0.14654450  1
  V  V42  1  0.53915538  0.45046217  0.16157152  1
  V  V43  1  0.83012581  0.40291744  0.02473245  1
  V  V44  1  0.73652995  0.57140424  0.24708987  1
  V  V45  1  0.75862033  0.02618527  0.80052555  1
  V  V46  1  0.51912004  0.03664397  0.62236326  1
  V  V47  1  0.22305450  0.53778033  0.23924304  1
  V  V48  1  0.68964066  0.32802046  0.13846878  1
  V  V49  1  0.68932037  0.89423567  0.24638800  1
  V  V50  1  0.39571674  0.30499470  0.63725939  1
  Zn  Zn51  1  0.99667293  0.13439062  0.53033992  1
  Zn  Zn52  1  0.30598049  0.28212198  0.46418257  1
  Zn  Zn53  1  0.01104335  0.10952421  0.92622809  1
  Zn  Zn54  1  0.42897826  0.05636176  0.43363835  1
  Zn  Zn55  1  0.82042039  0.36310611  0.83671507  1
  Zn  Zn56  1  0.21647582  0.88518388  1.00737888  1
  Zn  Zn57  1  0.23174281  0.26003997  0.62421582  1
  Zn  Zn58  1  0.74366592  0.40017619  0.31778424  1
  Zn  Zn59  1  0.53741956  0.33304367  0.52736247  1
  Zn  Zn60  1  0.45133592  0.92225722  0.19455262  1
  Zn  Zn61  1  0.59021875  0.58648332  0.80219382  1
  Zn  Zn62  1  0.27386229  0.98745978  0.47071612  1
  Zn  Zn63  1  0.29236937  0.29076112  0.79595729  1
  Zn  Zn64  1  0.13941608  0.46188094  0.92987742  1
  Zn  Zn65  1  0.03700762  0.81347963  0.55895478  1
  Zn  Zn66  1  0.53622755  0.33006139  0.03188006  1
  Zn  Zn67  1  0.59659874  0.10736920  0.76944749  1
  Zn  Zn68  1  0.37163642  0.40789611  0.22056158  1
  Zn  Zn69  1  0.83655148  0.88070100  0.68195555  1
  Zn  Zn70  1  0.60846569  0.08147059  0.23972468  1
  Zn  Zn71  1  0.01814004  0.51436967  0.25029747  1
  Zn  Zn72  1  0.63336571  0.65152432  0.66552484  1
  Zn  Zn73  1  0.94400768  0.55185125  0.07561542  1
  Zn  Zn74  1  0.78540734  0.71179752  0.73805620  1
  Zn  Zn75  1  0.25716956  0.12994147  0.16654783  1
  Zn  Zn76  1  0.26948354  0.71694722  0.31171906  1
  Zn  Zn77  1  0.72791976  0.49390185  0.90292675  1
  Zn  Zn78  1  0.51016835  0.42271782  0.68848585  1
  Zn  Zn79  1  0.48308318  0.85066921  0.64023026  1
  Zn  Zn80  1  0.84648015  0.65006553  0.30473133  1
  Zn  Zn81  1  0.36511180  0.77894708  0.87315810  1
  Zn  Zn82  1  1.00805547  0.97230691  0.25078616  1
  Zn  Zn83  1  0.26521929  0.53033391  0.03890603  1
  Zn  Zn84  1  0.77030795  0.56794233  0.07671839  1
  Zn  Zn85  1  0.15172839  0.00144157  0.35598076  1
  Zn  Zn86  1  0.60170778  0.79491356  0.07307002  1
  Zn  Zn87  1  0.86726002  0.84327397  0.26872219  1
  Zn  Zn88  1  0.69681740  0.14289286  0.06696738  1
  Zn  Zn89  1  0.66341673  0.72535002  0.35267970  1
  Zn  Zn90  1  0.10338080  0.76884731  0.09755658  1
  Zn  Zn91  1  0.06564153  0.34708642  0.63434264  1
  Zn  Zn92  1  0.05090221  0.59030503  0.81229357  1
  Zn  Zn93  1  0.56037602  0.75870281  0.51427024  1
  Zn  Zn94  1  0.39011196  0.20222647  0.94305964  1
  Zn  Zn95  1  0.29708745  0.60394315  0.56134412  1
  Zn  Zn96  1  0.92401314  0.46573413  0.58921941  1
  Zn  Zn97  1  0.48915582  0.72248333  0.97750221  1
  Zn  Zn98  1  0.17975845  0.50669587  0.44326479  1
  Zn  Zn99  1  0.62977113  1.02206153  0.93552053  1
  Zn  Zn100  1  0.52286367  0.53747500  0.32275699  1
  Zn  Zn101  1  0.70746520  0.00507536  0.63178869  1
  O  O102  1  0.17302932  0.06879248  0.15992094  1
  O  O103  1  0.21268438  0.11148904  0.69124842  1
  O  O104  1  0.10671302  0.65943169  0.07434621  1
  O  O105  1  0.08508428  0.62644533  0.60135603  1
  O  O106  1  0.61229070  0.10840829  0.01165362  1
  O  O107  1  0.61057884  0.02143434  0.59446991  1
  O  O108  1  0.56180786  0.53472388  0.11567439  1
  O  O109  1  0.63190641  0.59779726  0.57133345  1
  O  O110  1  0.32604096  0.38273062  0.41908954  1
  O  O111  1  0.33259180  0.35420695  0.86834407  1
  O  O112  1  0.38139512  0.81339745  0.38905503  1
  O  O113  1  0.41632780  0.86551136  0.90479550  1
  O  O114  1  0.82731761  0.42809497  0.37145435  1
  O  O115  1  0.93225721  0.37682376  0.84515519  1
  O  O116  1  0.90567701  0.99570534  0.45798638  1
  O  O117  1  0.83014120  0.83157313  0.86562991  1
  O  O118  1  0.25299907  0.00578433  0.36781710  1
  O  O119  1  0.21196789  0.05623672  0.93954697  1
  O  O120  1  0.21853604  0.51709633  0.34667624  1
  O  O121  1  0.11471035  0.56564878  0.89170140  1
  O  O122  1  0.76736865  0.00573797  0.38143335  1
  O  O123  1  0.71005248  -0.01572625  0.87102751  1
  O  O124  1  0.69794305  0.49647363  0.29372395  1
  O  O125  1  0.77414547  0.46569976  0.79933796  1
  O  O126  1  0.22605704  0.51539979  0.13828589  1
  O  O127  1  0.20900498  0.55753589  0.62027474  1
  O  O128  1  0.25419636  0.94234525  0.16641846  1
  O  O129  1  0.22958335  1.04704912  0.70883462  1
  O  O130  1  0.70151920  0.57667240  0.15835398  1
  O  O131  1  0.70608033  0.47391348  0.63707236  1
  O  O132  1  0.66392568  1.05762266  0.14062326  1
  O  O133  1  0.69455647  1.06013220  0.73409426  1
  O  O134  1  0.05365539  0.25427537  0.11688820  1
  O  O135  1  0.02504115  0.36851579  0.73505146  1
  O  O136  1  -0.04424278  0.88739300  0.30884444  1
  O  O137  1  -0.04053939  0.84925244  0.79603529  1
  O  O138  1  0.42344712  0.35439433  0.29966108  1
  O  O139  1  0.52396363  0.37249205  0.79085308  1
  O  O140  1  0.48147148  0.89605947  0.29717780  1
  O  O141  1  0.48069234  0.81612874  0.73867950  1
  O  O142  1  0.50556378  0.11718065  0.22574132  1
  O  O143  1  0.51826408  0.06856662  0.71231576  1
  O  O144  1  0.52347450  0.60981250  0.23649886  1
  O  O145  1  0.54285747  0.66204517  0.73425409  1
  O  O146  1  1.08384102  0.24854195  0.33817337  1
  O  O147  1  1.04383832  0.03897896  0.82000448  1
  O  O148  1  0.99928081  0.62388656  0.24612978  1
  O  O149  1  0.99057221  0.67426476  0.77553097  1
  O  O150  1  0.34298329  0.28534335  0.00969131  1
  O  O151  1  0.33774185  0.30730605  0.56180809  1
  O  O152  1  0.37910385  0.72863832  -0.01332291  1
  O  O153  1  0.38987648  0.67839414  0.47010334  1
  O  O154  1  0.89839242  0.34144743  0.02806791  1
  O  O155  1  0.73300473  0.20825956  0.63135132  1
  O  O156  1  0.90645168  0.74603498  0.04609246  1
  O  O157  1  0.81659419  0.78270283  0.49423875  1
  O  O158  1  0.23302131  0.21628982  0.52453254  1
  O  O159  1  0.24305966  0.19164764  1.06649220  1
  O  O160  1  0.13873630  0.80726671  0.52817453  1
  O  O161  1  0.19369537  0.77650806  1.02757668  1
  O  O162  1  0.62089912  0.28212168  0.46527482  1
  O  O163  1  0.58550924  0.25150547  0.97216880  1
  O  O164  1  0.63688524  0.70417808  0.45624803  1
  O  O165  1  0.67236198  0.73383501  1.00624850  1
  O  O166  1  0.46432369  0.28234028  0.10105818  1
  O  O167  1  0.47844977  0.27177026  0.59610379  1
  O  O168  1  0.59189539  0.71121912  0.14711637  1
  O  O169  1  0.50446299  0.68777331  0.57843580  1
  O  O170  1  1.06523789  0.18613636  0.10558226  1
  O  O171  1  0.97658025  0.36987466  0.59335155  1
  O  O172  1  1.00504783  0.75270984  0.15952662  1
  O  O173  1  1.00834659  0.76692759  0.64784227  1
  O  O174  1  -0.04607304  0.20747058  0.26742952  1
  O  O175  1  0.04475843  0.28866998  0.84334144  1
  O  O176  1  -0.00786869  0.74636644  0.35869295  1
  O  O177  1  0.03144050  0.82842148  0.78409012  1
  O  O178  1  0.59809284  0.27126101  0.31357424  1
  O  O179  1  0.47289132  0.23204366  0.87660490  1
  O  O180  1  0.48769239  0.73659569  0.29255819  1
  O  O181  1  0.51283215  0.73796480  0.87237201  1
  O  O182  1  0.32715337  0.09403177  0.45395684  1
  O  O183  1  0.20079843  0.19194339  1.00906901  1
  O  O184  1  0.26001832  0.70848975  0.55222297  1
  O  O185  1  0.25910186  0.63140288  1.00302775  1
  O  O186  1  0.72308489  -0.01680282  0.42858654  1
  O  O187  1  0.77764278  0.15313533  0.99273960  1
  O  O188  1  0.73224034  0.58396457  0.43934196  1
  O  O189  1  0.83693967  0.66419330  0.92226780  1
  O  O190  1  0.21123286  0.38341930  -0.04052389  1
  O  O191  1  0.16419367  0.38243823  0.44456996  1
  O  O192  1  0.32093396  0.87581267  0.02191802  1
  O  O193  1  0.28375978  0.86562127  0.49382044  1
  O  O194  1  0.80637720  0.42081168  -0.06719637  1
  O  O195  1  0.77521633  0.35103702  0.54696157  1
  O  O196  1  0.76229082  0.81585614  -0.12392929  1
  O  O197  1  0.79517529  1.03440975  0.57534009  1
  O  O198  1  0.12836177  0.50090288  0.22988893  1
  O  O199  1  0.11523276  0.55539886  0.72328797  1
  O  O200  1  0.12080672  0.95647825  0.25890419  1
  O  O201  1  0.08264524  0.92374316  0.65586048  1
  O  O202  1  0.55018024  0.45443306  0.25409466  1
  O  O203  1  0.67527901  0.57037406  0.73277048  1
  O  O204  1  0.64648132  0.97892465  0.27029986  1
  O  O205  1  0.62795466  0.86777560  0.74056481  1
  O  O206  1  0.39694892  0.01786675  0.20232316  1
  O  O207  1  0.25684527  -0.07588481  0.78551998  1
  O  O208  1  0.31588017  0.49820912  0.25716590  1
  O  O209  1  0.36249827  0.53313360  0.75423175  1
  O  O210  1  0.94755169  0.04775960  0.30427940  1
  O  O211  1  0.81669336  -0.03930878  0.75790779  1
  O  O212  1  0.83022133  0.55790734  0.23532404  1
  O  O213  1  0.84385648  0.48658025  0.65861330  1
  O  O214  1  -0.05596128  0.31951373  0.41889689  1
  O  O215  1  0.12313697  0.41145451  0.82265192  1
  O  O216  1  0.09870362  0.86050632  0.36164700  1
  O  O217  1  0.15776129  0.87054967  0.91345550  1
  O  O218  1  0.71033210  0.30355779  0.36306987  1
  O  O219  1  0.63899834  0.43624217  0.88556246  1
  O  O220  1  0.54383438  0.73652454  0.34415313  1
  O  O221  1  0.37934260  1.00340602  0.84032296  1
  O  O222  1  0.36514073  0.17074749  0.15226370  1
  O  O223  1  0.45279554  0.11516532  0.58407943  1
  O  O224  1  0.44600202  0.67282572  0.12601527  1
  O  O225  1  0.38468131  0.59194094  0.61495858  1
  O  O226  1  0.89493324  0.21261614  0.11388081  1
  O  O227  1  0.69693671  0.26598196  0.64767810  1
  O  O228  1  0.85945353  0.63469514  0.09312878  1
  O  O229  1  0.86185784  0.63253189  0.52813001  1
  O  O230  1  0.18132825  0.24078446  0.22821179  1
  O  O231  1  0.30289887  0.27655656  0.69561855  1
  O  O232  1  0.29601399  0.73184124  0.11295743  1
  O  O233  1  0.44618580  0.66843165  0.43178301  1
  O  O234  1  0.68805333  0.23192407  0.13183147  1
  O  O235  1  0.87525560  0.26657804  0.71832631  1
  O  O236  1  0.85333230  0.71717333  0.08013964  1
  O  O237  1  0.90587802  0.66964442  0.56249719  1
  O  O238  1  0.30704505  0.22093557  0.37584061  1
  O  O239  1  0.21267800  0.23814300  0.85537186  1
  O  O240  1  0.22211804  0.73802995  0.41040694  1
  O  O241  1  0.26547148  0.75255477  0.90793901  1
  O  O242  1  0.72555560  0.17993749  0.41851088  1
  O  O243  1  0.80908908  0.26050690  0.87888644  1
  O  O244  1  0.79348614  0.84104646  0.46503355  1
  O  O245  1  0.73311984  0.76317635  0.83267181  1
  O  O246  1  0.01547688  -0.01438838  0.14451947  1
  O  O247  1  0.09101489  0.16943252  0.52194974  1
  O  O248  1  -0.00199551  0.59837988  -0.00700519  1
  O  O249  1  0.03472073  0.62226505  0.43579625  1
  O  O250  1  0.46541599  0.14936566  -0.00203634  1
  O  O251  1  0.49062701  0.08805421  0.52237299  1
  O  O252  1  0.55423715  0.63901975  0.01456807  1
  O  O253  1  0.49003070  0.54944678  0.51288825  1
  O  O254  1  0.47959612  0.36360315  0.44529837  1
  O  O255  1  0.50542318  0.40183468  0.95650610  1
  O  O256  1  0.50137657  0.83703453  0.44883045  1
  O  O257  1  0.50814055  0.82038983  1.02584658  1
  O  O258  1  0.96599342  0.29063834  0.47577315  1
  O  O259  1  1.03951106  0.40315086  0.92814362  1
  O  O260  1  0.98589013  0.84777063  0.47485236  1
  O  O261  1  1.03959877  0.85347815  1.02317288  1
  O  O262  1  0.41762518  0.49977425  0.36720619  1
  O  O263  1  0.51785424  0.52128011  0.84979868  1
  O  O264  1  0.53371116  1.02041699  0.38227972  1
  O  O265  1  0.36859316  1.03195144  0.77977222  1
  O  O266  1  0.97464611  0.46550920  0.33199329  1
  O  O267  1  1.00439915  0.48735635  0.81276732  1
  O  O268  1  1.05749899  1.01777014  0.40522677  1
  O  O269  1  1.01982002  1.02768971  0.99472707  1
  O  O270  1  -0.03172296  -0.11615920  0.03801268  1
  O  O271  1  0.08090631  0.05850339  0.76396722  1
  O  O272  1  0.02193126  0.51042093  0.13632302  1
  O  O273  1  0.01614506  0.51526242  0.63140478  1
  O  O274  1  0.53509267  -0.03048556  0.14060502  1
  O  O275  1  0.46920292  -0.04321317  0.62229022  1
  O  O276  1  0.44841727  0.43881799  0.14695380  1
  O  O277  1  0.53740081  0.52538370  0.65407388  1
  O  O278  1  0.10493819  0.35521095  0.46971344  1
  O  O279  1  0.31802018  0.48394832  0.76787407  1
  O  O280  1  0.22798897  0.81632703  0.27459324  1
  O  O281  1  0.19421618  0.91877597  0.76394339  1
  O  O282  1  0.72645466  0.35317408  0.21894832  1
  O  O283  1  0.83004443  0.32933813  0.72556122  1
  O  O284  1  0.78503559  0.90117096  0.24437751  1
  O  O285  1  0.73488791  0.89250943  0.63525674  1
  O  O286  1  0.29286695  0.11842415  0.26475311  1
  O  O287  1  0.20768741  0.10394841  0.81358452  1
  O  O288  1  0.22311096  0.63197012  0.24518650  1
  O  O289  1  0.26056958  0.63587128  0.78080885  1
  O  O290  1  0.91267137  0.14560091  0.12039332  1
  O  O291  1  0.80612563  0.10384330  0.83912900  1
  O  O292  1  0.73301679  0.66223387  0.29657542  1
  O  O293  1  0.81195185  0.60720710  0.73986417  1
  O  O294  1  0.40490537  0.10020008  0.33511238  1
  O  O295  1  0.30249759  0.15302011  0.90858004  1
  O  O296  1  0.33034340  0.62665829  0.34948523  1
  O  O297  1  0.24868726  0.60271635  0.83894636  1
  O  O298  1  0.95891752  0.14030730  0.42948443  1
  O  O299  1  0.92201699  0.16335020  0.92394431  1
  O  O300  1  0.88152006  0.58660197  0.38059027  1
  O  O301  1  0.88882587  0.70722648  0.91449318  1
  O  O302  1  0.12534646  0.39743058  0.10679631  1
  O  O303  1  0.13131849  0.43342739  0.64125836  1
  O  O304  1  0.12675665  0.85372677  0.16595074  1
  O  O305  1  0.11931837  0.98002395  0.64353790  1
  O  O306  1  0.59640714  0.36984874  0.11948903  1
  O  O307  1  0.58105283  0.39438270  0.60319563  1
  O  O308  1  0.65880090  0.87819353  0.14891168  1
  O  O309  1  0.58717248  0.82679308  0.59877806  1
  O  O310  1  0.06465469  0.31179480  0.31755196  1
  O  O311  1  0.12983613  0.26815571  0.64961624  1
  O  O312  1  0.09615668  0.74845777  0.26431001  1
  O  O313  1  0.15990924  0.76330961  0.80492970  1
  O  O314  1  0.65577105  0.15192645  0.31283683  1
  O  O315  1  0.57842320  0.21884360  0.76061601  1
  O  O316  1  0.66439972  0.82597122  0.30750873  1
  O  O317  1  0.69952054  0.73771928  0.67646089  1
  O  O318  1  0.16733551  0.30875854  0.21919959  1
  O  O319  1  0.43083285  0.25504453  0.73445917  1
  O  O320  1  0.35899709  0.73539042  0.24684744  1
  O  O321  1  0.39213520  0.70545882  0.79636660  1
  O  O322  1  0.94574642  0.27401882  0.24934683  1
  O  O323  1  0.90224469  0.25066154  0.65412614  1
  O  O324  1  0.89234835  0.73855223  0.25987006  1
  O  O325  1  0.86881540  0.77681375  0.71430401  1
  O  O326  1  0.28668084  0.54218290  0.46699627  1
  O  O327  1  0.33252451  0.45891580  0.99259462  1
  O  O328  1  0.39415687  0.95733693  0.47394359  1
  O  O329  1  0.44181933  0.96801426  1.01143122  1
  O  O330  1  0.92137371  0.47971053  0.48401759  1
  O  O331  1  0.85521485  0.49170269  1.06436967  1
  O  O332  1  0.94250970  1.07208783  0.59243682  1
  O  O333  1  0.79811170  0.86632052  1.01242536  1
  O  O334  1  0.14293240  -0.04607483  0.06020890  1
  O  O335  1  0.20034609  0.05243085  0.52975771  1
  O  O336  1  0.13920440  0.52441574  0.02342279  1
  O  O337  1  0.12177518  0.50849932  0.53064604  1
  O  O338  1  0.63280210  -0.04777263  0.01819285  1
  O  O339  1  0.57778198  -0.01392024  0.42255090  1
  O  O340  1  0.71153678  0.56938117  -0.01359489  1
  O  O341  1  0.63984741  0.48126229  0.49647699  1
  O  O342  1  0.32914486  0.32744975  0.16109019  1
  O  O343  1  0.41125828  0.39683177  0.66223270  1
  O  O344  1  0.41322681  0.83689406  0.14367532  1
  O  O345  1  0.41023721  0.82296057  0.56482907  1
  O  O346  1  0.74765163  0.36507933  0.06865762  1
  O  O347  1  0.81882476  0.29794726  0.53485983  1
  O  O348  1  0.81249092  0.88853815  0.07461679  1
  O  O349  1  0.90092835  0.92040939  0.60315344  1
  O  O350  1  0.18908000  0.13708898  0.39658058  1
  O  O351  1  0.10916424  0.15332560  0.91038252  1
  O  O352  1  0.07529878  0.57683226  0.40006500  1
  O  O353  1  0.09740633  0.70838211  0.93438009  1
  O  O354  1  0.57658810  0.17325102  0.42643073  1
  O  O355  1  0.57659976  0.10012701  0.87623419  1
  O  O356  1  0.58801086  0.57853186  0.39041863  1
  O  O357  1  0.63799310  0.64427273  0.88089333  1
