# generated using pymatgen
data_V51Zn51O256
_symmetry_space_group_name_H-M   'P 1'
_cell_length_a   17.50799190
_cell_length_b   17.45487404
_cell_length_c   17.50939087
_cell_angle_alpha   90.56261781
_cell_angle_beta   91.56598065
_cell_angle_gamma   89.29099277
_symmetry_Int_Tables_number   1
_chemical_formula_structural   V51Zn51O256
_chemical_formula_sum   'V51 Zn51 O256'
_cell_volume   5348.21762978
_cell_formula_units_Z   1
loop_
 _symmetry_equiv_pos_site_id
 _symmetry_equiv_pos_as_xyz
  1  'x, y, z'
loop_
 _atom_site_type_symbol
 _atom_site_label
 _atom_site_symmetry_multiplicity
 _atom_site_fract_x
 _atom_site_fract_y
 _atom_site_fract_z
 _atom_site_occupancy
  V  V0  1  0.24565044  0.53372471  0.73690746  1
  V  V1  1  0.13945476  0.38254070  0.74557658  1
  V  V2  1  0.40489069  0.37597885  0.02704797  1
  V  V3  1  0.01157003  0.77577412  0.77030741  1
  V  V4  1  0.20272959  0.79205437  0.49317393  1
  V  V5  1  0.35539087  0.79154759  0.63312051  1
  V  V6  1  0.50813925  0.13273624  0.17465519  1
  V  V7  1  0.77438481  0.24982398  0.47509208  1
  V  V8  1  0.25669312  0.27780897  -0.02166992  1
  V  V9  1  0.00240096  0.12114926  0.62878875  1
  V  V10  1  0.86430051  0.13897393  0.76045259  1
  V  V11  1  0.03903152  0.19721586  0.28165114  1
  V  V12  1  0.49267120  0.36928507  0.37141228  1
  V  V13  1  0.00455472  0.03788562  -0.05586126  1
  V  V14  1  0.51928886  0.83038153  0.87291286  1
  V  V15  1  0.13114514  0.61730974  0.44977583  1
  V  V16  1  0.63888415  0.12202197  0.48671073  1
  V  V17  1  0.35109725  0.07099786  0.77196562  1
  V  V18  1  0.87465071  0.94342538  -0.02049568  1
  V  V19  1  0.13166842  0.60514154  -0.00180409  1
  V  V20  1  0.16155135  0.88740959  0.17000793  1
  V  V21  1  0.28911294  0.23288002  0.50421266  1
  V  V22  1  0.52229566  0.49159153  0.00202219  1
  V  V23  1  0.53825090  0.60400188  0.12926889  1
  V  V24  1  0.77392752  0.63415306  0.90469396  1
  V  V25  1  0.36645821  0.51032884  0.87613465  1
  V  V26  1  0.12672150  0.36942059  0.23678329  1
  V  V27  1  0.35389212  0.87183758  0.46607548  1
  V  V28  1  0.15804883  0.11890107  -0.03423578  1
  V  V29  1  0.61137694  0.23244630  0.82919394  1
  V  V30  1  -0.02807978  0.89217989  0.40294213  1
  V  V31  1  0.86849984  0.62586278  0.33323341  1
  V  V32  1  0.36978811  0.22336459  0.14365889  1
  V  V33  1  0.89911545  0.36774167  0.49399783  1
  V  V34  1  0.87769452  0.73313337  0.61891258  1
  V  V35  1  0.83436852  0.37517961  0.00317180  1
  V  V36  1  0.28216753  0.36615686  0.64073551  1
  V  V37  1  0.48268206  0.36332752  0.81711102  1
  V  V38  1  0.14230696  0.48866330  0.12760666  1
  V  V39  1  0.37522916  0.61337447  0.22570144  1
  V  V40  1  0.87247731  0.80888508  0.12104970  1
  V  V41  1  0.47212902  0.01798747  0.49166600  1
  V  V42  1  0.58870409  0.74939642  0.37121049  1
  V  V43  1  0.50136217  0.76382312  0.21974678  1
  V  V44  1  0.87709780  0.11785882  0.26064959  1
  V  V45  1  0.45325132  0.65543550  0.59119035  1
  V  V46  1  0.14067806  0.20010752  0.41115884  1
  V  V47  1  0.51893762  0.00035255  0.03609923  1
  V  V48  1  0.62634774  -0.00258394  0.62291378  1
  V  V49  1  0.65345851  0.12461962  -0.04556881  1
  V  V50  1  0.03706881  0.63274283  0.65223900  1
  Zn  Zn51  1  0.51960208  0.57426936  0.33977315  1
  Zn  Zn52  1  0.31559868  0.07218800  0.57795247  1
  Zn  Zn53  1  0.96300728  0.71495295  0.44963192  1
  Zn  Zn54  1  0.97303206  0.44160128  0.62995777  1
  Zn  Zn55  1  0.97253322  0.94338087  0.23067373  1
  Zn  Zn56  1  0.69966138  0.52786789  0.06107104  1
  Zn  Zn57  1  0.72673285  0.75194508  0.23484344  1
  Zn  Zn58  1  0.21977386  0.20427497  0.68165268  1
  Zn  Zn59  1  0.18312642  0.93604226  0.96754903  1
  Zn  Zn60  1  0.48885249  0.22837187  0.51690255  1
  Zn  Zn61  1  0.79704889  0.03750191  -0.12735339  1
  Zn  Zn62  1  0.57136052  0.18951077  0.67819904  1
  Zn  Zn63  1  0.32803612  0.54721332  0.07320932  1
  Zn  Zn64  1  0.73680358  0.12056220  0.63114501  1
  Zn  Zn65  1  0.90311964  0.57043601  0.52427872  1
  Zn  Zn66  1  0.86183732  0.79019466  0.84483837  1
  Zn  Zn67  1  0.09146837  0.31984515  0.57322734  1
  Zn  Zn68  1  0.10286719  0.30431125  0.04736589  1
  Zn  Zn69  1  0.52216591  0.83815166  0.55589242  1
  Zn  Zn70  1  0.65226313  0.39557346  0.91299563  1
  Zn  Zn71  1  0.05599650  0.57059250  0.27395477  1
  Zn  Zn72  1  0.56616294  0.79599166  0.04828598  1
  Zn  Zn73  1  0.95927716  0.70568842  0.96570843  1
  Zn  Zn74  1  0.68967496  0.39655487  0.45001243  1
  Zn  Zn75  1  0.30987674  0.32814872  0.80390674  1
  Zn  Zn76  1  0.96583630  0.98088921  0.75915521  1
  Zn  Zn77  1  0.44397931  0.44080962  0.18181632  1
  Zn  Zn78  1  0.24046359  0.65747725  0.60055384  1
  Zn  Zn79  1  0.17441908  0.45112146  0.92659575  1
  Zn  Zn80  1  0.41571575  0.70163671  0.39982001  1
  Zn  Zn81  1  0.61312221  0.92386002  0.45727906  1
  Zn  Zn82  1  0.42771682  0.49124057  0.68778458  1
  Zn  Zn83  1  0.29587768  0.28553333  0.32139604  1
  Zn  Zn84  1  0.46430378  0.66569503  0.94479220  1
  Zn  Zn85  1  0.68680542  0.93487636  1.01706393  1
  Zn  Zn86  1  0.22954587  0.87890978  0.33628773  1
  Zn  Zn87  1  0.32629115  0.87394875  0.82262900  1
  Zn  Zn88  1  0.56791686  0.51068113  0.81042265  1
  Zn  Zn89  1  0.42754769  0.94648516  0.17139127  1
  Zn  Zn90  1  0.01532398  0.82459299  0.57113178  1
  Zn  Zn91  1  0.88981554  0.80108503  0.30466410  1
  Zn  Zn92  1  0.70951918  0.16472502  0.14673549  1
  Zn  Zn93  1  0.13285184  0.65107864  0.80660239  1
  Zn  Zn94  1  0.14642503  0.49888965  0.59398325  1
  Zn  Zn95  1  0.20894452  0.69019832  0.15819183  1
  Zn  Zn96  1  0.10261619  0.03148935  0.34822628  1
  Zn  Zn97  1  0.60527128  0.04046951  0.80425640  1
  Zn  Zn98  1  0.34180454  0.05621845  0.04911978  1
  Zn  Zn99  1  0.54290018  0.08934664  0.35831106  1
  Zn  Zn100  1  0.95405254  0.22688971  0.93284782  1
  Zn  Zn101  1  0.93795487  0.16522084  0.44236418  1
  O  O102  1  0.09157789  0.13132176  0.11044077  1
  O  O103  1  0.10621558  0.15610221  0.64150077  1
  O  O104  1  0.13057801  0.60179835  0.12946256  1
  O  O105  1  0.12772067  0.65810159  0.63306789  1
  O  O106  1  0.60316400  0.14331128  0.16906012  1
  O  O107  1  0.62191266  0.11387851  0.61218356  1
  O  O108  1  0.63372221  0.58405065  0.12720552  1
  O  O109  1  0.56382821  0.67471130  0.65562682  1
  O  O110  1  0.39193476  0.35309195  0.35691388  1
  O  O111  1  0.39175635  0.39618446  0.85362057  1
  O  O112  1  0.33568507  0.89580424  0.37300508  1
  O  O113  1  0.42691277  0.86613465  0.86993914  1
  O  O114  1  0.92163764  0.37929032  0.40625105  1
  O  O115  1  0.85611299  0.39914102  0.90948419  1
  O  O116  1  0.87799035  0.89702627  0.37234860  1
  O  O117  1  0.87971538  0.88250424  0.90287735  1
  O  O118  1  0.19915851  -0.01694726  0.33870664  1
  O  O119  1  0.25335748  -0.07266953  0.88942346  1
  O  O120  1  0.27360401  0.49797554  0.36056529  1
  O  O121  1  0.27141563  0.49633488  0.88925547  1
  O  O122  1  0.75671987  0.01179188  0.34508484  1
  O  O123  1  0.69780763  -0.16298680  0.77718577  1
  O  O124  1  0.68329874  0.50393895  0.41518328  1
  O  O125  1  0.78356825  0.54226163  0.87000578  1
  O  O126  1  0.23708447  0.49481336  0.12851760  1
  O  O127  1  0.24656763  0.54816210  0.63693827  1
  O  O128  1  0.34640740  0.95880847  0.09917829  1
  O  O129  1  0.22801134  0.99060908  0.59650530  1
  O  O130  1  0.66359117  0.40235647  0.17251846  1
  O  O131  1  0.81229312  0.46065929  0.68554913  1
  O  O132  1  0.70347358  0.98597842  0.13664433  1
  O  O133  1  0.72311183  1.00534432  0.64024090  1
  O  O134  1  0.05326693  0.30592522  0.24591347  1
  O  O135  1  0.04930603  0.39315165  0.70194970  1
  O  O136  1  0.06452447  0.91229633  0.16245475  1
  O  O137  1  -0.00783053  0.87140363  0.76483740  1
  O  O138  1  0.49655612  0.39957028  0.27240941  1
  O  O139  1  0.50574854  0.43410092  0.74925749  1
  O  O140  1  0.48993053  0.85707706  0.19654986  1
  O  O141  1  0.53561988  0.78095489  0.79578281  1
  O  O142  1  0.49142693  0.12507343  0.26999936  1
  O  O143  1  0.44222225  0.04265247  0.80338083  1
  O  O144  1  0.51596736  0.60184958  0.22541932  1
  O  O145  1  0.53531629  0.60642802  0.76077279  1
  O  O146  1  1.05920322  0.10197546  0.26960028  1
  O  O147  1  1.01042078  0.28028775  0.82370603  1
  O  O148  1  0.95714514  0.61358651  0.29280038  1
  O  O149  1  1.03248709  0.63023922  0.75002752  1
  O  O150  1  0.36830326  0.30201927  -0.02534853  1
  O  O151  1  0.38204363  0.21320617  0.49278754  1
  O  O152  1  0.28369692  0.76442602  -0.14484173  1
  O  O153  1  0.36087341  0.77403518  0.46031842  1
  O  O154  1  0.85775238  0.27628242  -0.03023335  1
  O  O155  1  0.87759222  0.25122424  0.49036418  1
  O  O156  1  0.92457878  0.75231035  0.06150855  1
  O  O157  1  0.91443527  0.77499938  0.53512088  1
  O  O158  1  0.13374118  0.26035699  0.49049317  1
  O  O159  1  0.16741885  0.22373272  0.99939241  1
  O  O160  1  0.11459605  0.81040110  0.52650973  1
  O  O161  1  0.05048961  0.65742944  1.00576361  1
  O  O162  1  0.61004363  0.23803051  0.50211710  1
  O  O163  1  0.56738587  0.16335505  0.94220645  1
  O  O164  1  0.57902624  0.81209270  0.45109240  1
  O  O165  1  0.66625072  0.83428180  1.04738857  1
  O  O166  1  0.47596317  0.22690970  0.14342132  1
  O  O167  1  0.50181856  0.24899745  0.62112802  1
  O  O168  1  0.53976768  0.71753804  0.12935808  1
  O  O169  1  0.46269083  0.76608140  0.61052514  1
  O  O170  1  1.08275997  0.19570946  0.14092217  1
  O  O171  1  1.05540747  0.22043164  0.63533121  1
  O  O172  1  0.86167588  0.58814192  0.14779189  1
  O  O173  1  1.00642075  0.75291375  0.66359925  1
  O  O174  1  0.02555315  0.20675681  0.38311877  1
  O  O175  1  0.01613323  0.30232421  0.98509408  1
  O  O176  1  -0.01182666  0.79326928  0.37680187  1
  O  O177  1  -0.03691614  0.73958393  0.85503651  1
  O  O178  1  0.51831377  0.27886438  0.33591179  1
  O  O179  1  0.45747866  0.28749352  0.76820182  1
  O  O180  1  0.49426404  0.76368016  0.33137851  1
  O  O181  1  0.51676977  0.75850495  0.95156476  1
  O  O182  1  0.25585159  0.16779316  0.57332424  1
  O  O183  1  0.24892850  0.08784379  0.99668283  1
  O  O184  1  0.20814154  0.67715092  0.48808907  1
  O  O185  1  0.24760919  0.60653220  1.00978488  1
  O  O186  1  0.73974258  0.16041051  0.52204540  1
  O  O187  1  0.68927876  0.06046726  0.87436467  1
  O  O188  1  0.66848558  0.60207506  0.54773347  1
  O  O189  1  0.74581833  0.60511389  0.99973154  1
  O  O190  1  0.21889519  0.36701333  -0.00631010  1
  O  O191  1  0.28269888  0.32561215  0.54100876  1
  O  O192  1  0.23105688  0.80952895  -0.03569585  1
  O  O193  1  0.25352856  0.88381889  0.49528113  1
  O  O194  1  0.73277190  0.35589556  -0.02270497  1
  O  O195  1  0.78471882  0.35820039  0.49287313  1
  O  O196  1  0.77672167  0.97618259  -0.02801547  1
  O  O197  1  0.81253974  0.92865260  0.52642867  1
  O  O198  1  0.11485037  0.47395863  0.23488505  1
  O  O199  1  0.15270663  0.50308518  0.74554465  1
  O  O200  1  0.18831599  0.98048204  0.19617286  1
  O  O201  1  0.14350742  0.94716140  0.75750699  1
  O  O202  1  0.62922541  0.53263931  0.29777965  1
  O  O203  1  0.66137399  0.46100868  0.82927870  1
  O  O204  1  0.69292151  0.98450483  0.33692922  1
  O  O205  1  0.59038548  0.98635362  0.71167740  1
  O  O206  1  0.39896540  -0.00888430  0.27552629  1
  O  O207  1  0.33486711  -0.02947088  0.75510059  1
  O  O208  1  0.37184778  0.51350377  0.22293803  1
  O  O209  1  0.35684981  0.52404569  0.77268399  1
  O  O210  1  0.91181624  0.03430364  0.22070789  1
  O  O211  1  0.86380846  0.03771393  0.77769427  1
  O  O212  1  0.81518141  0.55223025  0.31403332  1
  O  O213  1  0.81542394  0.52950858  0.66223518  1
  O  O214  1  0.10184104  0.39885851  0.36618278  1
  O  O215  1  0.12902903  0.39413525  0.84309688  1
  O  O216  1  0.13247233  0.85626135  0.26694756  1
  O  O217  1  0.08429181  0.86885170  0.92865037  1
  O  O218  1  0.59163908  0.38160000  0.39361705  1
  O  O219  1  0.56760585  0.32529818  0.87291172  1
  O  O220  1  0.71943562  0.86347917  0.41665062  1
  O  O221  1  0.61897440  0.88081230  0.90207636  1
  O  O222  1  0.38220877  0.12293842  0.13533518  1
  O  O223  1  0.37925530  0.08245532  0.67292248  1
  O  O224  1  0.39916195  0.61708711  0.12282996  1
  O  O225  1  0.35856861  0.67190814  0.62026229  1
  O  O226  1  0.93441484  0.15428015  0.09148070  1
  O  O227  1  0.92783154  0.16304926  0.68676204  1
  O  O228  1  0.79429796  0.57128043  0.15990639  1
  O  O229  1  0.93290461  0.63802678  0.61115117  1
  O  O230  1  0.29692572  0.23892624  0.07447631  1
  O  O231  1  0.30932399  0.28309981  0.69105094  1
  O  O232  1  0.21038905  0.67392216  0.04014582  1
  O  O233  1  0.25832746  0.77095950  0.59173168  1
  O  O234  1  0.70301659  0.15352980  0.03556992  1
  O  O235  1  0.66711526  0.29046803  0.50796529  1
  O  O236  1  0.78995558  0.76499207  0.14769241  1
  O  O237  1  0.79293039  0.69967546  0.60099194  1
  O  O238  1  0.25241036  0.22689645  0.40630725  1
  O  O239  1  0.26290799  0.26682494  0.88100097  1
  O  O240  1  0.19857753  0.79060938  0.39372055  1
  O  O241  1  0.23544089  0.75583814  0.91033427  1
  O  O242  1  0.75631107  0.24093928  0.38452601  1
  O  O243  1  0.69082931  0.20845307  0.88451601  1
  O  O244  1  0.71381433  0.79325709  0.39754704  1
  O  O245  1  0.79823062  0.73751627  0.92050713  1
  O  O246  1  0.01984189  0.13726687  -0.04095994  1
  O  O247  1  -0.02749430  0.11323562  0.53587978  1
  O  O248  1  0.00127753  0.49614735  -0.12732918  1
  O  O249  1  0.04527631  0.64910426  0.48611597  1
  O  O250  1  0.61131103  0.02716318  0.00251095  1
  O  O251  1  0.52465410  0.12408748  0.47464594  1
  O  O252  1  0.51833408  0.59737668  0.01670337  1
  O  O253  1  0.45967796  0.65073086  0.49494613  1
  O  O254  1  0.47618452  0.34249727  0.46597416  1
  O  O255  1  0.50170885  0.38400062  1.01017437  1
  O  O256  1  0.45149047  0.90759995  0.48914049  1
  O  O257  1  0.36945077  0.82203946  1.01864438  1
  O  O258  1  0.98613080  0.35128788  0.55188444  1
  O  O259  1  0.91108002  0.43444174  1.02155505  1
  O  O260  1  0.98828735  0.90953671  0.49831830  1
  O  O261  1  0.97413319  0.96453607  1.01268012  1
  O  O262  1  0.48586835  0.47308320  0.38650297  1
  O  O263  1  0.49137199  0.49675362  0.90127635  1
  O  O264  1  0.53049428  0.99084948  0.40716213  1
  O  O265  1  0.57142846  0.92876564  0.85954770  1
  O  O266  1  1.05136256  0.44807638  0.37708190  1
  O  O267  1  0.96787171  0.48661744  0.81060078  1
  O  O268  1  1.02075992  0.95423653  0.33912848  1
  O  O269  1  1.02022048  1.01040837  0.85328025  1
  O  O270  1  -0.12794479  0.13324103  0.06640936  1
  O  O271  1  0.00658500  0.03196242  0.66947623  1
  O  O272  1  0.05820023  0.57079568  0.15189576  1
  O  O273  1  0.04024102  0.53292176  0.62082374  1
  O  O274  1  0.50543714  0.02971062  0.13572991  1
  O  O275  1  0.51125031  0.01777693  0.57993795  1
  O  O276  1  0.50716408  0.49711802  0.11054357  1
  O  O277  1  0.47055763  0.56253952  0.62096150  1
  O  O278  1  0.21504153  0.34732809  0.27046227  1
  O  O279  1  0.25468304  0.41048162  0.74143981  1
  O  O280  1  0.25731651  0.86189443  0.20931359  1
  O  O281  1  0.05768868  0.82049549  0.97196603  1
  O  O282  1  0.67985236  0.49330559  0.33629369  1
  O  O283  1  0.66832591  0.40442052  0.64898701  1
  O  O284  1  0.74659369  0.94356499  0.18339871  1
  O  O285  1  0.68615632  0.80699844  0.71422092  1
  O  O286  1  0.34295580  0.04523875  0.26569805  1
  O  O287  1  0.26473285  0.10732746  0.72192404  1
  O  O288  1  0.28110795  0.64570342  0.22378939  1
  O  O289  1  0.23491193  0.62413852  0.77307879  1
  O  O290  1  0.78969152  0.13859344  0.21806801  1
  O  O291  1  0.77464566  0.16409583  0.72514302  1
  O  O292  1  0.82013502  0.71528969  0.29993880  1
  O  O293  1  0.78496484  0.65647173  0.80742425  1
  O  O294  1  0.32508075  0.08337274  0.32430844  1
  O  O295  1  0.29399334  0.05854349  0.84965658  1
  O  O296  1  0.41191075  0.62062666  0.32701055  1
  O  O297  1  0.38443657  0.60352149  0.90597286  1
  O  O298  1  0.87989501  0.11553935  0.35915936  1
  O  O299  1  0.88868856  0.18337597  0.84466633  1
  O  O300  1  0.88553981  0.63285567  0.43602540  1
  O  O301  1  0.87179659  0.63163784  0.94460757  1
  O  O302  1  0.12579647  0.37927002  0.12873447  1
  O  O303  1  0.17335653  0.39069537  0.61897744  1
  O  O304  1  0.18334924  0.90404088  0.07579016  1
  O  O305  1  0.17393545  0.89094158  0.72784562  1
  O  O306  1  0.65995373  0.33132859  0.15207118  1
  O  O307  1  0.60186631  0.39497429  0.62781438  1
  O  O308  1  0.71222213  0.89769885  0.22859294  1
  O  O309  1  0.61045488  0.90453962  0.57545698  1
  O  O310  1  0.14419981  0.21543061  0.31127430  1
  O  O311  1  0.16250338  0.28544597  0.73375616  1
  O  O312  1  0.15639251  0.78566201  0.14210036  1
  O  O313  1  0.10475051  0.76237121  0.79806383  1
  O  O314  1  0.71108554  0.28283621  0.18370856  1
  O  O315  1  0.64055098  0.26961036  0.74707165  1
  O  O316  1  0.62425063  0.75925207  0.27273972  1
  O  O317  1  0.58986007  0.63017831  0.71003867  1
  O  O318  1  0.34104936  0.23977044  0.23398677  1
  O  O319  1  0.37864757  0.15974393  0.80738130  1
  O  O320  1  0.41293239  0.72829682  0.21408924  1
  O  O321  1  0.34277612  0.81183953  0.72633420  1
  O  O322  1  0.94228635  0.19728486  0.24262553  1
  O  O323  1  0.96136526  0.31671595  0.78694628  1
  O  O324  1  0.92250816  0.84226743  0.20640901  1
  O  O325  1  0.87043760  0.76937738  0.73087854  1
  O  O326  1  0.30312599  0.51488442  0.42273639  1
  O  O327  1  0.37550009  0.47266927  1.00118122  1
  O  O328  1  0.37608219  1.04266316  0.49440166  1
  O  O329  1  0.44094806  1.04022439  0.99163551  1
  O  O330  1  0.89318632  0.46486524  0.53829011  1
  O  O331  1  0.77582849  0.44815459  1.04971429  1
  O  O332  1  0.82830664  0.99296281  0.50592040  1
  O  O333  1  0.89439789  1.04116643  0.93480252  1
  O  O334  1  0.11057318  0.02396897  -0.01988500  1
  O  O335  1  0.16094223  0.01511767  0.60096829  1
  O  O336  1  0.11788422  0.49995858  0.02211787  1
  O  O337  1  0.14808911  0.52791266  0.48696447  1
  O  O338  1  0.51352681  -0.09675285  0.03559298  1
  O  O339  1  0.65637122  0.02439725  0.49954303  1
  O  O340  1  0.62008672  0.47609058  -0.00502971  1
  O  O341  1  0.65877186  0.53983737  0.57759404  1
  O  O342  1  0.39297884  0.35671256  0.12367172  1
  O  O343  1  0.35807406  0.42336284  0.63198797  1
  O  O344  1  0.35885571  0.76003052  0.04883300  1
  O  O345  1  0.36088424  0.87835080  0.59054469  1
  O  O346  1  0.85787186  0.32214137  0.08510425  1
  O  O347  1  0.87645987  0.41865705  0.69442418  1
  O  O348  1  0.85201207  0.89213519  0.06775637  1
  O  O349  1  0.85439495  0.82578862  0.67442894  1
  O  O350  1  0.13752726  0.10529319  0.43104482  1
  O  O351  1  0.15904991  0.12763459  0.87378076  1
  O  O352  1  0.12594190  0.60987890  0.35142925  1
  O  O353  1  0.13537542  0.59224499  0.90152425  1
  O  O354  1  0.64680125  0.12875559  0.39086957  1
  O  O355  1  0.56981534  0.14734469  0.78516149  1
  O  O356  1  0.58567651  0.65587535  0.39490050  1
  O  O357  1  0.67583067  0.65346933  0.89924744  1
