# generated using pymatgen
data_V51Zn51O256
_symmetry_space_group_name_H-M   'P 1'
_cell_length_a   18.09329256
_cell_length_b   17.42042536
_cell_length_c   18.02301028
_cell_angle_alpha   87.24856784
_cell_angle_beta   91.78699868
_cell_angle_gamma   88.74696964
_symmetry_Int_Tables_number   1
_chemical_formula_structural   V51Zn51O256
_chemical_formula_sum   'V51 Zn51 O256'
_cell_volume   5669.86230675
_cell_formula_units_Z   1
loop_
 _symmetry_equiv_pos_site_id
 _symmetry_equiv_pos_as_xyz
  1  'x, y, z'
loop_
 _atom_site_type_symbol
 _atom_site_label
 _atom_site_symmetry_multiplicity
 _atom_site_fract_x
 _atom_site_fract_y
 _atom_site_fract_z
 _atom_site_occupancy
  V  V0  1  0.64608005  0.50921753  0.11731155  1
  V  V1  1  0.04891062  -0.01310035  0.47426898  1
  V  V2  1  0.09990997  0.23195102  0.82587948  1
  V  V3  1  0.21330513  0.67702992  0.94353231  1
  V  V4  1  0.91718978  0.08502374  0.69799077  1
  V  V5  1  0.16438291  0.01429219  0.07286181  1
  V  V6  1  0.77520231  0.25736806  -0.01652323  1
  V  V7  1  0.85438262  0.45039063  0.42833707  1
  V  V8  1  0.64238068  0.74973984  0.36151299  1
  V  V9  1  0.52298091  0.40287129  0.38409196  1
  V  V10  1  0.51422899  0.62159740  0.10752056  1
  V  V11  1  0.08060381  0.79379618  0.97453552  1
  V  V12  1  0.67759654  0.85547690  0.22855506  1
  V  V13  1  0.25311840  -0.02467976  0.72046942  1
  V  V14  1  0.39894341  0.92756178  0.07213252  1
  V  V15  1  0.09630236  0.61021816  0.51377077  1
  V  V16  1  0.46432135  0.29784350  0.70834392  1
  V  V17  1  0.24877167  0.89103993  0.15657397  1
  V  V18  1  0.22123676  0.10658350  0.82283019  1
  V  V19  1  0.85065087  0.86885089  0.46646922  1
  V  V20  1  0.63124535  0.12588106  0.55393597  1
  V  V21  1  0.24679108  0.22277650  -0.03696855  1
  V  V22  1  0.69462242  0.14008667  0.90223417  1
  V  V23  1  0.76510042  0.88645366  0.67430296  1
  V  V24  1  0.38202754  0.59000510  0.25804978  1
  V  V25  1  0.03398644  0.54300709  0.69050896  1
  V  V26  1  0.62298171  0.21571636  0.33778309  1
  V  V27  1  0.63846529  0.41808619  0.26676189  1
  V  V28  1  0.72147919  0.36863442  0.63945983  1
  V  V29  1  0.77484320  0.62669977  0.89539684  1
  V  V30  1  0.11325205  0.85130974  0.68842867  1
  V  V31  1  -0.00045545  0.47118492  0.01841606  1
  V  V32  1  0.41138212  0.66145180  0.77677518  1
  V  V33  1  0.38921870  0.11782380  0.73271235  1
  V  V34  1  0.08610395  0.37487160  0.67648391  1
  V  V35  1  0.88432702  0.59432094  0.24097059  1
  V  V36  1  0.92030344  0.75577705  0.13651811  1
  V  V37  1  0.34341314  0.78639026  0.49722039  1
  V  V38  1  0.00262138  0.23369488  0.22109787  1
  V  V39  1  0.48132233  0.73555626  0.24702131  1
  V  V40  1  0.66077137  0.79499407  0.91759994  1
  V  V41  1  0.35649003  0.25280887  0.57790611  1
  V  V42  1  0.79173370  0.64616431  0.38784795  1
  V  V43  1  0.48388854  0.04117892  0.46930277  1
  V  V44  1  0.84252209  0.27608453  0.16419159  1
  V  V45  1  -0.01099609  0.09249580  0.07316759  1
  V  V46  1  0.76136247  0.70903356  0.05000101  1
  V  V47  1  0.57608801  0.13842015  0.04744264  1
  V  V48  1  0.64399496  0.00345032  0.12740960  1
  V  V49  1  0.36161178  0.20921075  0.22591377  1
  V  V50  1  0.05219333  0.88786221  0.33102916  1
  Zn  Zn51  1  0.09090356  0.05204539  0.72734251  1
  Zn  Zn52  1  0.93743019  0.41389272  0.20687176  1
  Zn  Zn53  1  0.55145627  0.30125209  0.55582166  1
  Zn  Zn54  1  0.35191914  0.03318002  0.60045162  1
  Zn  Zn55  1  0.47917531  0.44367950  0.18611485  1
  Zn  Zn56  1  0.70017809  0.45040418  0.94889159  1
  Zn  Zn57  1  0.72116614  0.96413931  0.84789339  1
  Zn  Zn58  1  0.79436566  0.05488487  0.02236739  1
  Zn  Zn59  1  0.67534593  0.21647239  0.15201332  1
  Zn  Zn60  1  0.94500916  0.17424381  0.91464805  1
  Zn  Zn61  1  0.69366428  0.64479035  0.22574461  1
  Zn  Zn62  1  0.20223947  0.91474637  0.54621921  1
  Zn  Zn63  1  0.79532020  0.03235911  0.55882649  1
  Zn  Zn64  1  0.25914576  0.42433850  0.61349714  1
  Zn  Zn65  1  0.49981325  0.91789287  0.18571871  1
  Zn  Zn66  1  0.58229056  0.82280693  0.06026721  1
  Zn  Zn67  1  0.63609252  0.20318837  0.72658749  1
  Zn  Zn68  1  0.94552566  0.92089830  0.64356915  1
  Zn  Zn69  1  0.21872181  0.18992821  0.67413471  1
  Zn  Zn70  1  0.84015478  0.80188669  0.28893202  1
  Zn  Zn71  1  -0.00508354  0.54370112  0.37005629  1
  Zn  Zn72  1  0.26823521  0.61957743  0.59588377  1
  Zn  Zn73  1  0.36034821  0.83067112  0.30460753  1
  Zn  Zn74  1  0.35680508  0.40474159  0.29908828  1
  Zn  Zn75  1  1.03997045  0.90149867  0.13911340  1
  Zn  Zn76  1  0.03255939  0.05104713  0.26292274  1
  Zn  Zn77  1  0.16975765  0.16344049  0.17592469  1
  Zn  Zn78  1  0.03575047  0.83034606  0.53439927  1
  Zn  Zn79  1  0.15144461  0.66366186  0.76378615  1
  Zn  Zn80  1  0.44022979  0.24186683  0.40075985  1
  Zn  Zn81  1  0.39759072  0.48931508  0.68824606  1
  Zn  Zn82  1  0.49880461  0.70805724  0.92609305  1
  Zn  Zn83  1  0.78442823  0.30323405  0.32509634  1
  Zn  Zn84  1  0.93246361  0.67887728  0.97916854  1
  Zn  Zn85  1  0.38673207  0.09526975  1.02503159  1
  Zn  Zn86  1  0.82497066  0.53824355  0.08248067  1
  Zn  Zn87  1  -0.08833235  0.43111038  0.61957639  1
  Zn  Zn88  1  0.95992557  0.74525255  0.40749621  1
  Zn  Zn89  1  0.60014199  0.03408781  0.29491816  1
  Zn  Zn90  1  0.69843880  0.34021414  0.44252305  1
  Zn  Zn91  1  0.69266571  0.77927034  0.54604122  1
  Zn  Zn92  1  0.56941487  0.57625417  0.32571882  1
  Zn  Zn93  1  0.69886847  0.74042377  0.74798889  1
  Zn  Zn94  1  0.55973662  0.33869742  0.09160899  1
  Zn  Zn95  1  0.06480841  0.26702337  -0.00525008  1
  Zn  Zn96  1  0.28629403  0.72124956  0.19085604  1
  Zn  Zn97  1  0.30848415  0.25338030  0.80792369  1
  Zn  Zn98  1  0.31801417  0.60005138  0.09015364  1
  Zn  Zn99  1  0.77068426  0.53854416  0.53232559  1
  Zn  Zn100  1  1.00150976  0.15349454  0.40144378  1
  Zn  Zn101  1  0.20494551  0.83131647  0.84027155  1
  O  O102  1  0.15976338  0.11541836  0.08428400  1
  O  O103  1  0.12921260  0.16672986  0.53822740  1
  O  O104  1  0.09807351  0.56157092  0.20470611  1
  O  O105  1  0.05171628  0.61566892  0.74656158  1
  O  O106  1  0.63597398  0.11229177  0.13437662  1
  O  O107  1  0.63372644  0.13316059  0.64786482  1
  O  O108  1  0.62119876  0.61153104  0.14010779  1
  O  O109  1  0.60498292  0.67741723  0.66605399  1
  O  O110  1  0.42852825  0.36607589  0.37249830  1
  O  O111  1  0.45352075  0.31891729  0.87500486  1
  O  O112  1  0.36418730  0.78961279  0.40350126  1
  O  O113  1  0.40904591  0.85589112  0.89158315  1
  O  O114  1  0.80881022  0.36296887  0.41258888  1
  O  O115  1  0.86856644  0.26471447  0.93322506  1
  O  O116  1  0.84781810  0.86910902  0.37016056  1
  O  O117  1  0.87006210  0.87617864  0.93908309  1
  O  O118  1  0.20075923  0.04922571  0.30530665  1
  O  O119  1  0.23058894  0.00938770  0.82710221  1
  O  O120  1  0.20444269  0.45774320  0.33884394  1
  O  O121  1  0.17542356  0.63380751  0.86738811  1
  O  O122  1  0.81054484  0.01241212  0.26101330  1
  O  O123  1  0.74707195  0.04916443  0.91219936  1
  O  O124  1  0.79903942  0.52667242  0.39701886  1
  O  O125  1  0.74806844  0.53077879  0.89602402  1
  O  O126  1  0.15700261  0.53926431  0.18020883  1
  O  O127  1  0.31134075  0.51548140  0.62851958  1
  O  O128  1  0.25851935  0.99253164  0.10930374  1
  O  O129  1  0.26392775  0.96865412  0.62112159  1
  O  O130  1  0.73924168  0.50880330  0.13777072  1
  O  O131  1  0.71530224  0.46038250  0.58673381  1
  O  O132  1  0.73068473  0.99943017  0.09200423  1
  O  O133  1  0.73303413  0.96102157  0.61830927  1
  O  O134  1  -0.01191721  0.32322728  0.25429780  1
  O  O135  1  0.00666034  0.37608795  0.62270109  1
  O  O136  1  0.02512001  0.94152607  0.24012151  1
  O  O137  1  0.02030896  0.84493095  0.68908912  1
  O  O138  1  0.53772170  0.39541101  0.27345222  1
  O  O139  1  0.44834732  0.39438661  0.71804472  1
  O  O140  1  0.45811165  0.83747971  0.24810498  1
  O  O141  1  0.55506119  0.95360905  0.79893978  1
  O  O142  1  0.45654097  0.19151443  0.23767549  1
  O  O143  1  0.47224188  0.09660301  0.76381338  1
  O  O144  1  0.48135459  0.62062393  0.26672720  1
  O  O145  1  0.50130015  0.69509787  0.81662100  1
  O  O146  1  1.00134242  0.11103554  0.16655473  1
  O  O147  1  1.00821465  0.11067506  0.68363023  1
  O  O148  1  0.96966583  0.61064241  0.28848987  1
  O  O149  1  0.90021316  0.66233578  0.75459253  1
  O  O150  1  0.31181518  0.17323050  0.01862987  1
  O  O151  1  0.37553920  0.24865170  0.48759460  1
  O  O152  1  0.40867878  0.80431466  -0.05847318  1
  O  O153  1  0.32403082  0.69853627  0.53793040  1
  O  O154  1  0.87442935  0.26809020  0.01238066  1
  O  O155  1  0.85991388  0.21189788  0.49697813  1
  O  O156  1  0.85997105  0.73923269  0.04705949  1
  O  O157  1  0.93147540  0.80907171  0.49337234  1
  O  O158  1  0.02047288  0.24940726  0.45845063  1
  O  O159  1  0.13988824  0.26005459  0.91309990  1
  O  O160  1  0.05401298  0.70928440  0.53974839  1
  O  O161  1  0.06403660  0.84823042  1.04795695  1
  O  O162  1  0.60341551  0.21542267  0.51694962  1
  O  O163  1  0.59543330  0.23868133  1.06958776  1
  O  O164  1  0.63542919  0.75268924  0.45586389  1
  O  O165  1  0.68521306  0.77676601  1.03990231  1
  O  O166  1  0.46381549  0.36384303  0.12050563  1
  O  O167  1  0.46457615  0.27291767  0.61374031  1
  O  O168  1  0.51867793  0.72318944  0.16085033  1
  O  O169  1  0.58371579  0.71735029  0.60949275  1
  O  O170  1  0.93272144  0.24029371  0.14327516  1
  O  O171  1  0.89311423  0.24693067  0.54460413  1
  O  O172  1  0.99833388  0.70930783  0.12325240  1
  O  O173  1  0.93288728  0.72210490  0.76155382  1
  O  O174  1  0.00055473  0.16347438  0.29847313  1
  O  O175  1  0.01000230  0.23577439  0.85039920  1
  O  O176  1  -0.00625966  0.80751256  0.32647617  1
  O  O177  1  -0.00007834  0.75169742  0.94301057  1
  O  O178  1  0.54303191  0.25890159  0.36996056  1
  O  O179  1  0.49514785  0.27277583  0.90986639  1
  O  O180  1  0.54378463  0.74147101  0.32545703  1
  O  O181  1  0.56825911  0.78640159  0.95435693  1
  O  O182  1  0.16459342  0.15970435  0.48219545  1
  O  O183  1  0.22304145  0.13553947  0.91514318  1
  O  O184  1  0.18892392  0.60511409  0.51796514  1
  O  O185  1  0.27225732  0.61421068  0.99753179  1
  O  O186  1  0.71726323  0.10361716  0.52256996  1
  O  O187  1  0.74573691  0.15901972  1.00604319  1
  O  O188  1  0.75592066  0.63333926  0.47835554  1
  O  O189  1  0.76941203  0.61454948  1.01327383  1
  O  O190  1  0.29559623  0.28357602  -0.09323146  1
  O  O191  1  0.21157314  0.29374595  0.39761008  1
  O  O192  1  0.32288054  0.86448355  0.09102344  1
  O  O193  1  0.27028991  0.84833799  0.50236150  1
  O  O194  1  0.73554604  0.34753550  -0.01713434  1
  O  O195  1  0.72329573  0.32728597  0.54685298  1
  O  O196  1  0.86938141  0.91207858  -0.00427777  1
  O  O197  1  0.77622364  0.82172625  0.50120461  1
  O  O198  1  0.13674238  0.44693946  0.32531960  1
  O  O199  1  0.08486169  0.45876392  0.72951594  1
  O  O200  1  0.14343376  1.09281347  0.26254427  1
  O  O201  1  0.14219071  0.94749672  0.70719448  1
  O  O202  1  0.64133743  0.51736442  0.26076019  1
  O  O203  1  0.62216641  0.54283248  0.78132270  1
  O  O204  1  0.67206972  0.97650468  0.23616770  1
  O  O205  1  0.62039823  0.97809921  0.77632549  1
  O  O206  1  0.34501773  0.11124991  0.22591716  1
  O  O207  1  0.34614843  0.02068325  0.72142874  1
  O  O208  1  0.39595273  0.49024979  0.23601111  1
  O  O209  1  0.43484076  0.55967505  0.76386590  1
  O  O210  1  0.84658496  0.06103647  0.22792881  1
  O  O211  1  0.92142556  -0.00979828  0.72385988  1
  O  O212  1  0.88612635  0.49507553  0.25266809  1
  O  O213  1  0.73210859  0.59136371  0.67703737  1
  O  O214  1  0.03426962  0.31416519  0.41399752  1
  O  O215  1  0.24269176  0.47403126  0.80283425  1
  O  O216  1  0.13666354  0.85896839  0.31522514  1
  O  O217  1  0.12162218  0.84696065  0.90383527  1
  O  O218  1  0.63213940  0.40001875  0.37247770  1
  O  O219  1  0.60377606  0.40654300  0.90144775  1
  O  O220  1  0.65010485  0.85036545  0.32718886  1
  O  O221  1  0.69100782  0.88665054  0.92180215  1
  O  O222  1  0.38260603  0.23406029  0.13592663  1
  O  O223  1  0.38554043  0.13865537  0.63323361  1
  O  O224  1  0.41851904  0.62176980  0.11988420  1
  O  O225  1  0.44773370  0.66829986  0.68981746  1
  O  O226  1  0.89925529  0.07029930  0.04726176  1
  O  O227  1  0.86001560  0.09649193  0.62044078  1
  O  O228  1  0.88796252  0.60135490  0.14484119  1
  O  O229  1  0.78993291  0.58498443  0.64146726  1
  O  O230  1  0.21639669  0.29238953  0.03680693  1
  O  O231  1  0.26699771  0.21524924  0.58824642  1
  O  O232  1  0.21827561  0.79442805  0.15654379  1
  O  O233  1  0.21448936  0.64495007  0.68262292  1
  O  O234  1  0.76626178  0.24945348  0.10676790  1
  O  O235  1  0.71597465  0.27771131  0.68809293  1
  O  O236  1  0.75577680  0.68353072  0.13993739  1
  O  O237  1  0.86637176  0.71670384  0.60218436  1
  O  O238  1  0.17028758  0.27316108  0.34700860  1
  O  O239  1  0.20818963  0.22405733  0.77453013  1
  O  O240  1  0.14074602  0.67991150  0.31702815  1
  O  O241  1  0.25804725  0.75568608  0.90725076  1
  O  O242  1  0.70500291  0.24806159  0.38340425  1
  O  O243  1  0.73856469  0.23168787  0.88958447  1
  O  O244  1  0.75245224  0.73921159  0.36025554  1
  O  O245  1  0.73640173  0.72220965  0.92945430  1
  O  O246  1  0.00997011  0.17183346  0.00554971  1
  O  O247  1  0.00730257  0.07951722  0.47848717  1
  O  O248  1  -0.01787846  0.57337716  0.01402300  1
  O  O249  1  0.06139845  0.70293452  0.45867393  1
  O  O250  1  0.48247115  0.13887541  0.04418278  1
  O  O251  1  0.45721166  0.12846089  0.43197692  1
  O  O252  1  0.52011196  0.64430559  0.01560063  1
  O  O253  1  0.62255142  0.58476575  0.54689887  1
  O  O254  1  0.53504301  0.37608062  0.47734536  1
  O  O255  1  0.51692219  0.41352688  0.99001804  1
  O  O256  1  0.44855410  0.80228429  0.53666305  1
  O  O257  1  0.48289226  0.87234837  1.07511203  1
  O  O258  1  1.07320789  0.36351561  0.44484719  1
  O  O259  1  1.01378767  0.36867234  1.01154772  1
  O  O260  1  1.05840994  0.88416955  0.43899768  1
  O  O261  1  1.03041823  1.00447557  0.87537835  1
  O  O262  1  0.51380558  0.50142066  0.38318373  1
  O  O263  1  0.54116310  0.43833471  0.92671284  1
  O  O264  1  0.50441553  0.99771901  0.37208134  1
  O  O265  1  0.54148672  0.95517793  0.86764474  1
  O  O266  1  0.94056838  0.45254495  0.39393431  1
  O  O267  1  0.99338729  0.46819702  0.92172039  1
  O  O268  1  1.03993574  0.99716940  0.36637683  1
  O  O269  1  1.05413946  0.97440456  0.81352321  1
  O  O270  1  0.04580834  0.01136515  0.06848756  1
  O  O271  1  0.00483932  -0.05796188  0.55554509  1
  O  O272  1  -0.00467696  0.45013011  0.11809913  1
  O  O273  1  -0.05715315  0.51807478  0.68143463  1
  O  O274  1  0.55256616  0.00861620  0.20458265  1
  O  O275  1  0.56235684  0.05480344  0.52718164  1
  O  O276  1  0.52538431  0.51921940  0.11940456  1
  O  O277  1  0.47901085  0.52139760  0.59846539  1
  O  O278  1  0.25043663  0.43179506  0.28315028  1
  O  O279  1  0.29871188  0.43522625  0.78927846  1
  O  O280  1  0.29343707  0.89538872  0.24242529  1
  O  O281  1  0.26761328  0.88817520  0.76531846  1
  O  O282  1  0.72461093  0.37797996  0.26375992  1
  O  O283  1  0.70880167  0.42242367  0.71590728  1
  O  O284  1  0.76982689  0.85967474  0.21951684  1
  O  O285  1  0.75994953  0.90866854  0.76708767  1
  O  O286  1  0.26187762  0.20709635  0.20604896  1
  O  O287  1  0.19977785  0.08403178  0.71128746  1
  O  O288  1  0.29499042  0.61165865  0.19505841  1
  O  O289  1  0.32141760  0.62733637  0.77055980  1
  O  O290  1  0.79467330  0.11043915  0.37842598  1
  O  O291  1  0.66154573  0.13857464  0.81361338  1
  O  O292  1  0.79512442  0.61878939  0.28416604  1
  O  O293  1  0.75182296  0.66001597  0.80352312  1
  O  O294  1  0.35891578  0.21629869  0.32642925  1
  O  O295  1  0.32028510  0.13143673  0.80782011  1
  O  O296  1  0.34894135  0.58224610  0.34009563  1
  O  O297  1  0.41496563  0.64567144  0.88015908  1
  O  O298  1  0.85924264  0.08968078  0.39094238  1
  O  O299  1  0.89566004  0.10468941  0.84679825  1
  O  O300  1  0.88279185  0.66683528  0.40399932  1
  O  O301  1  0.86907069  0.63333261  0.90450888  1
  O  O302  1  0.14993720  0.29344068  0.06483812  1
  O  O303  1  0.16608432  0.37796583  0.62652109  1
  O  O304  1  0.15053987  0.92825022  0.14429999  1
  O  O305  1  0.13567363  0.83566007  0.59627976  1
  O  O306  1  0.62210006  0.40974052  0.15540960  1
  O  O307  1  0.62114980  0.36092486  0.62393002  1
  O  O308  1  0.62227846  0.88925259  0.14091537  1
  O  O309  1  0.71117496  0.79725438  0.65373278  1
  O  O310  1  0.09056554  0.23764866  0.19097596  1
  O  O311  1  0.08555885  0.29710675  0.74225738  1
  O  O312  1  0.11836739  0.70512776  0.25578761  1
  O  O313  1  0.15203195  0.78076414  0.75248570  1
  O  O314  1  0.63346402  0.24053385  0.24484000  1
  O  O315  1  0.54870510  0.26857879  0.74463016  1
  O  O316  1  0.65960565  0.75922359  0.22529778  1
  O  O317  1  0.63986170  0.78091746  0.82524277  1
  O  O318  1  0.34756756  0.31240220  0.23985333  1
  O  O319  1  0.38798852  0.23962942  0.74035920  1
  O  O320  1  0.37958405  0.71887011  0.25262424  1
  O  O321  1  0.36963975  0.74977541  0.76437650  1
  O  O322  1  0.83240497  0.24392170  0.25533797  1
  O  O323  1  0.87824101  0.14019781  0.77852781  1
  O  O324  1  0.88375375  0.72869952  0.22600077  1
  O  O325  1  0.90976848  0.66325152  0.59319996  1
  O  O326  1  0.46701576  0.57671070  0.55312582  1
  O  O327  1  0.27986300  0.46440475  1.10339292  1
  O  O328  1  0.41312937  1.00593578  0.52324546  1
  O  O329  1  0.38736144  0.99279717  0.99642065  1
  O  O330  1  0.86143378  0.46923755  0.52633732  1
  O  O331  1  0.89703808  0.47176940  1.02873940  1
  O  O332  1  0.84992916  0.96165878  0.49711958  1
  O  O333  1  0.98479573  0.96593161  0.91291556  1
  O  O334  1  0.16759937  -0.00464947  -0.01458507  1
  O  O335  1  0.13989781  -0.00254131  0.50111721  1
  O  O336  1  0.09130689  0.49292628  0.03051763  1
  O  O337  1  0.06874369  0.56382992  0.60094809  1
  O  O338  1  0.58254165  0.02213720  0.05228124  1
  O  O339  1  0.51466617  -0.05830389  0.42883654  1
  O  O340  1  0.64232735  0.50159977  0.02428589  1
  O  O341  1  0.61011409  0.54187383  0.49578517  1
  O  O342  1  0.26619256  0.43022978  0.04602824  1
  O  O343  1  0.33478708  0.34724458  0.59560583  1
  O  O344  1  0.41017297  0.98204986  0.14711732  1
  O  O345  1  0.40115300  0.83576687  0.58001465  1
  O  O346  1  0.84885713  0.37248273  0.15774928  1
  O  O347  1  0.81851574  0.36817136  0.64481021  1
  O  O348  1  0.94095344  0.85072931  0.13832701  1
  O  O349  1  0.85482555  0.86508255  0.65296102  1
  O  O350  1  0.21853179  0.07469504  0.36711754  1
  O  O351  1  0.11307710  0.13051051  0.81785620  1
  O  O352  1  0.06738895  0.55069333  0.44631042  1
  O  O353  1  0.14276233  0.71196971  1.00076705  1
  O  O354  1  0.62123284  0.11664734  0.35206210  1
  O  O355  1  0.60922026  0.14089331  0.95403419  1
  O  O356  1  0.65249926  0.64589905  0.33888371  1
  O  O357  1  0.59197684  0.52135553  0.72392130  1
