# generated using pymatgen
data_V51Zn51O256
_symmetry_space_group_name_H-M   'P 1'
_cell_length_a   17.86113938
_cell_length_b   17.68724525
_cell_length_c   17.47690538
_cell_angle_alpha   90.20733911
_cell_angle_beta   88.99566975
_cell_angle_gamma   90.31547279
_symmetry_Int_Tables_number   1
_chemical_formula_structural   V51Zn51O256
_chemical_formula_sum   'V51 Zn51 O256'
_cell_volume   5520.23911163
_cell_formula_units_Z   1
loop_
 _symmetry_equiv_pos_site_id
 _symmetry_equiv_pos_as_xyz
  1  'x, y, z'
loop_
 _atom_site_type_symbol
 _atom_site_label
 _atom_site_symmetry_multiplicity
 _atom_site_fract_x
 _atom_site_fract_y
 _atom_site_fract_z
 _atom_site_occupancy
  V  V0  1  0.05149915  0.79104379  0.73419251  1
  V  V1  1  0.12733794  0.06720093  0.65788942  1
  V  V2  1  0.00338127  0.02579039  0.53500281  1
  V  V3  1  0.85286988  0.36296461  0.46717190  1
  V  V4  1  0.72555128  0.20318198  -0.01406150  1
  V  V5  1  0.46351809  0.59955715  0.61029266  1
  V  V6  1  -0.01060347  0.72107696  0.26177722  1
  V  V7  1  0.91581669  0.06116418  0.40488193  1
  V  V8  1  0.84167031  0.85039233  0.08097575  1
  V  V9  1  0.01079896  0.34453972  0.34828766  1
  V  V10  1  0.61219033  0.43796990  0.78317354  1
  V  V11  1  0.20720900  0.60230007  0.82435280  1
  V  V12  1  0.53607361  0.28859184  0.71461949  1
  V  V13  1  0.77591438  0.53766720  0.25652031  1
  V  V14  1  0.65378371  0.23826913  0.38622670  1
  V  V15  1  0.63228495  0.01281679  0.56196210  1
  V  V16  1  -0.03312664  0.92251502  0.82551116  1
  V  V17  1  0.35984283  0.66467714  0.25289552  1
  V  V18  1  0.12484446  0.04389931  0.08411451  1
  V  V19  1  0.62252331  0.58394148  0.52686375  1
  V  V20  1  0.75834661  0.21106831  0.50321582  1
  V  V21  1  0.09881994  0.57246162  0.02946005  1
  V  V22  1  0.17068983  0.48954111  0.16237052  1
  V  V23  1  0.07113963  0.77523378  0.41378342  1
  V  V24  1  -0.02997065  0.17340050  0.65640672  1
  V  V25  1  0.00485522  0.46669045  0.51104647  1
  V  V26  1  0.13511787  0.36723629  0.73755672  1
  V  V27  1  0.37374490  0.89187903  -0.00128036  1
  V  V28  1  0.39288873  0.22526428  0.69468022  1
  V  V29  1  0.83775533  0.29250450  0.65617861  1
  V  V30  1  0.24205652  0.41418618  0.61465976  1
  V  V31  1  0.48218246  0.08435114  0.14461973  1
  V  V32  1  0.65955676  0.80593488  0.77126473  1
  V  V33  1  0.30381485  0.26258885  0.00625926  1
  V  V34  1  0.56203813  0.29439196  0.88579617  1
  V  V35  1  0.87103747  0.58536560  0.74675284  1
  V  V36  1  0.13241044  0.24326396  0.39946684  1
  V  V37  1  0.10701481  0.59796514  0.49305622  1
  V  V38  1  0.27458712  0.26597081  0.49773147  1
  V  V39  1  0.63181951  0.88295442  0.25422010  1
  V  V40  1  0.20942884  0.57063097  0.35540450  1
  V  V41  1  0.36941977  0.53899796  0.87890675  1
  V  V42  1  0.27286120  0.07855646  0.40417689  1
  V  V43  1  0.13167734  0.76089607  0.88405811  1
  V  V44  1  0.82752696  0.04152559  0.84659758  1
  V  V45  1  0.25143790  0.77544586  0.47659943  1
  V  V46  1  0.00052723  0.11151165  0.16553266  1
  V  V47  1  0.75609939  0.58389750  0.43179410  1
  V  V48  1  0.71528571  -0.02249744  0.73524073  1
  V  V49  1  0.22784072  0.71277335  0.09350799  1
  V  V50  1  0.13058521  0.92499276  0.21062405  1
  Zn  Zn51  1  0.96165498  0.52584674  0.30141094  1
  Zn  Zn52  1  0.70072237  0.38525447  0.94545484  1
  Zn  Zn53  1  0.33696702  0.57520701  0.08223950  1
  Zn  Zn54  1  0.21363421  0.09739618  0.23223527  1
  Zn  Zn55  1  0.31745761  0.71498273  0.93375282  1
  Zn  Zn56  1  0.97221565  0.42283762  0.70885647  1
  Zn  Zn57  1  0.67845036  0.60640096  0.72403816  1
  Zn  Zn58  1  0.60442461  0.31513646  0.09069725  1
  Zn  Zn59  1  0.74917546  0.22289390  0.80881229  1
  Zn  Zn60  1  0.18246869  0.68356819  0.64779212  1
  Zn  Zn61  1  0.83665758  0.85385983  0.25209276  1
  Zn  Zn62  1  0.71292460  0.90179326  0.92794493  1
  Zn  Zn63  1  0.08105651  0.30582660  0.55924383  1
  Zn  Zn64  1  0.20699055  0.22870825  0.69383809  1
  Zn  Zn65  1  0.74549632  0.44452833  0.08911101  1
  Zn  Zn66  1  0.66547408  0.42536275  0.40567677  1
  Zn  Zn67  1  0.66637842  0.17920898  0.65076965  1
  Zn  Zn68  1  0.45164437  0.81408545  0.15700869  1
  Zn  Zn69  1  0.30071580  0.06047444  0.05067975  1
  Zn  Zn70  1  0.60581883  0.05346339  0.37591311  1
  Zn  Zn71  1  0.43037267  0.42357823  0.67653858  1
  Zn  Zn72  1  0.85066478  0.24015090  0.32855798  1
  Zn  Zn73  1  0.25061884  0.46998896  0.98315515  1
  Zn  Zn74  1  0.55341386  0.91731102  0.03775236  1
  Zn  Zn75  1  0.31383859  0.23428389  0.30946727  1
  Zn  Zn76  1  0.28775926  0.59865133  0.53999414  1
  Zn  Zn77  1  0.43609742  0.73186923  0.39920985  1
  Zn  Zn78  1  0.29366406  0.34319867  0.80965068  1
  Zn  Zn79  1  0.19074454  0.75697014  0.28172816  1
  Zn  Zn80  1  0.49731981  0.19573310  0.97901824  1
  Zn  Zn81  1  0.02430626  0.10274208  0.81837642  1
  Zn  Zn82  1  0.01303112  0.85252369  -0.01749370  1
  Zn  Zn83  1  0.83503787  0.47890275  0.57738990  1
  Zn  Zn84  1  0.13360182  0.24470942  0.10935163  1
  Zn  Zn85  1  0.51547865  0.59967272  0.79782132  1
  Zn  Zn86  1  0.95488015  0.20950472  0.47869679  1
  Zn  Zn87  1  0.81391159  0.15988513  0.12819927  1
  Zn  Zn88  1  0.09704863  0.05387726  0.35599673  1
  Zn  Zn89  1  0.52644881  0.89632364  0.43476256  1
  Zn  Zn90  1  0.16053055  0.93884331  0.48833660  1
  Zn  Zn91  1  0.46598415  0.27239462  0.22932043  1
  Zn  Zn92  1  0.72479485  0.71039918  0.18132696  1
  Zn  Zn93  1  0.28625088  0.12035931  0.58980831  1
  Zn  Zn94  1  0.94401362  0.65119225  0.42207939  1
  Zn  Zn95  1  0.96791383  0.92174443  0.14577658  1
  Zn  Zn96  1  0.60975304  0.11451132  0.82105165  1
  Zn  Zn97  1  0.17386834  0.41507574  0.43267246  1
  Zn  Zn98  1  0.70455778  0.03787879  0.03343590  1
  Zn  Zn99  1  0.89775763  0.13701744  0.95130010  1
  Zn  Zn100  1  0.55317602  0.94047724  0.71315152  1
  Zn  Zn101  1  1.02287795  0.62242821  0.86659819  1
  O  O102  1  0.08464239  0.14768354  0.11518135  1
  O  O103  1  0.12773511  0.16328030  0.64903914  1
  O  O104  1  0.08512736  0.52463507  0.12204860  1
  O  O105  1  0.12002779  0.60735788  0.58767679  1
  O  O106  1  0.57596966  0.10326965  0.16297813  1
  O  O107  1  0.61326327  0.10208847  0.59278501  1
  O  O108  1  0.62918589  0.66171689  0.14708429  1
  O  O109  1  0.65695573  0.57614337  0.61694166  1
  O  O110  1  0.34699961  0.42977833  0.26091759  1
  O  O111  1  0.36554643  0.42674342  0.83573572  1
  O  O112  1  0.38884431  0.88340563  0.32384274  1
  O  O113  1  0.34363505  0.81784736  0.94189440  1
  O  O114  1  0.90257827  0.33129224  0.37680193  1
  O  O115  1  0.92505778  0.42283183  0.91444494  1
  O  O116  1  0.90318295  0.92398414  0.32221589  1
  O  O117  1  0.90328583  0.85693331  0.83834904  1
  O  O118  1  0.19061305  0.02014712  0.41608440  1
  O  O119  1  0.39390075  -0.06665692  0.77057817  1
  O  O120  1  0.23701363  0.47883597  0.37040870  1
  O  O121  1  0.25325931  0.52271389  0.86126636  1
  O  O122  1  0.84390465  0.00897011  0.42715096  1
  O  O123  1  0.74385098  -0.02100461  0.84707274  1
  O  O124  1  0.72919042  0.51954393  0.35189472  1
  O  O125  1  0.78373135  0.43352829  0.98930518  1
  O  O126  1  0.24884437  0.49940056  0.10196540  1
  O  O127  1  0.24028777  0.50644610  0.59640340  1
  O  O128  1  0.21708384  1.07542573  0.12090038  1
  O  O129  1  0.22344678  1.05169472  0.64840327  1
  O  O130  1  0.82833171  0.61531416  0.06498201  1
  O  O131  1  0.65201105  0.40183969  0.59533602  1
  O  O132  1  0.85365242  0.91808922  0.15723997  1
  O  O133  1  0.69710680  0.97731525  0.62842749  1
  O  O134  1  0.00636875  0.31607486  0.25976033  1
  O  O135  1  0.05855588  0.41528620  0.77201236  1
  O  O136  1  0.04029019  0.89226952  0.22142177  1
  O  O137  1  0.03217498  0.89047838  0.75207460  1
  O  O138  1  0.41422022  0.44386246  0.25973061  1
  O  O139  1  0.53633492  0.39737363  0.72306098  1
  O  O140  1  0.53597699  0.85825661  0.23545615  1
  O  O141  1  0.57382933  0.84001177  0.74115682  1
  O  O142  1  0.46152386  0.05874165  0.23765150  1
  O  O143  1  0.47388148  0.20611689  0.74852614  1
  O  O144  1  0.55942556  0.51526628  0.20751731  1
  O  O145  1  0.48526695  0.63312259  0.69964713  1
  O  O146  1  1.01205780  0.10592161  0.25911874  1
  O  O147  1  0.99820079  0.18889919  0.74626852  1
  O  O148  1  0.96828500  0.63212017  0.30915617  1
  O  O149  1  0.94524768  0.60998769  0.68716276  1
  O  O150  1  0.40353432  0.25459330  -0.00895748  1
  O  O151  1  0.36247281  0.28598957  0.48883489  1
  O  O152  1  0.30869159  0.67610772  0.04250462  1
  O  O153  1  0.33972810  0.76556737  0.43943541  1
  O  O154  1  0.82140835  0.18731612  0.01160658  1
  O  O155  1  0.85467623  0.25791169  0.49413988  1
  O  O156  1  0.88411007  0.72742271  -0.05251834  1
  O  O157  1  0.76208082  0.83018835  0.43399951  1
  O  O158  1  0.14296754  0.23626054  0.49685106  1
  O  O159  1  0.20695732  0.24442814  1.02304132  1
  O  O160  1  0.09011477  0.69784428  0.47716493  1
  O  O161  1  0.08767568  0.77779119  0.97009197  1
  O  O162  1  0.65410510  0.22826134  0.48605947  1
  O  O163  1  0.55601157  0.28915185  0.99065018  1
  O  O164  1  0.80957476  0.71849087  0.55669196  1
  O  O165  1  0.65926544  0.76871555  1.01417224  1
  O  O166  1  0.46182929  0.18259062  0.15785541  1
  O  O167  1  0.58363464  0.25773239  0.63906225  1
  O  O168  1  0.53176442  0.82288722  0.08600901  1
  O  O169  1  0.46677873  0.79249059  0.60629485  1
  O  O170  1  0.99172892  0.28995992  0.07521837  1
  O  O171  1  0.92168901  0.33148528  0.68385938  1
  O  O172  1  1.01495562  0.70065812  0.17452963  1
  O  O173  1  0.98425951  0.76270064  0.68005173  1
  O  O174  1  0.02553273  0.24743430  0.40208384  1
  O  O175  1  -0.09567514  0.36829671  0.87649792  1
  O  O176  1  -0.02516895  0.75856706  0.41509842  1
  O  O177  1  0.05224114  0.72822439  0.82353780  1
  O  O178  1  0.60737955  0.15963187  0.34981971  1
  O  O179  1  0.47828845  0.32095526  0.86105612  1
  O  O180  1  0.50767502  0.79402767  0.44165899  1
  O  O181  1  0.54444014  0.69290982  0.86075400  1
  O  O182  1  0.28289000  0.14774996  0.48107798  1
  O  O183  1  0.30736172  0.16053955  1.00245746  1
  O  O184  1  0.21085362  0.59551298  0.46136486  1
  O  O185  1  0.15355275  0.65061674  1.05489883  1
  O  O186  1  0.77016122  0.12148580  0.50951687  1
  O  O187  1  0.68422265  0.11907055  0.95768744  1
  O  O188  1  0.76977941  0.53001504  0.50881184  1
  O  O189  1  0.63456399  0.60375100  1.09106324  1
  O  O190  1  0.29201185  0.36420357  0.00388599  1
  O  O191  1  0.23315360  0.36741904  0.51786613  1
  O  O192  1  0.21361509  0.79854695  0.06544693  1
  O  O193  1  0.23724253  0.86584885  0.51106834  1
  O  O194  1  0.65418242  0.40160275  0.04981034  1
  O  O195  1  0.76837394  0.38330167  0.43493015  1
  O  O196  1  0.79302360  0.87941459  0.00461649  1
  O  O197  1  0.81090791  0.86926860  0.58191392  1
  O  O198  1  0.18767664  0.53417144  0.24376092  1
  O  O199  1  0.05077511  0.28908910  0.91228448  1
  O  O200  1  0.14073428  1.01539825  0.25685147  1
  O  O201  1  0.09758490  1.05148829  0.75157555  1
  O  O202  1  0.73076755  0.48954243  0.18556022  1
  O  O203  1  0.60917706  0.53917410  0.78399685  1
  O  O204  1  0.62507274  0.97961030  0.28252366  1
  O  O205  1  0.62072068  1.01293686  0.76384973  1
  O  O206  1  0.34814029  -0.08087327  0.28077176  1
  O  O207  1  0.43707463  -0.02528453  0.73179657  1
  O  O208  1  0.55729656  0.49383237  0.27421812  1
  O  O209  1  0.37579930  0.48012305  0.77502859  1
  O  O210  1  0.92166777  -0.00835429  0.30302596  1
  O  O211  1  0.79307818  0.03060932  0.72766671  1
  O  O212  1  0.88865865  0.64128204  0.08541774  1
  O  O213  1  0.89606863  0.48803293  0.75919721  1
  O  O214  1  0.11936197  0.34271720  0.36439598  1
  O  O215  1  0.08127873  0.34795951  0.93333879  1
  O  O216  1  0.08460534  0.86389859  0.44889041  1
  O  O217  1  0.16067817  0.83898074  0.84466749  1
  O  O218  1  0.62946056  0.33061059  0.36294279  1
  O  O219  1  0.61293184  0.39603171  0.87956091  1
  O  O220  1  0.60552053  0.86733979  0.35361557  1
  O  O221  1  0.67223045  0.81905820  0.86717918  1
  O  O222  1  0.38354435  0.06993701  0.12250316  1
  O  O223  1  0.38059690  0.14793904  0.63820737  1
  O  O224  1  0.37511616  0.59662528  0.18327051  1
  O  O225  1  0.37813180  0.63351827  0.58452402  1
  O  O226  1  0.91964518  0.15501821  0.14208842  1
  O  O227  1  0.87263891  0.19228661  0.65466217  1
  O  O228  1  0.82130595  0.70257810  -0.06669140  1
  O  O229  1  0.82985313  0.55468731  0.65680133  1
  O  O230  1  0.32110027  0.27540137  0.10257045  1
  O  O231  1  0.26257928  0.23788169  0.59846140  1
  O  O232  1  0.23608265  0.70644610  0.19323243  1
  O  O233  1  0.24273832  0.71157953  0.55509166  1
  O  O234  1  0.68366814  0.23621732  0.06741412  1
  O  O235  1  0.74606173  0.24236084  0.60065818  1
  O  O236  1  0.79435688  0.77498265  0.12338719  1
  O  O237  1  0.87778989  0.72228035  0.54617285  1
  O  O238  1  0.24259439  0.26634830  0.39502589  1
  O  O239  1  0.29220292  0.27848645  0.90459997  1
  O  O240  1  0.19144595  0.76359804  0.39606560  1
  O  O241  1  0.20750084  0.68996852  0.88803953  1
  O  O242  1  0.75335508  0.22665472  0.38389877  1
  O  O243  1  0.71655523  0.27117363  0.91035387  1
  O  O244  1  0.80616776  0.80003997  0.38768311  1
  O  O245  1  0.68471949  0.70684416  0.99637476  1
  O  O246  1  -0.04851833  0.28318957  0.01909929  1
  O  O247  1  0.00331120  0.23265504  0.58205209  1
  O  O248  1  0.02474739  0.59947964  -0.02577959  1
  O  O249  1  0.00107680  0.57505167  0.48036026  1
  O  O250  1  0.49326836  0.11027309  0.04180231  1
  O  O251  1  0.46173883  0.15508228  0.46712492  1
  O  O252  1  0.50427194  0.71106659  -0.01735673  1
  O  O253  1  0.53386211  0.62742522  0.53638463  1
  O  O254  1  0.37672877  0.45992577  0.44617222  1
  O  O255  1  0.48936858  0.43951259  1.04735920  1
  O  O256  1  0.40044384  0.91323742  0.50548990  1
  O  O257  1  0.46520908  0.91873907  0.97299578  1
  O  O258  1  1.01733354  0.36942145  0.49456572  1
  O  O259  1  0.95352211  0.43175682  1.06606003  1
  O  O260  1  0.95384425  0.95138418  0.55123051  1
  O  O261  1  1.01515621  0.93061536  0.91014771  1
  O  O262  1  0.43361526  0.43542933  0.40924278  1
  O  O263  1  0.46508322  0.54251181  0.87806289  1
  O  O264  1  0.51701313  0.99401158  0.39666263  1
  O  O265  1  0.41542132  1.07138666  0.87124308  1
  O  O266  1  1.00630863  0.44436455  0.34933655  1
  O  O267  1  0.91885720  0.49122669  1.06921310  1
  O  O268  1  1.01675388  1.02110128  0.42482193  1
  O  O269  1  0.92118262  1.01385003  0.80739585  1
  O  O270  1  0.01504384  0.02141147  0.11684219  1
  O  O271  1  0.00021620  0.07910173  0.63287708  1
  O  O272  1  0.15377942  0.38760934  0.18335391  1
  O  O273  1  -0.00944739  0.47141264  0.60713019  1
  O  O274  1  0.50550210  -0.00906721  0.11440741  1
  O  O275  1  0.53628562  -0.02770699  0.60079506  1
  O  O276  1  0.45361037  0.42751598  0.10693506  1
  O  O277  1  0.46283222  0.50327033  0.61136385  1
  O  O278  1  0.21961304  0.26787121  0.24462468  1
  O  O279  1  0.22618610  0.40840901  0.73978638  1
  O  O280  1  0.19301237  0.86339520  0.24618916  1
  O  O281  1  0.28665434  0.82420604  0.73227041  1
  O  O282  1  0.86632323  0.50689198  0.25656521  1
  O  O283  1  0.69235849  0.42054218  0.74320303  1
  O  O284  1  0.73078220  0.88542954  0.26985940  1
  O  O285  1  0.72632428  0.87608493  0.73230164  1
  O  O286  1  0.28523980  0.12137133  0.30906370  1
  O  O287  1  0.31125265  0.24978148  0.74844741  1
  O  O288  1  0.27477926  0.63913031  0.31593203  1
  O  O289  1  0.22902244  0.62697963  0.73160554  1
  O  O290  1  0.74397326  0.08012498  0.12025864  1
  O  O291  1  0.68405680  0.15565688  0.75466756  1
  O  O292  1  0.77089721  0.63290007  0.24059558  1
  O  O293  1  0.77602057  0.57302477  0.78246147  1
  O  O294  1  0.34384894  0.02309938  0.41336512  1
  O  O295  1  0.36511105  0.10361434  0.83641476  1
  O  O296  1  0.42622439  0.65468206  0.32330266  1
  O  O297  1  0.34856952  0.63416439  0.86434065  1
  O  O298  1  0.89497382  0.14671337  0.36238048  1
  O  O299  1  0.82041850  0.13916883  0.84199857  1
  O  O300  1  0.83564677  0.63161311  0.41127843  1
  O  O301  1  0.91961464  0.59521193  0.83326373  1
  O  O302  1  0.12680939  0.35477802  0.11714291  1
  O  O303  1  0.13746868  0.36267484  0.63459351  1
  O  O304  1  0.14214912  0.94446938  0.11017030  1
  O  O305  1  0.27099909  0.87253107  0.68543370  1
  O  O306  1  0.54802229  0.31271762  0.18174995  1
  O  O307  1  0.62380741  0.36868753  0.54153373  1
  O  O308  1  0.63737194  0.91320584  0.15994103  1
  O  O309  1  0.57026729  0.92021639  0.54642439  1
  O  O310  1  0.19339223  0.21406259  0.20124385  1
  O  O311  1  0.14595934  0.27782702  0.77336109  1
  O  O312  1  0.07798303  0.75860873  0.30748018  1
  O  O313  1  0.13368619  0.77343401  0.68545739  1
  O  O314  1  0.78642448  0.05792740  0.27031949  1
  O  O315  1  0.60563490  0.28370517  0.78540639  1
  O  O316  1  0.65699688  0.78497773  0.23852581  1
  O  O317  1  0.67330742  0.71381050  0.74182265  1
  O  O318  1  0.41921489  0.24783258  0.32176264  1
  O  O319  1  0.43974021  0.30866720  0.66003894  1
  O  O320  1  0.38730898  0.75160568  0.21650879  1
  O  O321  1  0.40767267  0.80639964  0.64025178  1
  O  O322  1  0.81313052  0.24473284  0.22055947  1
  O  O323  1  0.78671218  0.30061197  0.73772971  1
  O  O324  1  0.90916818  0.77647994  0.25827585  1
  O  O325  1  0.84665952  0.68102848  0.74760164  1
  O  O326  1  0.37498393  0.53380131  0.46070178  1
  O  O327  1  0.34992756  0.52192049  0.98001429  1
  O  O328  1  0.46159591  1.09213088  0.49530335  1
  O  O329  1  0.31980975  0.97537472  0.99214967  1
  O  O330  1  0.90115551  0.45338997  0.47934152  1
  O  O331  1  0.82131887  0.33873840  1.12795883  1
  O  O332  1  0.93656120  1.10212465  0.50354318  1
  O  O333  1  0.84369790  1.03232392  0.94179044  1
  O  O334  1  0.13388602  0.04806340  -0.00748209  1
  O  O335  1  0.10216638  0.00756579  0.56462192  1
  O  O336  1  0.14832664  0.50655917  -0.02055863  1
  O  O337  1  0.10559484  0.48638037  0.49115801  1
  O  O338  1  0.64605631  -0.04427088  0.00043888  1
  O  O339  1  0.65793733  0.01816036  0.46675037  1
  O  O340  1  0.57331119  0.57986538  0.06602502  1
  O  O341  1  0.61871495  0.50121348  0.47308866  1
  O  O342  1  0.35879647  0.27921955  0.21048503  1
  O  O343  1  0.33114573  0.39494368  0.63229071  1
  O  O344  1  0.37986093  0.86758676  0.09454543  1
  O  O345  1  0.38840044  0.95071127  0.56362217  1
  O  O346  1  0.82954684  0.32468780  0.19877044  1
  O  O347  1  0.82478481  0.37013271  0.57955312  1
  O  O348  1  0.94201017  0.84382956  0.06241918  1
  O  O349  1  0.85774949  0.86059096  0.63094308  1
  O  O350  1  0.13745148  0.15938071  0.35057622  1
  O  O351  1  -0.00435258  0.13292052  0.91682985  1
  O  O352  1  0.11643113  0.58885084  0.36368833  1
  O  O353  1  0.11430192  0.58018042  0.82487251  1
  O  O354  1  0.74448819  0.07664415  0.32388741  1
  O  O355  1  0.55196243  0.18467400  0.88375668  1
  O  O356  1  0.68199291  0.64507145  0.46654690  1
  O  O357  1  0.54200904  0.67030004  0.93686374  1
