# generated using pymatgen
data_V51Zn51O256
_symmetry_space_group_name_H-M   'P 1'
_cell_length_a   17.57063752
_cell_length_b   17.54308759
_cell_length_c   17.50426629
_cell_angle_alpha   91.43311100
_cell_angle_beta   88.48049479
_cell_angle_gamma   88.97449860
_symmetry_Int_Tables_number   1
_chemical_formula_structural   V51Zn51O256
_chemical_formula_sum   'V51 Zn51 O256'
_cell_volume   5391.05711241
_cell_formula_units_Z   1
loop_
 _symmetry_equiv_pos_site_id
 _symmetry_equiv_pos_as_xyz
  1  'x, y, z'
loop_
 _atom_site_type_symbol
 _atom_site_label
 _atom_site_symmetry_multiplicity
 _atom_site_fract_x
 _atom_site_fract_y
 _atom_site_fract_z
 _atom_site_occupancy
  V  V0  1  0.78755165  0.27031501  0.01621376  1
  V  V1  1  0.61779814  0.39112868  0.25136396  1
  V  V2  1  0.60689214  0.73338660  0.89112799  1
  V  V3  1  0.78322739  0.14085632  0.90106050  1
  V  V4  1  0.26463215  0.51677533  0.22617152  1
  V  V5  1  0.39043924  0.24654930  0.13125155  1
  V  V6  1  0.00591436  0.66939749  0.66727243  1
  V  V7  1  -0.05349228  0.07198017  -0.02392463  1
  V  V8  1  0.83684272  0.48391667  0.36297730  1
  V  V9  1  0.59926661  0.61320379  0.00252564  1
  V  V10  1  0.75460521  0.39885168  0.12542355  1
  V  V11  1  0.12595667  0.26140843  0.36705317  1
  V  V12  1  0.51131423  0.91144799  0.38514770  1
  V  V13  1  0.74437470  0.65143886  0.33001658  1
  V  V14  1  0.13728837  0.00621456  0.59160400  1
  V  V15  1  0.01639653  0.78109929  0.78506683  1
  V  V16  1  0.08545496  0.54765865  0.11656229  1
  V  V17  1  0.00220472  -0.02838342  0.50344620  1
  V  V18  1  0.65503121  0.89664482  0.28321171  1
  V  V19  1  0.58499015  0.49095049  0.11257050  1
  V  V20  1  0.59936978  0.15056537  -0.04432339  1
  V  V21  1  0.04406137  0.13858028  0.10497007  1
  V  V22  1  0.14265397  0.22769096  0.85028542  1
  V  V23  1  0.51615710  0.77121689  0.26677588  1
  V  V24  1  0.50182932  0.27626794  0.27061905  1
  V  V25  1  0.84781671  0.50539275  0.85256550  1
  V  V26  1  0.00910394  0.22822627  0.73997379  1
  V  V27  1  0.81715989  0.25209677  0.46865144  1
  V  V28  1  0.26618767  0.85868931  0.66149828  1
  V  V29  1  0.16257776  0.72124626  0.90180184  1
  V  V30  1  0.74364681  0.89209879  0.10448169  1
  V  V31  1  -0.02515859  0.37277041  0.31103353  1
  V  V32  1  0.51466731  -0.01120076  -0.00410377  1
  V  V33  1  0.49552006  0.66307948  0.71191726  1
  V  V34  1  0.63296874  0.36799634  0.75918334  1
  V  V35  1  0.37218850  0.26177324  0.61031869  1
  V  V36  1  0.12943576  0.92680778  0.80107167  1
  V  V37  1  0.28753928  0.76528452  0.43801417  1
  V  V38  1  0.22520265  -0.00716278  0.23733349  1
  V  V39  1  0.41093615  0.11940644  0.25920072  1
  V  V40  1  0.86350251  0.74246254  0.12097873  1
  V  V41  1  0.63754455  0.03232221  0.16792099  1
  V  V42  1  0.23328092  0.10520675  0.37005493  1
  V  V43  1  0.30243989  0.87473866  0.12764063  1
  V  V44  1  0.26260101  0.36043959  0.14273646  1
  V  V45  1  0.87362083  0.11152501  0.74026959  1
  V  V46  1  0.90677833  0.14453215  0.23698332  1
  V  V47  1  0.77501402  0.12426354  0.37620364  1
  V  V48  1  0.38561877  0.90306819  0.49452623  1
  V  V49  1  0.29805627  0.74449554  0.01562116  1
  V  V50  1  0.90766961  -0.02359901  0.35085397  1
  Zn  Zn51  1  0.17031904  0.70392416  0.56969909  1
  Zn  Zn52  1  0.19503191  0.18351936  0.18796349  1
  Zn  Zn53  1  0.22307553  0.95653646  0.43751862  1
  Zn  Zn54  1  0.06488494  0.16974103  0.55484038  1
  Zn  Zn55  1  0.47685878  0.70424144  0.41298094  1
  Zn  Zn56  1  0.66766151  0.74314320  0.18380159  1
  Zn  Zn57  1  0.89300572  0.58530579  0.52579432  1
  Zn  Zn58  1  0.91760876  0.73552697  0.94830228  1
  Zn  Zn59  1  0.04975647  0.06100040  0.29991331  1
  Zn  Zn60  1  0.82835089  0.81612661  0.30764870  1
  Zn  Zn61  1  0.31471819  0.08165782  0.55841725  1
  Zn  Zn62  1  0.57987823  1.08117265  0.34301752  1
  Zn  Zn63  1  0.42897869  0.14323196  0.97955613  1
  Zn  Zn64  1  0.35871044  0.04186935  0.11550235  1
  Zn  Zn65  1  0.60432161  0.59613489  0.26912843  1
  Zn  Zn66  1  0.46634119  0.46864021  0.71007036  1
  Zn  Zn67  1  0.53071903  0.37685068  0.59330903  1
  Zn  Zn68  1  0.73138138  0.75142047  0.98777116  1
  Zn  Zn69  1  0.24921379  0.40534233  0.35023076  1
  Zn  Zn70  1  0.91495693  0.99098521  0.13574532  1
  Zn  Zn71  1  0.31819031  0.29053563  0.77925750  1
  Zn  Zn72  1  -0.04716649  0.31895319  0.11471713  1
  Zn  Zn73  1  0.03240481  0.60097423  0.86393757  1
  Zn  Zn74  1  0.63777321  0.23533299  0.13357423  1
  Zn  Zn75  1  0.48053059  0.94461857  0.18851551  1
  Zn  Zn76  1  0.20891716  0.15882375  0.69525895  1
  Zn  Zn77  1  0.17323512  0.87715424  0.98476520  1
  Zn  Zn78  1  0.04539965  0.69808225  0.04146761  1
  Zn  Zn79  1  0.32938987  0.25022495  0.34809526  1
  Zn  Zn80  1  0.98375560  0.25308788  0.95375668  1
  Zn  Zn81  1  0.42631056  0.43336014  0.18804611  1
  Zn  Zn82  1  0.82408282  0.29119024  0.81363881  1
  Zn  Zn83  1  0.53898173  0.80054789  0.06682954  1
  Zn  Zn84  1  0.10623978  0.50979572  0.31079304  1
  Zn  Zn85  1  0.32951613  0.74625025  0.80878397  1
  Zn  Zn86  1  0.43026137  0.84771806  0.67680131  1
  Zn  Zn87  1  0.88183359  0.09404814  0.54214729  1
  Zn  Zn88  1  0.78909811  0.43437816  0.53520313  1
  Zn  Zn89  1  0.89985901  0.38077768  0.69105454  1
  Zn  Zn90  1  0.66606029  0.52391331  0.44475353  1
  Zn  Zn91  1  0.79047813  0.08421338  0.07728910  1
  Zn  Zn92  1  0.20125675  0.69753531  0.16534246  1
  Zn  Zn93  1  0.11367420  0.35066984  1.00999867  1
  Zn  Zn94  1  0.34311084  0.84550093  0.30350319  1
  Zn  Zn95  1  0.73977352  0.60559508  0.11916779  1
  Zn  Zn96  1  0.91887508  0.47579433  0.17587168  1
  Zn  Zn97  1  0.68684310  0.43744830  0.95324397  1
  Zn  Zn98  1  0.65452227  0.53248503  0.64427632  1
  Zn  Zn99  1  0.24022493  0.54603579  0.04654877  1
  Zn  Zn100  1  0.98040861  0.18193008  0.42148846  1
  Zn  Zn101  1  0.05245312  0.07936872  0.83405354  1
  O  O102  1  0.14127347  0.12849457  0.10763531  1
  O  O103  1  0.14567230  0.10648011  0.60248965  1
  O  O104  1  0.10830114  0.64846070  0.11534157  1
  O  O105  1  0.09157667  0.65635006  0.61886130  1
  O  O106  1  0.65072226  0.12748992  0.16736280  1
  O  O107  1  0.61427488  0.13003193  0.60778605  1
  O  O108  1  0.60979220  0.59194596  0.11997312  1
  O  O109  1  0.55810195  0.47750318  0.63424706  1
  O  O110  1  0.33285940  0.35038719  0.38352741  1
  O  O111  1  0.38935505  0.37131300  0.82450162  1
  O  O112  1  0.39567934  0.89944884  0.38631802  1
  O  O113  1  0.41208219  0.97606386  0.76798150  1
  O  O114  1  0.88331696  0.38606026  0.35582289  1
  O  O115  1  0.85110945  0.40096131  0.86081285  1
  O  O116  1  0.88855475  0.88399052  0.36857080  1
  O  O117  1  0.76117899  0.88312063  0.79210515  1
  O  O118  1  0.25359055  -0.01039845  0.33658875  1
  O  O119  1  0.42242230  0.04315926  0.79028966  1
  O  O120  1  0.21580655  0.50778436  0.32307189  1
  O  O121  1  0.27813059  0.59148798  0.80060805  1
  O  O122  1  0.82865706  0.03361352  0.39233593  1
  O  O123  1  0.77485384  0.04950449  0.89282851  1
  O  O124  1  0.74328144  0.46720710  0.37371703  1
  O  O125  1  0.74907589  0.50075666  0.88137647  1
  O  O126  1  0.27555157  0.47841011  0.12571315  1
  O  O127  1  0.15843205  0.48037956  0.57150113  1
  O  O128  1  0.26731408  0.98078862  0.13047126  1
  O  O129  1  0.21430271  0.94390008  0.62107525  1
  O  O130  1  0.74518714  0.49527885  0.11690171  1
  O  O131  1  0.69837540  0.50096565  0.54630160  1
  O  O132  1  0.72073725  1.00526611  0.10672636  1
  O  O133  1  0.73599683  0.98298479  0.59352680  1
  O  O134  1  -0.02158664  0.38016475  0.21116158  1
  O  O135  1  0.11602642  0.34725527  0.72401549  1
  O  O136  1  0.02850430  0.83958554  0.23431391  1
  O  O137  1  0.04003107  0.87913112  0.78150452  1
  O  O138  1  0.49676395  0.37704484  0.25200803  1
  O  O139  1  0.55005943  0.42719248  0.77714003  1
  O  O140  1  0.52012591  0.89106519  0.27352530  1
  O  O141  1  0.49862583  0.76294273  0.68056431  1
  O  O142  1  0.50605151  0.14096777  0.27812244  1
  O  O143  1  0.60533997  -0.00773688  0.66455972  1
  O  O144  1  0.52475738  0.67233344  0.29479289  1
  O  O145  1  0.46762464  0.57204166  0.74426915  1
  O  O146  1  1.00993031  0.10896249  0.20236368  1
  O  O147  1  0.97476504  0.13476327  0.76557073  1
  O  O148  1  1.06641603  0.61120756  0.36182509  1
  O  O149  1  1.01593730  0.65662088  0.76695763  1
  O  O150  1  0.37824931  0.22347000  0.03610996  1
  O  O151  1  0.34967437  0.31583613  0.53547446  1
  O  O152  1  0.38953953  0.74473307  0.00271565  1
  O  O153  1  0.37902216  0.73508906  0.45862638  1
  O  O154  1  0.88230811  0.27002251  0.03259008  1
  O  O155  1  0.91301054  0.26251371  0.46952795  1
  O  O156  1  0.83613824  0.75910260  0.01221735  1
  O  O157  1  0.80843956  0.66819927  0.56264784  1
  O  O158  1  0.08659972  0.21792884  0.45153492  1
  O  O159  1  0.15988331  0.29553171  0.91934572  1
  O  O160  1  0.06936328  0.75995737  0.43594177  1
  O  O161  1  0.12922002  0.76714754  0.98757042  1
  O  O162  1  0.58503669  0.34564383  0.49805663  1
  O  O163  1  0.60455868  0.21671495  1.02821070  1
  O  O164  1  0.71148357  0.73850613  0.51966232  1
  O  O165  1  0.59419432  0.73652547  0.99481786  1
  O  O166  1  0.48564962  0.24870027  0.14209974  1
  O  O167  1  0.47098372  0.28100930  0.59869305  1
  O  O168  1  0.55649230  0.76090918  0.16602192  1
  O  O169  1  0.43061461  0.66090897  0.63670888  1
  O  O170  1  1.02749909  0.23318034  0.12567243  1
  O  O171  1  1.01772275  0.23317845  0.64256527  1
  O  O172  1  0.95883345  0.75135789  0.08772078  1
  O  O173  1  0.98777630  0.76997629  0.68563699  1
  O  O174  1  0.02008314  0.29150156  0.34367971  1
  O  O175  1  0.03451565  0.26074756  0.84358564  1
  O  O176  1  -0.00577782  0.61378680  0.38919429  1
  O  O177  1  -0.05767007  0.77912926  0.84712638  1
  O  O178  1  0.50957625  0.27212879  0.36279916  1
  O  O179  1  0.48206382  0.33306864  0.95222869  1
  O  O180  1  0.51616655  0.79629217  0.37242097  1
  O  O181  1  0.57065119  0.68669102  0.77726272  1
  O  O182  1  0.25678640  0.07710137  0.46249558  1
  O  O183  1  0.28438602  0.06732244  0.88523149  1
  O  O184  1  0.21918989  0.70587345  0.47598141  1
  O  O185  1  0.26534569  0.65101342  1.02785253  1
  O  O186  1  0.80123905  0.15049224  0.48741804  1
  O  O187  1  0.76366621  0.16565272  1.00986963  1
  O  O188  1  0.73931783  0.67239664  0.53121869  1
  O  O189  1  0.70340175  0.64849680  1.02426115  1
  O  O190  1  0.19787387  0.35798923  0.07235255  1
  O  O191  1  0.19601940  0.43033890  0.53666022  1
  O  O192  1  0.27205089  0.85882433  0.02425801  1
  O  O193  1  0.27776054  0.86554567  0.47072684  1
  O  O194  1  0.74903716  0.37543320  0.01363959  1
  O  O195  1  0.76979711  0.32570557  0.51773798  1
  O  O196  1  0.71724747  0.87139398  0.01521881  1
  O  O197  1  0.81909546  0.83730900  0.55590125  1
  O  O198  1  0.12405931  0.51455310  0.19908870  1
  O  O199  1  0.10305568  0.50823346  0.80394033  1
  O  O200  1  0.13087690  0.98481016  0.23895560  1
  O  O201  1  0.12109474  1.01693958  0.76671118  1
  O  O202  1  0.59507232  0.49425999  0.22584533  1
  O  O203  1  0.68230609  0.44743187  0.71557047  1
  O  O204  1  0.63498148  1.00994650  0.26828012  1
  O  O205  1  0.72330678  0.98824689  0.66710271  1
  O  O206  1  0.40579218  0.02252907  0.23204443  1
  O  O207  1  0.46573737  -0.05167354  0.71159224  1
  O  O208  1  0.42805066  0.62290788  0.18814298  1
  O  O209  1  0.39222428  0.43799166  0.79287036  1
  O  O210  1  0.92204532  -0.01662859  0.25420358  1
  O  O211  1  0.86201217  0.02213710  0.75641034  1
  O  O212  1  0.86789218  0.50300885  0.26967574  1
  O  O213  1  0.84981072  0.46928773  0.75320098  1
  O  O214  1  0.15851487  0.34974314  0.38656278  1
  O  O215  1  0.24350292  0.44984924  0.85012416  1
  O  O216  1  0.06733736  0.76987018  0.36715631  1
  O  O217  1  0.14739207  0.92946889  0.89736302  1
  O  O218  1  0.61869228  0.39847444  0.34375814  1
  O  O219  1  0.64788807  0.38968425  0.85908280  1
  O  O220  1  0.61389491  0.90982909  0.38337079  1
  O  O221  1  0.54545308  0.80122017  0.86517837  1
  O  O222  1  0.37376025  0.14336452  0.16365087  1
  O  O223  1  0.38635387  0.16968434  0.56856820  1
  O  O224  1  0.42363248  0.65520294  0.12778908  1
  O  O225  1  0.26752614  0.55433727  0.63734320  1
  O  O226  1  0.86958285  0.09948316  0.15198276  1
  O  O227  1  0.86280010  0.12912212  0.64629986  1
  O  O228  1  0.84332969  0.64812350  0.12499340  1
  O  O229  1  1.02243133  0.49362022  0.66039214  1
  O  O230  1  0.27233395  0.25852753  0.16095792  1
  O  O231  1  0.27418901  0.22425690  0.61958067  1
  O  O232  1  0.28451547  0.76830546  0.12502769  1
  O  O233  1  0.22484084  0.77923298  0.63039336  1
  O  O234  1  0.73956327  0.28100292  0.11085784  1
  O  O235  1  0.60459776  0.27627678  0.49740272  1
  O  O236  1  0.75268885  0.78869758  0.13261991  1
  O  O237  1  0.70681788  0.78140127  0.66245159  1
  O  O238  1  0.22961145  0.20830284  0.38204355  1
  O  O239  1  0.23745110  0.22479699  0.79661453  1
  O  O240  1  0.27641417  0.76433020  0.34249287  1
  O  O241  1  0.26466854  0.74583248  0.90217137  1
  O  O242  1  0.78367363  0.23430539  0.37672276  1
  O  O243  1  0.78435918  0.26844103  0.91407453  1
  O  O244  1  0.76384455  0.74181598  0.35829481  1
  O  O245  1  0.69893103  0.75866502  0.87775785  1
  O  O246  1  0.00987453  0.15649577  0.00198509  1
  O  O247  1  -0.01106893  0.10662245  0.50712496  1
  O  O248  1  -0.00448763  0.65975667  -0.04915441  1
  O  O249  1  -0.06379452  0.62329907  0.62041102  1
  O  O250  1  0.51211713  0.16293071  -0.08734573  1
  O  O251  1  0.55383267  0.11481509  0.49930440  1
  O  O252  1  0.50569813  0.61951472  0.01469678  1
  O  O253  1  0.53382493  0.62371764  0.46435437  1
  O  O254  1  0.43402199  0.42877293  0.61617042  1
  O  O255  1  0.47224522  0.40240797  0.95966786  1
  O  O256  1  0.48513690  0.88855832  0.49227518  1
  O  O257  1  0.52354813  0.90170785  1.04015490  1
  O  O258  1  1.03645467  0.36754920  0.54053756  1
  O  O259  1  1.00894584  0.34433422  1.01276598  1
  O  O260  1  1.00960666  0.87897811  0.50282829  1
  O  O261  1  1.03954294  0.89008567  1.09270817  1
  O  O262  1  0.49960295  0.55304164  0.46422935  1
  O  O263  1  0.38523323  0.53788269  0.92752578  1
  O  O264  1  0.50345750  1.00907733  0.38378206  1
  O  O265  1  0.50203160  0.97054357  0.90596258  1
  O  O266  1  1.02530206  0.44850750  0.34494714  1
  O  O267  1  0.94792301  0.52294644  0.84346174  1
  O  O268  1  1.00000133  0.98967126  0.39328066  1
  O  O269  1  0.99262767  1.01959579  0.90402060  1
  O  O270  1  -0.00429824  0.04286890  0.07040309  1
  O  O271  1  0.04407413  -0.01378765  0.61026199  1
  O  O272  1  -0.01038861  0.53041124  0.11452981  1
  O  O273  1  0.00896164  0.43198769  0.69234386  1
  O  O274  1  0.54650870  0.01691958  0.13683867  1
  O  O275  1  0.59133307  -0.04151889  0.60501062  1
  O  O276  1  0.48880616  0.48300614  0.11083445  1
  O  O277  1  0.29192772  0.50613851  0.68082303  1
  O  O278  1  0.35666656  0.49925567  0.25132320  1
  O  O279  1  0.23167439  0.40398026  0.79726816  1
  O  O280  1  0.27121677  0.88585915  0.22829493  1
  O  O281  1  0.33295074  0.82577088  0.73465306  1
  O  O282  1  0.71820433  0.38756502  0.22432329  1
  O  O283  1  0.72605540  0.32384900  0.76348191  1
  O  O284  1  0.74891965  0.89865960  0.29552042  1
  O  O285  1  0.66471042  0.83460802  0.68383628  1
  O  O286  1  0.23930113  0.09363278  0.24494905  1
  O  O287  1  0.28406459  0.08406942  0.66299457  1
  O  O288  1  0.25431634  0.61200803  0.20799625  1
  O  O289  1  0.13919384  0.52197214  0.74386382  1
  O  O290  1  0.80675009  0.12546435  0.28198807  1
  O  O291  1  0.80752192  0.17285537  0.79881695  1
  O  O292  1  0.70999777  0.64587370  0.23101340  1
  O  O293  1  0.70292691  0.60283225  0.70427662  1
  O  O294  1  0.35068763  0.13215684  0.34073698  1
  O  O295  1  0.31360581  0.12750642  0.90610094  1
  O  O296  1  0.34730805  0.55332010  0.45343788  1
  O  O297  1  0.26301011  0.64989596  0.76277159  1
  O  O298  1  0.95127979  0.12497284  0.33161454  1
  O  O299  1  0.89049259  0.14455395  0.92235684  1
  O  O300  1  0.82113094  0.60102440  0.35997217  1
  O  O301  1  0.82320927  0.59400941  0.82094822  1
  O  O302  1  0.23284591  0.39368916  0.23183602  1
  O  O303  1  0.15238290  0.36093950  0.66445358  1
  O  O304  1  0.06503876  0.77988186  0.21376289  1
  O  O305  1  0.20235762  0.88100700  0.75022807  1
  O  O306  1  0.62671294  0.39975158  0.11597162  1
  O  O307  1  0.61334649  0.33896693  0.66040442  1
  O  O308  1  0.65698389  0.90328719  0.17333679  1
  O  O309  1  0.69815225  0.93221304  0.55509284  1
  O  O310  1  0.13702889  0.23203129  0.27246469  1
  O  O311  1  0.11178757  0.19737111  0.74372319  1
  O  O312  1  0.14419640  0.78624915  0.21598638  1
  O  O313  1  0.11162833  0.75832404  0.82510764  1
  O  O314  1  0.60381872  0.28264362  0.23273018  1
  O  O315  1  0.58437603  0.28363971  0.77745802  1
  O  O316  1  0.63607746  0.79781886  0.28057229  1
  O  O317  1  0.56871528  0.62452129  0.65229713  1
  O  O318  1  0.39985706  0.24700031  0.25695971  1
  O  O319  1  0.39506755  0.22940879  0.71156305  1
  O  O320  1  0.42209870  0.78136201  0.24872816  1
  O  O321  1  0.42556886  0.69349511  0.78794521  1
  O  O322  1  0.90287645  0.23622069  0.22416037  1
  O  O323  1  0.91764010  0.29254318  0.74857311  1
  O  O324  1  0.87259113  0.77270042  0.21632603  1
  O  O325  1  0.81549234  0.85638704  0.75526713  1
  O  O326  1  0.28006421  0.54914742  0.47320873  1
  O  O327  1  0.33485702  0.49746367  0.95462871  1
  O  O328  1  0.37582004  0.99595080  0.51712127  1
  O  O329  1  0.42564075  1.04323722  1.02620546  1
  O  O330  1  0.86139517  0.50170585  0.46426635  1
  O  O331  1  0.86880064  0.52109191  0.94905129  1
  O  O332  1  0.90698817  0.98383420  0.52775298  1
  O  O333  1  0.86722822  1.02500652  1.00928348  1
  O  O334  1  0.10728907  -0.08903045  0.08628785  1
  O  O335  1  0.12927048  -0.01516718  0.49313542  1
  O  O336  1  0.13540403  0.50757312  0.03705001  1
  O  O337  1  0.01650745  0.42799345  0.51330842  1
  O  O338  1  0.59542012  0.05587337  -0.00769942  1
  O  O339  1  0.61706526  0.12448559  0.53426809  1
  O  O340  1  0.61414636  0.50381419  0.00401886  1
  O  O341  1  0.54758973  0.49538183  0.46378405  1
  O  O342  1  0.36882066  0.35480011  0.12923782  1
  O  O343  1  0.33749304  0.33908085  0.67599698  1
  O  O344  1  0.39701138  0.88594361  0.12882067  1
  O  O345  1  0.35462052  0.86633574  0.59555889  1
  O  O346  1  0.85372642  0.39296456  0.13046517  1
  O  O347  1  0.86459131  0.43220254  0.61062184  1
  O  O348  1  0.83979489  0.91006486  0.11642317  1
  O  O349  1  0.85917282  0.84510663  0.61125206  1
  O  O350  1  0.13783525  0.09161951  0.36328866  1
  O  O351  1  0.13022947  0.14100484  0.88857577  1
  O  O352  1  -0.01311329  0.63059213  0.46367091  1
  O  O353  1  0.14415699  0.62798490  0.90022897  1
  O  O354  1  0.67992312  0.11081912  0.37931831  1
  O  O355  1  0.67446845  0.16245140  0.88915933  1
  O  O356  1  0.66289401  0.60951975  0.37454640  1
  O  O357  1  0.61023600  0.62446323  0.90077233  1
