# generated using pymatgen
data_V51Zn51O256
_symmetry_space_group_name_H-M   'P 1'
_cell_length_a   17.54442528
_cell_length_b   17.63123959
_cell_length_c   17.43126212
_cell_angle_alpha   89.86887691
_cell_angle_beta   89.47019562
_cell_angle_gamma   89.47361958
_symmetry_Int_Tables_number   1
_chemical_formula_structural   V51Zn51O256
_chemical_formula_sum   'V51 Zn51 O256'
_cell_volume   5391.54056419
_cell_formula_units_Z   1
loop_
 _symmetry_equiv_pos_site_id
 _symmetry_equiv_pos_as_xyz
  1  'x, y, z'
loop_
 _atom_site_type_symbol
 _atom_site_label
 _atom_site_symmetry_multiplicity
 _atom_site_fract_x
 _atom_site_fract_y
 _atom_site_fract_z
 _atom_site_occupancy
  V  V0  1  0.39494142  0.35532359  -0.04820627  1
  V  V1  1  0.12384474  0.09240430  0.50607017  1
  V  V2  1  0.40417389  0.80476731  0.11785552  1
  V  V3  1  0.00648565  0.63228225  0.14112936  1
  V  V4  1  -0.02215901  0.47754000  0.49092614  1
  V  V5  1  0.00481938  0.78221533  0.80114750  1
  V  V6  1  0.38451676  0.62895223  0.73162726  1
  V  V7  1  0.50467438  0.93200530  0.34360928  1
  V  V8  1  0.76921651  -0.01534989  0.74359907  1
  V  V9  1  0.76976178  0.77179618  0.49232216  1
  V  V10  1  0.05998947  0.76207281  0.41066978  1
  V  V11  1  0.86160055  0.66789102  0.25023375  1
  V  V12  1  0.86289558  0.00174986  0.40311619  1
  V  V13  1  0.18474765  0.48414310  0.28895382  1
  V  V14  1  0.65203812  0.49922410  0.13734525  1
  V  V15  1  0.81735987  0.39066135  0.50652962  1
  V  V16  1  0.58758750  0.36187593  0.76788221  1
  V  V17  1  0.87566341  0.83782778  -0.00375147  1
  V  V18  1  0.28455159  0.74674114  0.48232956  1
  V  V19  1  0.52790012  0.70105556  0.63678157  1
  V  V20  1  0.02142840  0.27607065  0.32124148  1
  V  V21  1  0.75111137  0.86010919  0.12120239  1
  V  V22  1  0.10050036  -0.01425586  0.14295755  1
  V  V23  1  0.75161906  0.01478675  0.22209138  1
  V  V24  1  0.10249226  0.45132554  0.59690307  1
  V  V25  1  0.48318403  0.10616149  0.07493518  1
  V  V26  1  0.66564460  0.24540855  0.86239818  1
  V  V27  1  0.50371903  0.24352353  0.20600662  1
  V  V28  1  0.37186976  0.91184606  0.50380079  1
  V  V29  1  0.40454236  0.26842136  0.56468555  1
  V  V30  1  0.71943194  0.10727675  0.37661714  1
  V  V31  1  0.23094335  0.76440606  0.04508331  1
  V  V32  1  0.75280339  0.64722124  0.38031125  1
  V  V33  1  0.05089476  0.63616776  0.52093601  1
  V  V34  1  0.32252945  0.34236518  0.42784907  1
  V  V35  1  0.13481639  0.68921365  0.91387599  1
  V  V36  1  -0.01037471  0.78564256  0.25535063  1
  V  V37  1  0.91714735  0.57300265  0.76859035  1
  V  V38  1  0.49669244  0.72500568  0.26885678  1
  V  V39  1  0.65766792  0.11088112  -0.02663836  1
  V  V40  1  0.62513620  0.25493955  0.36908298  1
  V  V41  1  0.50553733  0.47217974  0.44478761  1
  V  V42  1  0.26839987  0.63920778  0.35148898  1
  V  V43  1  0.45818246  0.52896441  0.88811057  1
  V  V44  1  0.72484024  0.41314319  0.65071297  1
  V  V45  1  -0.00789988  0.02019376  -0.00481821  1
  V  V46  1  0.85701961  0.49831087  0.35327632  1
  V  V47  1  0.62529415  -0.00273577  0.09667436  1
  V  V48  1  0.86214881  0.21160111  0.06630347  1
  V  V49  1  0.29238704  0.42421961  0.62728638  1
  V  V50  1  -0.04874144  0.20828028  0.69925392  1
  Zn  Zn51  1  0.68640461  0.44137666  0.39400482  1
  Zn  Zn52  1  0.81927205  0.80244427  0.81297574  1
  Zn  Zn53  1  0.56367502  0.84893070  0.16595624  1
  Zn  Zn54  1  0.43814560  0.86072957  0.64254547  1
  Zn  Zn55  1  0.26167684  0.73320035  0.81627592  1
  Zn  Zn56  1  0.43459399  0.23099615  0.36348735  1
  Zn  Zn57  1  0.77800471  0.07076908  0.55444133  1
  Zn  Zn58  1  0.94882929  0.15412699  0.90703560  1
  Zn  Zn59  1  0.69488722  0.21399632  0.66346606  1
  Zn  Zn60  1  0.58925249  0.32373659  0.56106831  1
  Zn  Zn61  1  0.26824549  0.35770944  0.81415403  1
  Zn  Zn62  1  0.58659433  0.57895203  0.32146006  1
  Zn  Zn63  1  0.12991067  0.12212352  0.28666615  1
  Zn  Zn64  1  0.21270782  0.28245293  0.32631645  1
  Zn  Zn65  1  0.81538264  0.04288359  0.04561077  1
  Zn  Zn66  1  0.33536737  0.11271983  0.48343674  1
  Zn  Zn67  1  0.69243182  0.18409421  0.14717740  1
  Zn  Zn68  1  0.81496015  0.28550455  0.37435835  1
  Zn  Zn69  1  0.09674309  0.65918807  0.71400836  1
  Zn  Zn70  1  0.60465729  0.08933111  0.76996116  1
  Zn  Zn71  1  0.43206916  0.97732308  0.18573011  1
  Zn  Zn72  1  0.92282994  0.40911687  0.67225519  1
  Zn  Zn73  1  0.56510463  0.08555299  0.26221909  1
  Zn  Zn74  1  0.17214794  0.94503087  0.99213566  1
  Zn  Zn75  1  0.02561356  0.59286256  0.33604693  1
  Zn  Zn76  1  0.32149098  0.64088887  0.98397987  1
  Zn  Zn77  1  0.93164159  0.94590441  0.84713274  1
  Zn  Zn78  1  0.02758671  0.25591093  0.14577273  1
  Zn  Zn79  1  0.21808442  0.59391133  0.15051895  1
  Zn  Zn80  1  0.69412506  0.92373610  0.39906779  1
  Zn  Zn81  1  0.56319657  0.27890471  0.03631558  1
  Zn  Zn82  1  0.13291742  0.29623333  0.48771465  1
  Zn  Zn83  1  0.80447131  0.83566521  0.30690848  1
  Zn  Zn84  1  0.94516110  0.66696214  0.94344404  1
  Zn  Zn85  1  0.19911731  0.91010888  0.42402144  1
  Zn  Zn86  1  0.80041777  0.56856316  0.55842844  1
  Zn  Zn87  1  0.46623061  0.41041610  0.10434640  1
  Zn  Zn88  1  0.15637773  0.72578972  0.22094705  1
  Zn  Zn89  1  0.67630260  0.69570384  0.18962813  1
  Zn  Zn90  1  0.48792368  0.78512388  0.46781327  1
  Zn  Zn91  1  1.01978054  0.45088465  0.21831468  1
  Zn  Zn92  1  0.86537470  0.51888449  0.14638620  1
  Zn  Zn93  1  0.49792674  0.18509718  0.90696455  1
  Zn  Zn94  1  0.70949685  0.92506345  0.94030737  1
  Zn  Zn95  1  0.92153786  0.94350349  0.15993483  1
  Zn  Zn96  1  0.39440153  0.62615532  0.52537255  1
  Zn  Zn97  1  0.70531935  0.66594493  0.72327861  1
  Zn  Zn98  1  0.05604576  0.81005002  0.07348087  1
  Zn  Zn99  1  0.32518192  0.13996382  0.28708278  1
  Zn  Zn100  1  0.25073475  0.52253114  0.48147274  1
  Zn  Zn101  1  0.60253917  0.42309773  0.95395370  1
  O  O102  1  0.24673873  0.16088791  0.11607872  1
  O  O103  1  0.11906646  0.05559932  0.59743091  1
  O  O104  1  0.10356648  0.63098705  0.15467770  1
  O  O105  1  0.10202721  0.63007142  0.60480258  1
  O  O106  1  0.63675245  0.10780397  0.08006241  1
  O  O107  1  0.64352851  0.11957549  0.67169673  1
  O  O108  1  0.64310620  0.60494268  0.13669675  1
  O  O109  1  0.60400017  0.66167128  0.68663155  1
  O  O110  1  0.41673598  0.48677872  0.31186390  1
  O  O111  1  0.42677183  0.43471166  0.88868928  1
  O  O112  1  0.42445626  0.90398701  0.39640502  1
  O  O113  1  0.44111704  0.93901311  0.73340841  1
  O  O114  1  0.83442927  0.40376928  0.38222233  1
  O  O115  1  0.84970948  0.43290149  1.00768615  1
  O  O116  1  0.80930610  0.91755556  0.37991458  1
  O  O117  1  0.86501003  0.86747836  0.89482291  1
  O  O118  1  0.24046579  -0.01865989  0.33580490  1
  O  O119  1  0.33792301  0.15202627  0.77625779  1
  O  O120  1  0.22818907  0.53722123  0.36674043  1
  O  O121  1  0.12207567  0.40862603  0.90877496  1
  O  O122  1  0.70578655  0.01347472  0.32295446  1
  O  O123  1  0.74952601  -0.03767867  0.84385990  1
  O  O124  1  0.75705642  0.53172573  0.37478431  1
  O  O125  1  0.70780288  0.48127023  0.88804092  1
  O  O126  1  0.22705134  0.49764470  0.20060775  1
  O  O127  1  0.21265984  0.47262374  0.57504881  1
  O  O128  1  0.28185377  1.10971157  0.14777989  1
  O  O129  1  0.24010810  1.03399771  0.75151310  1
  O  O130  1  0.75237402  0.51713314  0.13219950  1
  O  O131  1  0.72704671  0.50830624  0.61933749  1
  O  O132  1  0.74543384  0.98930322  0.11439814  1
  O  O133  1  0.76990294  0.99936070  0.64494106  1
  O  O134  1  0.00114607  0.36179251  0.28065477  1
  O  O135  1  -0.03668539  0.31379353  0.71300699  1
  O  O136  1  -0.01923230  0.87828012  0.23739229  1
  O  O137  1  0.01033703  0.87866316  0.81329199  1
  O  O138  1  0.49064408  0.33652467  0.18406890  1
  O  O139  1  0.50327522  0.32335190  0.76308688  1
  O  O140  1  0.50166877  0.90528110  0.24298811  1
  O  O141  1  0.51187089  0.95092227  0.75928104  1
  O  O142  1  0.47999515  0.07820161  0.18036607  1
  O  O143  1  0.47084428  0.10588452  0.67860073  1
  O  O144  1  0.50388580  0.62840247  0.27429464  1
  O  O145  1  0.50263043  0.78361387  0.68245746  1
  O  O146  1  0.96114356  0.22740462  0.39631294  1
  O  O147  1  0.92921024  0.12132882  0.66053654  1
  O  O148  1  0.97355877  0.65297607  0.25540954  1
  O  O149  1  1.00532916  0.60103704  0.73954757  1
  O  O150  1  0.43101099  0.26459977  -0.06406744  1
  O  O151  1  0.41116504  0.29457190  0.46359198  1
  O  O152  1  0.34545744  0.75923384  0.04878067  1
  O  O153  1  0.38438554  0.73736557  0.50259488  1
  O  O154  1  0.88980223  0.21965829  -0.03046835  1
  O  O155  1  0.83972276  0.29969663  0.48375127  1
  O  O156  1  0.86837036  0.74241898  -0.01640132  1
  O  O157  1  0.85175190  0.80133207  0.52020471  1
  O  O158  1  0.12189775  0.19068920  0.53086903  1
  O  O159  1  0.11418604  0.23506338  1.07176568  1
  O  O160  1  0.04017951  0.74062479  0.51027978  1
  O  O161  1  0.12955869  0.74862487  1.00895340  1
  O  O162  1  0.60175748  0.25962219  0.46248400  1
  O  O163  1  0.62227911  0.21657447  0.96330678  1
  O  O164  1  0.72029142  0.75499864  0.59402160  1
  O  O165  1  0.55566389  0.87120745  0.91021116  1
  O  O166  1  0.49673581  0.21012790  0.09796392  1
  O  O167  1  0.55513718  0.12315711  0.54053328  1
  O  O168  1  0.49390186  0.81131312  0.08292959  1
  O  O169  1  0.54699690  0.72021802  0.54339204  1
  O  O170  1  0.92391240  0.26397995  0.12430310  1
  O  O171  1  0.95433402  0.24717415  0.60702148  1
  O  O172  1  1.00645155  0.74902727  0.15815669  1
  O  O173  1  1.06130996  0.76518302  0.72305166  1
  O  O174  1  0.10027409  0.28273748  0.38243316  1
  O  O175  1  -0.03862153  0.19336268  0.80644731  1
  O  O176  1  -0.02798554  0.78415842  0.37132451  1
  O  O177  1  0.03455853  0.72553831  0.88797153  1
  O  O178  1  0.53046395  0.26224177  0.32247754  1
  O  O179  1  0.54505557  0.17451779  0.81036986  1
  O  O180  1  0.49483414  0.76020386  0.35979739  1
  O  O181  1  0.41417034  0.82990839  0.88736606  1
  O  O182  1  0.22638114  0.11424793  0.50526238  1
  O  O183  1  0.21725739  0.29992788  1.03332262  1
  O  O184  1  0.28973327  0.62580640  0.47243400  1
  O  O185  1  0.24934513  0.64802336  1.06446351  1
  O  O186  1  0.70417912  0.07685512  0.46869641  1
  O  O187  1  0.75360637  0.11285548  0.97898585  1
  O  O188  1  0.77107531  0.65116793  0.48489123  1
  O  O189  1  0.71879773  0.54997645  0.89195666  1
  O  O190  1  0.30336732  0.35207847  -0.08662122  1
  O  O191  1  0.31711325  0.43545159  0.45395052  1
  O  O192  1  0.23413476  0.85640489  0.01003473  1
  O  O193  1  0.29018793  0.85647466  0.46176897  1
  O  O194  1  0.65022318  0.34937448  0.03164156  1
  O  O195  1  0.72229426  0.40746648  0.49561895  1
  O  O196  1  0.76484264  0.86697531  0.00968194  1
  O  O197  1  0.70991688  0.84956355  0.48266547  1
  O  O198  1  0.08776147  0.51274443  0.28307130  1
  O  O199  1  0.10870736  0.45812627  0.68966565  1
  O  O200  1  0.11684754  1.03200335  0.22890950  1
  O  O201  1  0.20425495  0.88305596  0.84329935  1
  O  O202  1  0.63563269  0.51968713  0.23776681  1
  O  O203  1  0.57387900  0.45563390  0.78267116  1
  O  O204  1  0.63009858  1.01394566  0.19713370  1
  O  O205  1  0.66799458  0.98860389  0.73972647  1
  O  O206  1  0.33988545  0.02038960  0.26096884  1
  O  O207  1  0.28262152  0.01804170  0.69747345  1
  O  O208  1  0.38249760  0.45897481  0.25619898  1
  O  O209  1  0.44547402  0.57552903  0.79583030  1
  O  O210  1  0.84722103  -0.00430832  0.22865029  1
  O  O211  1  0.87311618  -0.02612426  0.75192796  1
  O  O212  1  0.86735250  0.48569956  0.25779257  1
  O  O213  1  0.91529395  0.47573292  0.75907017  1
  O  O214  1  0.23886618  0.29505597  0.45155685  1
  O  O215  1  0.19605665  0.26744600  0.80990676  1
  O  O216  1  0.11722369  0.83982137  0.42094081  1
  O  O217  1  0.21682316  0.94967733  0.87438586  1
  O  O218  1  0.66373087  0.34338599  0.34680838  1
  O  O219  1  0.62116720  0.34202142  0.87228099  1
  O  O220  1  0.58827142  0.90202070  0.38509258  1
  O  O221  1  0.62296228  0.85235706  0.89480234  1
  O  O222  1  0.39436854  0.09452070  0.05173497  1
  O  O223  1  0.37538266  0.17662253  0.56446114  1
  O  O224  1  0.39834739  0.52084295  0.11641262  1
  O  O225  1  0.43694051  0.64319078  0.63717495  1
  O  O226  1  0.87511342  0.11960391  0.09517547  1
  O  O227  1  0.77082283  0.16384531  0.60206749  1
  O  O228  1  0.86558292  0.63302115  0.15787034  1
  O  O229  1  0.85561068  0.60185100  0.67266933  1
  O  O230  1  0.17104253  0.28768886  0.08730382  1
  O  O231  1  0.32804578  0.33005358  0.59660020  1
  O  O232  1  0.21156670  0.77492539  0.14063085  1
  O  O233  1  0.22894370  0.74609995  0.55726824  1
  O  O234  1  0.76731527  0.23765157  0.08963069  1
  O  O235  1  0.69434144  0.30814631  0.60705144  1
  O  O236  1  0.73116015  0.76658786  0.12538924  1
  O  O237  1  0.76681473  0.71235349  0.63640692  1
  O  O238  1  0.32951705  0.32310872  0.33243922  1
  O  O239  1  0.20367394  0.22128849  0.87430971  1
  O  O240  1  0.24096199  0.73207935  0.38753848  1
  O  O241  1  0.24449338  0.71010144  0.92981099  1
  O  O242  1  0.73216514  0.21373229  0.37524945  1
  O  O243  1  0.75427142  0.25291129  0.88299886  1
  O  O244  1  0.77538220  0.75133414  0.38426175  1
  O  O245  1  0.71254832  0.72589950  0.94731676  1
  O  O246  1  0.01665942  0.11392794  -0.00759264  1
  O  O247  1  0.02630612  0.09158239  0.49552846  1
  O  O248  1  -0.01226731  0.64372914  0.04622133  1
  O  O249  1  -0.03967038  0.61011969  0.53221900  1
  O  O250  1  0.52638188  0.10589780  -0.02134478  1
  O  O251  1  0.53178050  0.06762021  0.50643981  1
  O  O252  1  0.42290254  0.58387401  0.13604420  1
  O  O253  1  0.56008807  0.53807685  0.60200011  1
  O  O254  1  0.53076019  0.40727438  0.51052637  1
  O  O255  1  0.51343179  0.37542566  1.00622504  1
  O  O256  1  0.46799790  0.87710512  0.53038658  1
  O  O257  1  0.39228123  0.89428419  0.90213014  1
  O  O258  1  0.98800746  0.39055789  0.46048080  1
  O  O259  1  1.01742597  0.35528916  1.01026500  1
  O  O260  1  0.97596268  0.90334131  0.55662974  1
  O  O261  1  0.97179537  0.84516401  1.01357722  1
  O  O262  1  0.45269976  0.42587424  0.36543016  1
  O  O263  1  0.54847568  0.52112085  0.92220410  1
  O  O264  1  0.50398866  1.02888064  0.33999908  1
  O  O265  1  0.52034349  1.01416222  0.80184283  1
  O  O266  1  0.95463660  0.51904293  0.38732237  1
  O  O267  1  0.84383924  0.50009345  0.98074844  1
  O  O268  1  0.95186139  0.99069086  0.37726718  1
  O  O269  1  1.06580988  0.96213912  0.96486599  1
  O  O270  1  0.00348284  0.00480266  0.10960489  1
  O  O271  1  0.14376899  -0.08696769  0.69672421  1
  O  O272  1  -0.01943697  0.53290310  0.15388650  1
  O  O273  1  -0.00941210  0.45626013  0.59581318  1
  O  O274  1  0.52893356  -0.00444418  0.07829662  1
  O  O275  1  0.43510846  0.05519505  0.64779159  1
  O  O276  1  0.55300762  0.47962096  0.12947736  1
  O  O277  1  0.52799440  0.50076242  0.65109674  1
  O  O278  1  0.18743588  0.39014065  0.30613461  1
  O  O279  1  0.26864981  0.40873783  0.72220518  1
  O  O280  1  0.30216295  0.96122728  0.29452854  1
  O  O281  1  0.26395381  0.85230157  0.80507154  1
  O  O282  1  0.78333642  0.30390835  0.24581241  1
  O  O283  1  0.74458016  0.41061654  0.74169280  1
  O  O284  1  0.74340626  0.88570035  0.22291181  1
  O  O285  1  0.77838157  0.87994333  0.73579806  1
  O  O286  1  0.22241519  0.18162495  0.28694720  1
  O  O287  1  0.32907655  0.20016947  0.72596519  1
  O  O288  1  0.22273994  0.64592249  0.25954692  1
  O  O289  1  0.30381248  0.58665282  0.71905979  1
  O  O290  1  0.74758193  0.11107630  0.21563967  1
  O  O291  1  0.78502088  0.07687715  0.77066233  1
  O  O292  1  0.75726722  0.67004712  0.26228658  1
  O  O293  1  0.80594439  0.60064304  0.73620632  1
  O  O294  1  0.36620974  0.15173889  0.38811935  1
  O  O295  1  0.37995103  0.03651274  0.86410699  1
  O  O296  1  0.35802086  0.63832878  0.32914808  1
  O  O297  1  0.40485845  0.58214514  0.95278330  1
  O  O298  1  0.82239176  0.09187363  0.36739034  1
  O  O299  1  0.94981425  0.04240032  0.88972578  1
  O  O300  1  0.85765326  0.61739035  0.34234366  1
  O  O301  1  0.91017595  0.59919621  0.86490573  1
  O  O302  1  0.05042904  0.37523808  0.13560789  1
  O  O303  1  0.11226449  0.35640440  0.57408376  1
  O  O304  1  0.10599058  0.88758139  0.13913467  1
  O  O305  1  0.19060351  0.89405450  0.64785770  1
  O  O306  1  0.68099050  0.40933903  0.16037022  1
  O  O307  1  0.61808424  0.38790324  0.66077581  1
  O  O308  1  0.64260642  0.89243982  0.10028807  1
  O  O309  1  0.62094913  0.89095125  0.60585508  1
  O  O310  1  0.05732504  0.21389683  0.24910602  1
  O  O311  1  0.04872695  0.18027269  0.70884936  1
  O  O312  1  0.08460951  0.76356066  0.29272501  1
  O  O313  1  0.16182043  0.68424049  0.81001665  1
  O  O314  1  0.60070376  0.21058802  0.20446375  1
  O  O315  1  0.65967593  0.26214228  0.75886469  1
  O  O316  1  0.58405420  0.75189672  0.22176884  1
  O  O317  1  0.73148253  0.73232839  0.81156550  1
  O  O318  1  0.41865641  0.20313475  0.24334793  1
  O  O319  1  0.49266575  0.27331652  0.60152976  1
  O  O320  1  0.41774510  0.75202996  0.20778688  1
  O  O321  1  0.36038312  0.71524321  0.77310961  1
  O  O322  1  0.91489409  0.24112538  0.33221149  1
  O  O323  1  0.85539116  0.21656242  0.72818303  1
  O  O324  1  0.87877006  0.76846088  0.25442097  1
  O  O325  1  0.91270692  0.75542677  0.78004653  1
  O  O326  1  0.45745767  0.54967670  0.47970128  1
  O  O327  1  0.15342993  0.44756351  0.95707410  1
  O  O328  1  0.35743099  1.00657878  0.49416487  1
  O  O329  1  0.32109468  1.05489420  0.89755272  1
  O  O330  1  0.86764631  0.48744008  0.50416549  1
  O  O331  1  0.87794113  0.42480536  1.07904710  1
  O  O332  1  0.85587578  1.01581695  0.50327110  1
  O  O333  1  0.89616800  0.97836871  1.00819671  1
  O  O334  1  0.16538299  0.01820134  0.07597944  1
  O  O335  1  0.15085030  -0.00211016  0.47648257  1
  O  O336  1  0.04158160  0.40308443  0.05676998  1
  O  O337  1  0.07590688  0.51881474  0.49946539  1
  O  O338  1  0.64838647  0.00544825  -0.01810975  1
  O  O339  1  0.59781179  -0.04476256  0.59037466  1
  O  O340  1  0.65080243  0.49739306  0.03579713  1
  O  O341  1  0.59061256  0.50003200  0.39709084  1
  O  O342  1  0.37554097  0.38043346  0.04559579  1
  O  O343  1  0.36491162  0.48072728  0.61966829  1
  O  O344  1  0.37461573  0.89572499  0.13778866  1
  O  O345  1  0.34326862  0.89826602  0.60011377  1
  O  O346  1  0.82368805  0.34244310  0.20302824  1
  O  O347  1  0.82690830  0.38762233  0.61218434  1
  O  O348  1  0.85635355  0.86331113  0.11180501  1
  O  O349  1  1.00472419  0.88861851  0.61894957  1
  O  O350  1  0.12319339  0.10691967  0.39984473  1
  O  O351  1  0.17392118  0.15649778  0.86928919  1
  O  O352  1  0.08099275  0.65301871  0.41106312  1
  O  O353  1  0.12006112  0.60303093  0.94072547  1
  O  O354  1  0.62408930  0.14139743  0.34243916  1
  O  O355  1  0.65831113  0.12712603  0.86392347  1
  O  O356  1  0.65716248  0.64743314  0.37078853  1
  O  O357  1  0.68577705  0.70370728  0.88612975  1
