# generated using pymatgen
data_V51Zn51O256
_symmetry_space_group_name_H-M   'P 1'
_cell_length_a   17.81172586
_cell_length_b   17.75516765
_cell_length_c   18.28373627
_cell_angle_alpha   90.08923693
_cell_angle_beta   90.44441253
_cell_angle_gamma   91.29739319
_symmetry_Int_Tables_number   1
_chemical_formula_structural   V51Zn51O256
_chemical_formula_sum   'V51 Zn51 O256'
_cell_volume   5780.56995707
_cell_formula_units_Z   1
loop_
 _symmetry_equiv_pos_site_id
 _symmetry_equiv_pos_as_xyz
  1  'x, y, z'
loop_
 _atom_site_type_symbol
 _atom_site_label
 _atom_site_symmetry_multiplicity
 _atom_site_fract_x
 _atom_site_fract_y
 _atom_site_fract_z
 _atom_site_occupancy
  V  V0  1  0.85274124  0.35980436  -0.04578121  1
  V  V1  1  0.89399769  0.25366063  0.63137643  1
  V  V2  1  0.03702848  0.47948542  0.68922453  1
  V  V3  1  0.86828028  0.64814445  0.73627611  1
  V  V4  1  0.24179788  0.67910263  0.83409660  1
  V  V5  1  0.72790202  0.24342997  -0.00386921  1
  V  V6  1  0.49685689  0.48902227  -0.02966942  1
  V  V7  1  0.63522153  0.12416113  0.50043874  1
  V  V8  1  0.25901783  0.38731282  0.64717003  1
  V  V9  1  0.70977608  -0.00271690  0.76128124  1
  V  V10  1  0.62501668  0.58481017  -0.05535249  1
  V  V11  1  0.73651187  0.51531393  0.75300748  1
  V  V12  1  0.15338514  0.25157079  0.88843809  1
  V  V13  1  0.26613407  0.48530474  0.19425145  1
  V  V14  1  0.84935725  0.52647213  0.88053381  1
  V  V15  1  0.86610613  0.70695829  0.10864868  1
  V  V16  1  0.86568554  0.87888015  0.01314250  1
  V  V17  1  0.47950765  0.65945049  0.67300610  1
  V  V18  1  0.60438120  0.12808049  0.01977575  1
  V  V19  1  0.15929319  0.76472118  0.39512997  1
  V  V20  1  0.76252827  0.35984419  0.14365278  1
  V  V21  1  0.13848013  0.04689383  0.60520500  1
  V  V22  1  0.53078336  -0.04159265  0.01201604  1
  V  V23  1  0.44585609  0.79429429  0.80002276  1
  V  V24  1  0.67602495  0.21782368  0.35436255  1
  V  V25  1  0.35870436  0.48181501  0.85842445  1
  V  V26  1  0.49802949  0.35630146  0.85863917  1
  V  V27  1  0.63368777  0.86183607  0.79782528  1
  V  V28  1  0.91348535  0.12962746  0.73554899  1
  V  V29  1  0.67773628  0.14495304  0.85798130  1
  V  V30  1  -0.00970345  0.85564753  0.86165993  1
  V  V31  1  -0.06439268  0.80637036  0.30611157  1
  V  V32  1  0.27145665  0.33781245  0.10563146  1
  V  V33  1  0.09928246  0.81439946  0.70711629  1
  V  V34  1  0.59520256  0.44880196  0.58748171  1
  V  V35  1  0.48148731  0.87814369  0.37949081  1
  V  V36  1  0.74646796  0.34756165  0.66950889  1
  V  V37  1  0.49928176  0.11480098  0.59909724  1
  V  V38  1  0.88383211  0.23572408  0.08910412  1
  V  V39  1  0.63485326  0.75903389  0.41633960  1
  V  V40  1  0.77186473  0.60843815  0.40352999  1
  V  V41  1  0.85711031  0.09546563  0.16505925  1
  V  V42  1  0.34027712  0.00548163  0.39835016  1
  V  V43  1  0.00296470  0.54497165  -0.02521505  1
  V  V44  1  0.11634747  0.63201999  0.50120319  1
  V  V45  1  0.35692534  0.87807544  0.51766192  1
  V  V46  1  0.24290715  0.03782623  0.73607363  1
  V  V47  1  0.90849914  0.01631027  0.84911468  1
  V  V48  1  0.39109644  0.13931755  0.74612182  1
  V  V49  1  0.40393468  0.09732687  0.27725675  1
  V  V50  1  0.14173178  0.85559127  0.23361458  1
  Zn  Zn51  1  0.64350874  0.57873384  0.47685709  1
  Zn  Zn52  1  0.42283702  0.64473138  0.92662765  1
  Zn  Zn53  1  0.38979432  0.93606857  0.70531279  1
  Zn  Zn54  1  0.79967707  0.08157032  0.59978088  1
  Zn  Zn55  1  0.80858416  0.26861358  0.81175467  1
  Zn  Zn56  1  0.42560246  0.15951882  0.46487960  1
  Zn  Zn57  1  0.33954224  0.04746823  0.59023988  1
  Zn  Zn58  1  0.70412418  0.16404958  0.16351657  1
  Zn  Zn59  1  0.04797533  0.67699187  0.82940814  1
  Zn  Zn60  1  0.42726925  0.42082401  0.69179886  1
  Zn  Zn61  1  0.55410360  0.53127788  0.78907920  1
  Zn  Zn62  1  0.18138534  0.80952097  0.55220469  1
  Zn  Zn63  1  0.75665434  0.86407441  0.37304740  1
  Zn  Zn64  1  0.31314129  0.55989557  0.70022760  1
  Zn  Zn65  1  0.88959189  0.44981662  0.70205976  1
  Zn  Zn66  1  0.97031068  0.67131652  0.41370354  1
  Zn  Zn67  1  0.26072550  0.87136877  0.80279400  1
  Zn  Zn68  1  0.77295215  0.22893983  0.49204339  1
  Zn  Zn69  1  0.91228089  0.43202285  0.08969600  1
  Zn  Zn70  1  0.79212455  0.04960321  0.00352053  1
  Zn  Zn71  1  0.08696594  0.31887367  0.62736890  1
  Zn  Zn72  1  0.52736713  0.96981298  0.50032460  1
  Zn  Zn73  1  0.93765435  0.59995837  0.57342923  1
  Zn  Zn74  1  0.17068453  0.53808029  0.89321100  1
  Zn  Zn75  1  0.07164812  0.08988517  0.81012660  1
  Zn  Zn76  1  0.25298926  0.37662779  0.45192061  1
  Zn  Zn77  1  0.65756919  0.66994916  0.76453091  1
  Zn  Zn78  1  0.27408762  0.14729955  0.16506481  1
  Zn  Zn79  1  0.14690411  0.62824722  0.69947198  1
  Zn  Zn80  1  0.06354563  0.71625253  0.14304737  1
  Zn  Zn81  1  0.06650926  0.67639146  0.28961708  1
  Zn  Zn82  1  0.66584904  0.18852201  0.67004668  1
  Zn  Zn83  1  0.77671689  0.53538779  0.04710236  1
  Zn  Zn84  1  -0.01467396  -0.05081283  0.20151633  1
  Zn  Zn85  1  0.98747681  0.95401542  0.70006294  1
  Zn  Zn86  1  0.47615009  0.75496174  0.50911726  1
  Zn  Zn87  1  0.48012233  0.16507782  0.90829531  1
  Zn  Zn88  1  0.90222463  0.70936410  0.93950870  1
  Zn  Zn89  1  0.82760082  0.83401479  0.79912370  1
  Zn  Zn90  1  0.18534467  0.94975906  0.46190025  1
  Zn  Zn91  1  0.16973384  0.49379822  0.56288690  1
  Zn  Zn92  1  0.68505808  0.89342673  -0.01218733  1
  Zn  Zn93  1  0.67714310  0.40888473  0.90249966  1
  Zn  Zn94  1  0.44132808  0.09562025  0.09441756  1
  Zn  Zn95  1  0.31646639  0.83784879  0.31516304  1
  Zn  Zn96  1  0.32981149  0.31082882  0.80269749  1
  Zn  Zn97  1  0.81181080  0.24934906  0.27599159  1
  Zn  Zn98  1  0.77023608  0.73403791  0.27223674  1
  Zn  Zn99  1  0.19767090  0.20485278  0.69815978  1
  Zn  Zn100  1  0.57193387  0.05121478  0.34019614  1
  Zn  Zn101  1  0.59945812  0.31964968  0.45508105  1
  O  O102  1  0.23720692  0.02155737  0.16319574  1
  O  O103  1  0.13814856  0.14045337  0.62824776  1
  O  O104  1  0.09895098  0.63863782  0.20301175  1
  O  O105  1  0.13198274  0.61420155  0.59468481  1
  O  O106  1  0.61467232  0.13205645  0.11194542  1
  O  O107  1  0.60730756  0.13030832  0.60324073  1
  O  O108  1  0.56681493  0.70439834  0.10241266  1
  O  O109  1  0.62556143  0.54019884  0.56973028  1
  O  O110  1  0.27732615  0.35377310  0.36180771  1
  O  O111  1  0.36477357  0.38710629  0.87432784  1
  O  O112  1  0.35404942  0.90299840  0.40543541  1
  O  O113  1  0.46208622  0.91637620  0.94171581  1
  O  O114  1  0.93660325  0.30666701  0.31587238  1
  O  O115  1  0.86642184  0.34775389  0.86345928  1
  O  O116  1  0.80835762  0.89768119  0.46948204  1
  O  O117  1  0.90814617  0.91230356  0.81850534  1
  O  O118  1  0.24625957  0.01132896  0.39324127  1
  O  O119  1  0.27616624  -0.02264808  0.80127341  1
  O  O120  1  0.21845262  0.50257835  0.26957369  1
  O  O121  1  0.26395963  0.49833931  0.86949282  1
  O  O122  1  0.72004817  0.01498145  0.32280894  1
  O  O123  1  0.71331884  0.04999056  0.84552195  1
  O  O124  1  0.72475197  0.52543402  0.41476607  1
  O  O125  1  0.74863693  0.48046777  0.84585438  1
  O  O126  1  0.31315584  0.43620662  0.10719560  1
  O  O127  1  0.24341729  0.49073247  0.64804612  1
  O  O128  1  0.27696247  0.97321629  0.13476450  1
  O  O129  1  0.23368912  1.01464053  0.63544284  1
  O  O130  1  0.80327312  0.45126284  0.11225455  1
  O  O131  1  0.77844173  0.45899132  0.68398170  1
  O  O132  1  0.77630176  0.93727745  0.02517707  1
  O  O133  1  0.74383109  1.04781836  0.68922509  1
  O  O134  1  -0.00329765  0.30780553  0.28215726  1
  O  O135  1  -0.01040338  0.41744251  0.74322758  1
  O  O136  1  -0.04691927  0.84752949  0.22273768  1
  O  O137  1  0.01709653  0.85846755  0.74520710  1
  O  O138  1  0.56549718  0.40814592  0.23983834  1
  O  O139  1  0.46638314  0.35735424  0.76775111  1
  O  O140  1  0.42542927  0.83118692  0.31422147  1
  O  O141  1  0.53292357  0.83987646  0.78628225  1
  O  O142  1  0.49856678  0.10068740  0.27633492  1
  O  O143  1  0.48059416  0.13569847  0.69282640  1
  O  O144  1  0.58904696  0.56115276  0.17409015  1
  O  O145  1  0.55439586  0.62559231  0.72895235  1
  O  O146  1  0.99866916  0.14652627  0.32186946  1
  O  O147  1  1.00575514  0.14960808  0.74805468  1
  O  O148  1  0.96294321  0.70658301  0.31537740  1
  O  O149  1  0.95817728  0.64466362  0.76949529  1
  O  O150  1  0.34473040  0.15050667  0.03066910  1
  O  O151  1  0.17203466  0.18343085  0.41465782  1
  O  O152  1  0.40506206  0.68561302  0.04308934  1
  O  O153  1  0.36849427  0.78269111  0.50524154  1
  O  O154  1  0.84587446  0.25748354  -0.00610338  1
  O  O155  1  0.86543599  0.25381383  0.54105587  1
  O  O156  1  0.86487094  0.77324378  0.03063183  1
  O  O157  1  0.90579465  0.77492971  0.48132980  1
  O  O158  1  0.03064992  0.28979687  0.44577498  1
  O  O159  1  0.18347728  0.22724067  0.97570861  1
  O  O160  1  0.17835779  0.71544140  0.49337715  1
  O  O161  1  0.18622213  0.69033031  1.06755360  1
  O  O162  1  0.66191229  0.23470236  0.47967889  1
  O  O163  1  0.63261511  0.23845489  1.00526006  1
  O  O164  1  0.66501784  0.82002395  0.47801336  1
  O  O165  1  0.63276694  0.72432000  1.10954998  1
  O  O166  1  0.42286408  0.28039631  0.16991873  1
  O  O167  1  0.52150693  0.27500055  0.63383290  1
  O  O168  1  0.44057040  0.65153266  0.18914382  1
  O  O169  1  0.43218916  0.72889457  0.72850454  1
  O  O170  1  0.97265747  0.22535881  0.07901712  1
  O  O171  1  0.98803108  0.27457351  0.63059175  1
  O  O172  1  0.95800766  0.70635267  0.13506354  1
  O  O173  1  0.88227273  0.77018340  0.54465843  1
  O  O174  1  0.07941058  0.32247475  0.40944212  1
  O  O175  1  0.05957365  0.26555631  0.90937801  1
  O  O176  1  -0.02112925  0.85600157  0.37008341  1
  O  O177  1  -0.01683077  0.75680328  0.87006050  1
  O  O178  1  0.41467905  0.26883174  0.42274500  1
  O  O179  1  0.46733274  0.26788735  0.88634172  1
  O  O180  1  0.55086417  0.71467691  0.44384178  1
  O  O181  1  0.44208356  0.74472766  0.87866614  1
  O  O182  1  0.14300481  0.17961089  0.35370596  1
  O  O183  1  0.28032946  0.12634637  1.05231905  1
  O  O184  1  0.30464352  0.71005928  0.61297698  1
  O  O185  1  0.19124995  0.63759677  1.02410328  1
  O  O186  1  0.73551132  0.12249430  0.52325467  1
  O  O187  1  0.71711010  0.13067810  0.99159001  1
  O  O188  1  0.84509121  0.61781154  0.48531795  1
  O  O189  1  0.69455307  0.59905739  1.00907599  1
  O  O190  1  0.31257964  0.32156202  0.02432433  1
  O  O191  1  0.35502910  0.53100528  0.40600416  1
  O  O192  1  0.35951912  0.84368043  0.09122925  1
  O  O193  1  0.25719731  0.88576500  0.52608883  1
  O  O194  1  0.73856182  0.34347665  -0.03114053  1
  O  O195  1  0.82418480  0.40175143  0.46561836  1
  O  O196  1  0.78921398  0.84072424  -0.06568037  1
  O  O197  1  0.78992192  0.96443223  0.49595513  1
  O  O198  1  0.18800798  0.50111616  0.14087318  1
  O  O199  1  0.09063212  0.54329020  0.74072066  1
  O  O200  1  0.09107584  0.93787931  0.22985793  1
  O  O201  1  0.14987841  1.04435393  0.75647586  1
  O  O202  1  0.55955684  0.45017970  0.29258706  1
  O  O203  1  0.64398696  0.49680057  0.73910351  1
  O  O204  1  0.65236570  0.98009365  0.30836541  1
  O  O205  1  0.61971703  0.95710834  0.74818666  1
  O  O206  1  0.36545063  0.00697267  0.29385107  1
  O  O207  1  0.36337509  0.04008322  0.69716703  1
  O  O208  1  0.34412695  0.46205729  0.24409554  1
  O  O209  1  0.37611740  0.49870385  0.76306161  1
  O  O210  1  0.92487343  0.03571427  0.19636292  1
  O  O211  1  0.91351385  0.02398088  0.73080671  1
  O  O212  1  0.96169420  0.46988047  0.22633772  1
  O  O213  1  0.85817334  0.53752597  0.77890639  1
  O  O214  1  0.01317361  0.45061868  0.38942537  1
  O  O215  1  0.15767413  0.34926535  0.89418525  1
  O  O216  1  0.14202379  0.84959027  0.44037251  1
  O  O217  1  0.07537127  0.88382235  0.88068713  1
  O  O218  1  0.61744534  0.29315850  0.35328728  1
  O  O219  1  0.59458927  0.35475878  0.85635694  1
  O  O220  1  0.56521716  0.83778703  0.36776936  1
  O  O221  1  0.64300783  0.87402933  0.88801744  1
  O  O222  1  0.37934014  0.11205092  0.18002463  1
  O  O223  1  0.40278647  0.14090793  0.56829364  1
  O  O224  1  0.33912024  0.67819713  0.06429924  1
  O  O225  1  0.40977528  0.59703365  0.65154336  1
  O  O226  1  0.85979370  0.11745714  0.07066645  1
  O  O227  1  0.88740281  0.14149983  0.63450036  1
  O  O228  1  0.84198545  0.62009179  0.07485831  1
  O  O229  1  0.87268735  0.64259978  0.64327131  1
  O  O230  1  0.23728756  0.24979362  0.12570142  1
  O  O231  1  0.19011854  0.29755281  0.64318760  1
  O  O232  1  0.29067753  0.82179839  0.08244018  1
  O  O233  1  0.26423364  0.76132382  0.63618825  1
  O  O234  1  0.75179488  0.25011602  0.09837586  1
  O  O235  1  0.74112784  0.25539361  0.63115985  1
  O  O236  1  0.80434694  0.73528600  0.17425572  1
  O  O237  1  0.77317633  0.84277120  0.62329822  1
  O  O238  1  0.21575215  0.39638444  0.53942797  1
  O  O239  1  0.25103334  0.25446196  0.86374132  1
  O  O240  1  0.24846301  0.76106827  0.36612967  1
  O  O241  1  0.24423051  0.77469036  0.84015843  1
  O  O242  1  0.77393073  0.23712580  0.37998128  1
  O  O243  1  0.74159443  0.21953995  0.88642562  1
  O  O244  1  0.69145743  0.77904643  0.33436435  1
  O  O245  1  0.81273825  0.77834079  0.89440268  1
  O  O246  1  0.14296616  0.03478416  0.04025555  1
  O  O247  1  -0.03766992  0.05567130  0.46105457  1
  O  O248  1  -0.00756742  0.64133269  -0.03378759  1
  O  O249  1  0.01121767  0.63474430  0.50498844  1
  O  O250  1  0.50256823  0.13874381  0.01357967  1
  O  O251  1  0.52827588  0.15087033  0.50143332  1
  O  O252  1  0.53164816  0.61176891  -0.04103863  1
  O  O253  1  0.51055661  0.70554638  0.59748432  1
  O  O254  1  0.46219496  0.31946434  0.44221665  1
  O  O255  1  0.48467008  0.39315117  0.96201891  1
  O  O256  1  0.47702480  0.87138245  0.48351729  1
  O  O257  1  0.58552546  0.88285771  1.03435238  1
  O  O258  1  0.94751139  0.42952210  0.38203275  1
  O  O259  1  0.93674498  0.37673421  0.99291643  1
  O  O260  1  0.96810955  0.90144671  0.52438665  1
  O  O261  1  0.94001819  0.87477866  0.94866386  1
  O  O262  1  0.54202153  0.54493103  0.41190198  1
  O  O263  1  0.49153353  0.47665102  0.85234415  1
  O  O264  1  0.49975528  0.97752852  0.38171710  1
  O  O265  1  0.49656555  0.98127777  0.91498391  1
  O  O266  1  1.02406535  0.48893758  0.25053978  1
  O  O267  1  0.94562286  0.50905840  0.89736023  1
  O  O268  1  0.93657324  1.01293888  0.41403466  1
  O  O269  1  1.00173758  1.03093430  0.86761033  1
  O  O270  1  0.16528858  -0.01759152  -0.00251895  1
  O  O271  1  0.06231849  -0.00461684  0.63620174  1
  O  O272  1  -0.02511867  0.51391617  0.05962988  1
  O  O273  1  -0.03907879  0.51422849  0.63501984  1
  O  O274  1  0.57572721  -0.17002620  0.20261251  1
  O  O275  1  0.49604973  0.01933952  0.59122641  1
  O  O276  1  0.49268605  0.50327855  0.05889157  1
  O  O277  1  0.51686706  0.45300412  0.64009606  1
  O  O278  1  0.23756071  0.37413218  0.19476399  1
  O  O279  1  0.26656348  0.37238219  0.74033364  1
  O  O280  1  0.23611762  0.87169929  0.25251179  1
  O  O281  1  0.17895227  0.86426683  0.72727580  1
  O  O282  1  0.77717911  0.34412688  0.23539130  1
  O  O283  1  0.73100133  0.32942339  0.75861701  1
  O  O284  1  0.77651081  0.96815602  0.32910251  1
  O  O285  1  0.74856778  0.90909666  0.77886891  1
  O  O286  1  0.28464887  0.19553296  0.26443873  1
  O  O287  1  0.27415351  0.13477341  0.74447544  1
  O  O288  1  0.30348596  0.56839181  0.17433156  1
  O  O289  1  0.25037747  0.63957721  0.74324884  1
  O  O290  1  0.76622439  0.07047035  0.18038055  1
  O  O291  1  0.65977960  0.16774958  0.77066454  1
  O  O292  1  0.77311981  0.63254397  0.31380295  1
  O  O293  1  0.74921910  0.61457056  0.73772020  1
  O  O294  1  0.38393763  0.10323823  0.38617920  1
  O  O295  1  0.41512169  0.11747871  0.83304255  1
  O  O296  1  0.51824259  0.58397830  0.36061111  1
  O  O297  1  0.31499146  0.64961058  0.88469921  1
  O  O298  1  0.93821510  0.16215656  0.34930534  1
  O  O299  1  0.87266484  0.10983300  0.82602181  1
  O  O300  1  0.87816032  0.59354213  0.41510381  1
  O  O301  1  0.83792254  0.61568602  0.90772154  1
  O  O302  1  0.19014874  0.36041686  0.06173869  1
  O  O303  1  0.09251365  0.42952666  0.62597973  1
  O  O304  1  0.12464842  0.80665449  0.15396592  1
  O  O305  1  0.09523156  0.80927646  0.61311357  1
  O  O306  1  0.67367142  0.37450790  0.13096135  1
  O  O307  1  0.66541978  0.38566430  0.62460130  1
  O  O308  1  0.53160523  0.77756644  0.21245704  1
  O  O309  1  0.70864381  0.86356230  0.61397112  1
  O  O310  1  0.15574007  0.13664308  0.18313867  1
  O  O311  1  0.14250673  0.24361943  0.78851416  1
  O  O312  1  0.11236721  0.78983897  0.30550620  1
  O  O313  1  0.10277845  0.72123795  0.74113383  1
  O  O314  1  0.69683722  0.19806499  0.26290713  1
  O  O315  1  0.56691876  0.27524671  0.68562392  1
  O  O316  1  0.59514833  0.59511768  0.23229266  1
  O  O317  1  0.66773087  0.77751961  0.76901367  1
  O  O318  1  0.35353872  0.19745019  0.29087081  1
  O  O319  1  0.37701831  0.23337781  0.74437572  1
  O  O320  1  0.43074161  0.65494439  0.25545379  1
  O  O321  1  0.37733669  0.86354725  0.78242322  1
  O  O322  1  0.86616902  0.19358798  0.19497140  1
  O  O323  1  0.87034779  0.22542116  0.73707582  1
  O  O324  1  0.83785811  0.80847058  0.32647096  1
  O  O325  1  0.84158425  0.73905230  0.75283323  1
  O  O326  1  0.33276152  0.59314782  0.38589205  1
  O  O327  1  0.40083794  0.53257118  0.94003539  1
  O  O328  1  0.36182322  1.00025522  0.49707512  1
  O  O329  1  0.47532763  0.99210832  1.08003279  1
  O  O330  1  0.86811289  0.42715818  0.51208333  1
  O  O331  1  0.82189951  0.46635026  0.96156830  1
  O  O332  1  0.83118802  0.98353232  0.55557630  1
  O  O333  1  0.86353822  1.00909891  0.93123015  1
  O  O334  1  0.22318081  -0.00529545  -0.04244953  1
  O  O335  1  0.14227664  0.03339769  0.51178997  1
  O  O336  1  0.09325772  0.51593584  -0.04169233  1
  O  O337  1  0.15101670  0.55009958  0.46849395  1
  O  O338  1  0.60766813  0.02807919  0.00115817  1
  O  O339  1  0.62003941  0.02837387  0.48795992  1
  O  O340  1  0.60875768  0.48569173  -0.05019908  1
  O  O341  1  0.57525586  0.40834595  0.50329623  1
  O  O342  1  0.35618301  0.30368470  0.14963148  1
  O  O343  1  0.35108391  0.37841554  0.62340152  1
  O  O344  1  0.39445152  0.82623755  0.15089300  1
  O  O345  1  0.38710457  0.89689245  0.60650978  1
  O  O346  1  0.87789088  0.32919849  0.12511386  1
  O  O347  1  0.85254941  0.34741563  0.65660559  1
  O  O348  1  0.91008739  0.91336087  0.08550424  1
  O  O349  1  0.94124884  0.88615628  0.58442332  1
  O  O350  1  0.11221012  0.18883793  0.19809804  1
  O  O351  1  0.13254077  0.15139208  0.87744081  1
  O  O352  1  0.09494509  0.67747889  0.39527233  1
  O  O353  1  0.15119176  0.64378335  0.86608779  1
  O  O354  1  0.63198505  0.13157423  0.38880852  1
  O  O355  1  0.59150495  0.14228851  0.90026525  1
  O  O356  1  0.69636467  0.67060946  0.43998432  1
  O  O357  1  0.64333253  0.60948945  0.85508418  1
