# generated using pymatgen
data_V51Zn51O256
_symmetry_space_group_name_H-M   'P 1'
_cell_length_a   17.78455640
_cell_length_b   17.32118333
_cell_length_c   17.67927454
_cell_angle_alpha   89.18982383
_cell_angle_beta   88.79279744
_cell_angle_gamma   90.68520793
_symmetry_Int_Tables_number   1
_chemical_formula_structural   V51Zn51O256
_chemical_formula_sum   'V51 Zn51 O256'
_cell_volume   5443.93041985
_cell_formula_units_Z   1
loop_
 _symmetry_equiv_pos_site_id
 _symmetry_equiv_pos_as_xyz
  1  'x, y, z'
loop_
 _atom_site_type_symbol
 _atom_site_label
 _atom_site_symmetry_multiplicity
 _atom_site_fract_x
 _atom_site_fract_y
 _atom_site_fract_z
 _atom_site_occupancy
  V  V0  1  0.87427326  0.24854822  0.63106779  1
  V  V1  1  0.13439129  0.86651758  0.23004047  1
  V  V2  1  0.23360813  0.30320687  0.13953361  1
  V  V3  1  0.63549340  0.14759047  0.10932745  1
  V  V4  1  0.21786487  0.16397133  0.84662557  1
  V  V5  1  0.50103267  0.24101467  0.70263084  1
  V  V6  1  0.10530449  0.38104342  0.25751545  1
  V  V7  1  0.85481797  0.53673892  0.41224158  1
  V  V8  1  0.26297671  0.62207101  0.83399264  1
  V  V9  1  0.60628258  0.35208956  0.77133754  1
  V  V10  1  0.67824651  0.65166919  0.83919838  1
  V  V11  1  0.82326276  0.80955869  0.61324881  1
  V  V12  1  0.04738379  0.11034786  0.61600866  1
  V  V13  1  0.22972825  0.51431744  0.20265856  1
  V  V14  1  -0.00052311  0.88779056  0.40477569  1
  V  V15  1  0.84909338  0.58521535  0.77007953  1
  V  V16  1  0.87531999  0.39782485  0.52773829  1
  V  V17  1  0.40226558  0.08893014  0.11487033  1
  V  V18  1  0.47035690  0.63775225  0.65491772  1
  V  V19  1  0.82408706  0.05742944  0.78159105  1
  V  V20  1  0.35756140  0.45016803  0.86280816  1
  V  V21  1  0.05344110  0.75002354  0.73464983  1
  V  V22  1  0.38085069  0.12899255  0.74481944  1
  V  V23  1  0.74673209  0.25861161  0.50751684  1
  V  V24  1  0.72042321  0.38523182  0.63819832  1
  V  V25  1  -0.01198673  0.41295272  0.38728952  1
  V  V26  1  0.73827166  0.52036993  0.21794284  1
  V  V27  1  0.14586135  0.64064503  0.48624310  1
  V  V28  1  0.91203699  0.60782416  0.23803995  1
  V  V29  1  0.11116668  0.27078272  0.40167307  1
  V  V30  1  0.77361556  0.86630090  0.08981514  1
  V  V31  1  0.50067967  0.51787404  0.47939207  1
  V  V32  1  0.47655062  0.42913402  0.03273329  1
  V  V33  1  0.78686121  0.72769872  -0.01098771  1
  V  V34  1  0.15383905  0.89748896  0.71520426  1
  V  V35  1  0.64470335  0.62529107  0.54715199  1
  V  V36  1  0.93123541  0.31483467  0.10623405  1
  V  V37  1  0.28270221  0.70521517  -0.00137337  1
  V  V38  1  0.52861283  0.01798686  0.00282398  1
  V  V39  1  0.46839423  0.75271152  0.26148699  1
  V  V40  1  0.02012417  0.88266924  0.85420412  1
  V  V41  1  0.40571458  0.21399243  0.25131533  1
  V  V42  1  0.47741582  0.31394934  0.88217480  1
  V  V43  1  0.61462637  0.00309758  0.61893323  1
  V  V44  1  0.00498488  0.27042139  0.74365895  1
  V  V45  1  0.02440775  0.53086336  -0.01624856  1
  V  V46  1  0.64813928  0.29234422  0.37590653  1
  V  V47  1  0.90568885  0.47242787  0.87732423  1
  V  V48  1  0.69712210  0.75024337  0.35030824  1
  V  V49  1  -0.03296396  0.25185354  0.28850717  1
  V  V50  1  0.32998433  -0.00693920  0.85796869  1
  Zn  Zn51  1  0.95912741  0.69554307  0.89688823  1
  Zn  Zn52  1  0.69809454  0.19268321  0.68727062  1
  Zn  Zn53  1  0.27834968  0.71495484  0.20137055  1
  Zn  Zn54  1  0.07520086  0.81903296  0.56520706  1
  Zn  Zn55  1  0.23887685  0.82224505  0.83387016  1
  Zn  Zn56  1  0.85821640  0.49994780  0.07988763  1
  Zn  Zn57  1  0.14673378  0.98907853  0.87726144  1
  Zn  Zn58  1  0.68707957  0.45566344  0.46220393  1
  Zn  Zn59  1  0.21835049  0.17466722  0.27825814  1
  Zn  Zn60  1  0.05648153  1.08636869  0.35250449  1
  Zn  Zn61  1  0.23177127  0.49715895  0.00324085  1
  Zn  Zn62  1  0.96792573  0.93965524  0.67613642  1
  Zn  Zn63  1  0.51688638  0.03563077  0.79658289  1
  Zn  Zn64  1  0.08892269  0.35478097  0.06155185  1
  Zn  Zn65  1  0.05497967  0.34633624  0.58592694  1
  Zn  Zn66  1  0.56131469  0.74543773  0.42264179  1
  Zn  Zn67  1  0.52786878  0.52654247  0.80752420  1
  Zn  Zn68  1  0.17030377  0.65383413  0.69346768  1
  Zn  Zn69  1  0.83481820  0.87693554  0.77724174  1
  Zn  Zn70  1  0.15604376  0.42492704  0.46730596  1
  Zn  Zn71  1  0.58095116  0.59281505  0.30663533  1
  Zn  Zn72  1  0.18124076  0.23263873  0.65578023  1
  Zn  Zn73  1  0.25262736  0.04472156  0.01142903  1
  Zn  Zn74  1  0.43984284  0.94584806  0.17954104  1
  Zn  Zn75  1  0.38233030  0.39750847  0.19233701  1
  Zn  Zn76  1  0.21570026  0.07447958  0.68116087  1
  Zn  Zn77  1  0.96127379  0.87643843  0.15288567  1
  Zn  Zn78  1  0.07215294  0.58489859  0.83515857  1
  Zn  Zn79  1  0.96153098  0.23203406  0.48770588  1
  Zn  Zn80  1  0.94354699  0.70100762  0.49734472  1
  Zn  Zn81  1  0.31528929  0.30200777  0.77613894  1
  Zn  Zn82  1  0.97660422  0.30530165  0.91646987  1
  Zn  Zn83  1  0.99729062  0.48727523  0.17212474  1
  Zn  Zn84  1  0.96165184  0.45008020  0.68949973  1
  Zn  Zn85  1  0.80190160  0.56398817  0.59391003  1
  Zn  Zn86  1  0.08080048  0.56344789  0.32007934  1
  Zn  Zn87  1  0.89185025  0.76102744  0.35056596  1
  Zn  Zn88  1  0.48395234  0.23762483  0.06053598  1
  Zn  Zn89  1  0.00497697  0.06731693  0.78145710  1
  Zn  Zn90  1  0.62804573  0.72908461  0.68384230  1
  Zn  Zn91  1  0.33491551  0.59894098  0.53996123  1
  Zn  Zn92  1  0.75949960  0.70832459  0.18986088  1
  Zn  Zn93  1  0.38578314  0.59421433  0.96572980  1
  Zn  Zn94  1  0.09646055  0.91714372  0.03391450  1
  Zn  Zn95  1  0.39395568  0.14431934  0.93463899  1
  Zn  Zn96  1  0.58561145  0.18674756  0.28341852  1
  Zn  Zn97  1  0.67988632  0.81765093  0.52123200  1
  Zn  Zn98  1  0.56406576  0.33966050  0.53280354  1
  Zn  Zn99  1  0.81078955  0.36094808  0.33006014  1
  Zn  Zn100  1  0.25898401  0.31344201  0.95451051  1
  Zn  Zn101  1  0.57861025  0.84847477  0.08467057  1
  O  O102  1  0.04147384  0.12536278  0.04542719  1
  O  O103  1  0.14727700  0.12949978  0.60841801  1
  O  O104  1  0.05831006  0.68802006  0.10127594  1
  O  O105  1  0.15579692  0.63434126  0.58639313  1
  O  O106  1  0.62471721  0.12403810  0.20583683  1
  O  O107  1  0.63514506  0.10211265  0.64220748  1
  O  O108  1  0.62295592  0.60240103  0.04419060  1
  O  O109  1  0.63745559  0.62093171  0.64314185  1
  O  O110  1  0.25650781  0.44767033  0.39007805  1
  O  O111  1  0.37848601  0.33048265  0.86634220  1
  O  O112  1  0.35555537  0.97389820  0.51366730  1
  O  O113  1  0.31735222  0.89698056  0.87180766  1
  O  O114  1  0.88015492  0.42031056  0.40093478  1
  O  O115  1  0.89477827  0.37479320  0.89579946  1
  O  O116  1  0.91103419  0.87641339  0.36623518  1
  O  O117  1  0.92370916  0.88339019  0.83974867  1
  O  O118  1  0.30623238  0.05429501  0.41243165  1
  O  O119  1  0.24310514  0.03629136  0.83643897  1
  O  O120  1  0.29157237  0.50979730  0.39064473  1
  O  O121  1  0.28579780  0.42404843  0.93791679  1
  O  O122  1  0.76478450  -0.04334847  0.34043461  1
  O  O123  1  0.82830152  0.08571656  0.88610094  1
  O  O124  1  0.76015530  0.52716558  0.40916273  1
  O  O125  1  0.82725460  0.52949081  0.87731453  1
  O  O126  1  0.21143163  0.49075110  0.11045020  1
  O  O127  1  0.27098928  0.51314013  0.59058217  1
  O  O128  1  0.31928596  0.89293801  0.07408249  1
  O  O129  1  0.17701653  0.95915446  0.48930184  1
  O  O130  1  0.75751821  0.50063290  0.12215899  1
  O  O131  1  0.74800760  0.47729435  0.65090733  1
  O  O132  1  0.79442254  0.95777743  0.09034144  1
  O  O133  1  0.70505686  0.97216220  0.64377382  1
  O  O134  1  -0.00725529  0.40286552  0.28589005  1
  O  O135  1  -0.00319550  0.36620033  0.75712254  1
  O  O136  1  0.03561005  0.82918611  0.21530273  1
  O  O137  1  0.04128086  0.87310877  0.73542021  1
  O  O138  1  0.40677672  0.31186864  0.25989533  1
  O  O139  1  0.49491015  0.32439951  0.76326840  1
  O  O140  1  0.49607841  0.86292866  0.22409352  1
  O  O141  1  0.52562423  0.85607239  0.81669408  1
  O  O142  1  0.41783918  0.04944683  0.20547026  1
  O  O143  1  0.48593934  0.13462978  0.73251479  1
  O  O144  1  0.51443131  0.66757106  0.25048043  1
  O  O145  1  0.46747129  0.58931488  0.74073550  1
  O  O146  1  0.97543097  0.15654490  0.30640599  1
  O  O147  1  1.01826166  0.14867931  0.70714263  1
  O  O148  1  1.01137604  0.57983342  0.24054138  1
  O  O149  1  1.06821182  0.64361605  0.74211160  1
  O  O150  1  0.30397429  0.20621596  -0.01857241  1
  O  O151  1  0.32108148  0.26708959  0.47198970  1
  O  O152  1  0.37777230  0.70365471  -0.02790594  1
  O  O153  1  0.45713305  0.78594450  0.52335679  1
  O  O154  1  0.99641612  0.30426641  0.02441373  1
  O  O155  1  0.85894222  0.28629460  0.51360797  1
  O  O156  1  0.87714425  0.70543872  -0.03317380  1
  O  O157  1  0.87574686  0.73753555  0.57510717  1
  O  O158  1  0.12075432  0.31648005  0.49636278  1
  O  O159  1  0.10620038  0.14758932  1.05384971  1
  O  O160  1  0.14002392  0.74418200  0.49011468  1
  O  O161  1  0.16911473  0.75478784  0.99580518  1
  O  O162  1  0.65072996  0.26353076  0.52417139  1
  O  O163  1  0.58577044  0.23114590  1.08909195  1
  O  O164  1  0.61294345  0.72326244  0.51834511  1
  O  O165  1  0.55941324  0.74101410  1.01164976  1
  O  O166  1  0.41632071  0.19203777  0.14778878  1
  O  O167  1  0.50378842  0.26680269  0.61103290  1
  O  O168  1  0.50420847  0.80549004  0.16176628  1
  O  O169  1  0.51909288  0.72431074  0.66611900  1
  O  O170  1  0.97073897  0.26176613  0.18400133  1
  O  O171  1  0.96893752  0.27008259  0.59806178  1
  O  O172  1  1.01073345  0.72806577  0.07072668  1
  O  O173  1  1.02093359  0.75575676  0.64307641  1
  O  O174  1  -0.00864588  0.28912830  0.39281670  1
  O  O175  1  0.01730472  0.24251421  0.83790533  1
  O  O176  1  -0.01772920  0.76847092  0.41161301  1
  O  O177  1  0.01784460  0.76662651  0.83175330  1
  O  O178  1  0.47907436  0.17697243  0.30040154  1
  O  O179  1  0.47685599  0.21797296  0.88394029  1
  O  O180  1  0.48280446  0.77224686  0.35694408  1
  O  O181  1  0.47268752  0.84322403  0.77456039  1
  O  O182  1  0.25782034  0.08895362  0.44796188  1
  O  O183  1  0.24410983  0.15462628  0.96099857  1
  O  O184  1  0.24662444  0.64631915  0.48017262  1
  O  O185  1  0.25998187  0.60673843  0.99105551  1
  O  O186  1  0.76291258  0.16653836  0.50041846  1
  O  O187  1  0.72403499  0.16309724  1.08665857  1
  O  O188  1  0.74028458  0.62776532  0.53249319  1
  O  O189  1  0.67295971  0.56210335  1.01972184  1
  O  O190  1  0.18927866  0.31703392  0.04840045  1
  O  O191  1  0.29425767  0.44457131  0.56387512  1
  O  O192  1  0.22145060  0.80671563  -0.01769117  1
  O  O193  1  0.21549033  0.92128793  0.44543576  1
  O  O194  1  0.71060022  0.33791925  0.11662183  1
  O  O195  1  0.75869739  0.38717852  0.52929736  1
  O  O196  1  0.78193352  0.82972344  -0.00926860  1
  O  O197  1  0.78109853  0.85420327  0.53254287  1
  O  O198  1  0.14622466  0.48803267  0.26710585  1
  O  O199  1  0.16190771  0.43729821  0.69477166  1
  O  O200  1  0.10602845  0.96277713  0.21463711  1
  O  O201  1  0.14792173  0.99757237  0.71974223  1
  O  O202  1  0.64510077  0.54199322  0.23260571  1
  O  O203  1  0.58641457  0.44560374  0.75729366  1
  O  O204  1  0.71963607  0.96468631  0.28991994  1
  O  O205  1  0.58824725  0.99284820  0.72206281  1
  O  O206  1  0.48534569  -0.04874939  0.40600959  1
  O  O207  1  0.40507750  0.02058579  0.79045502  1
  O  O208  1  0.31527204  0.47633020  0.22635961  1
  O  O209  1  0.32585577  0.43436350  0.77709486  1
  O  O210  1  0.91202908  0.01588628  0.24910156  1
  O  O211  1  0.90844413  0.02661797  0.73605533  1
  O  O212  1  0.88545958  0.54266753  0.31400535  1
  O  O213  1  0.89785624  0.48966496  0.76755889  1
  O  O214  1  0.10081961  0.39050450  0.37376201  1
  O  O215  1  0.18977926  0.38855616  0.73768930  1
  O  O216  1  0.09768604  0.85117814  0.32440872  1
  O  O217  1  0.13920999  0.87926943  0.83391324  1
  O  O218  1  0.61681026  0.37583120  0.42481268  1
  O  O219  1  0.58480830  0.33523142  0.86808758  1
  O  O220  1  0.65481173  0.82328045  0.40904479  1
  O  O221  1  0.54106239  0.74781509  0.94453158  1
  O  O222  1  0.30989496  0.07129214  0.09934895  1
  O  O223  1  0.32651397  0.08893166  0.67703703  1
  O  O224  1  0.49747713  0.58502623  0.13282849  1
  O  O225  1  0.38229126  0.65523086  0.61829894  1
  O  O226  1  0.90595727  0.11213750  0.12503360  1
  O  O227  1  0.86444679  0.15682158  0.61642944  1
  O  O228  1  0.90358957  0.57980023  0.14458338  1
  O  O229  1  0.86084233  0.60016629  0.67465641  1
  O  O230  1  0.22184744  0.21101254  0.16960016  1
  O  O231  1  0.28127111  0.23899978  0.58957534  1
  O  O232  1  0.28501736  0.72365233  0.09179441  1
  O  O233  1  0.29250331  0.78380201  0.60891571  1
  O  O234  1  0.85166474  0.27760071  0.08271029  1
  O  O235  1  0.76211428  0.27090636  0.62663548  1
  O  O236  1  0.76353197  0.69848085  0.07931440  1
  O  O237  1  0.71051602  0.78415389  0.62947833  1
  O  O238  1  0.19772280  0.25910416  0.36306239  1
  O  O239  1  0.23125284  0.26681180  0.85736687  1
  O  O240  1  0.34660461  0.87130391  0.40382518  1
  O  O241  1  0.26166360  0.71709236  0.87211587  1
  O  O242  1  0.74802727  0.29061897  0.40135713  1
  O  O243  1  0.71030310  0.20501442  0.88904958  1
  O  O244  1  0.78856068  0.73854217  0.37427720  1
  O  O245  1  0.71996894  0.68773606  0.92556401  1
  O  O246  1  -0.12705289  0.08574108  0.06711271  1
  O  O247  1  0.00312110  0.13967516  0.53560855  1
  O  O248  1  0.03534078  0.62481717  -0.05902270  1
  O  O249  1  0.04552807  0.63933283  0.50096299  1
  O  O250  1  0.45515667  0.12963514  0.02474270  1
  O  O251  1  0.42849537  0.16432749  0.47108258  1
  O  O252  1  0.46962361  0.63587381  0.09428943  1
  O  O253  1  0.51994464  0.61733743  0.55029382  1
  O  O254  1  0.49538915  0.42178980  0.50434654  1
  O  O255  1  0.46918062  0.32773051  0.98743799  1
  O  O256  1  0.43608980  0.85307368  0.52541844  1
  O  O257  1  0.55611203  0.92287298  1.00760541  1
  O  O258  1  0.97382791  0.39235324  0.49814238  1
  O  O259  1  1.07041642  0.42632865  0.97360001  1
  O  O260  1  1.01714655  0.88267719  0.49939299  1
  O  O261  1  1.03819889  0.86977132  0.94887796  1
  O  O262  1  0.52788484  0.53321992  0.38579838  1
  O  O263  1  0.45774700  0.45311662  0.86656846  1
  O  O264  1  0.46650676  1.01912005  0.41112460  1
  O  O265  1  0.52477645  1.03776653  0.90582956  1
  O  O266  1  1.01181598  0.50804347  0.39524193  1
  O  O267  1  1.00226209  0.50213808  0.86574892  1
  O  O268  1  0.88984905  0.95678874  0.21724262  1
  O  O269  1  1.03832233  0.99077379  0.84894367  1
  O  O270  1  0.01286309  -0.05276198  0.09258159  1
  O  O271  1  0.03112099  0.01362736  0.62163791  1
  O  O272  1  0.03785574  0.54082503  0.07634359  1
  O  O273  1  0.04184852  0.45097388  0.61892107  1
  O  O274  1  0.45178397  -0.00183488  0.07620962  1
  O  O275  1  0.51479874  -0.00332981  0.61908670  1
  O  O276  1  0.47125403  0.40987189  0.12843041  1
  O  O277  1  0.50236514  0.54938406  0.59745317  1
  O  O278  1  0.19888707  0.35715660  0.22142052  1
  O  O279  1  0.24004085  0.33252832  0.69826586  1
  O  O280  1  0.21682835  0.91103063  0.25578552  1
  O  O281  1  0.24735574  0.87988952  0.73387925  1
  O  O282  1  0.76491246  0.44009248  0.26996256  1
  O  O283  1  0.70353209  0.35196802  0.74080933  1
  O  O284  1  0.81484813  0.82075410  0.18145117  1
  O  O285  1  0.77819961  0.97032471  0.79720557  1
  O  O286  1  0.14784335  0.09476698  0.29493727  1
  O  O287  1  0.21375181  0.16893077  0.74632855  1
  O  O288  1  0.23658914  0.61178760  0.21410187  1
  O  O289  1  0.26446679  0.63252593  0.73799023  1
  O  O290  1  0.81814220  0.09287771  0.36236711  1
  O  O291  1  0.76232771  0.12183736  0.74243918  1
  O  O292  1  0.78784057  0.60990038  0.23583529  1
  O  O293  1  0.74885241  0.61113080  0.78059860  1
  O  O294  1  0.40500766  0.13336020  0.52967024  1
  O  O295  1  0.33813888  0.14909801  0.83439825  1
  O  O296  1  0.32140237  0.80576656  0.39643393  1
  O  O297  1  0.34196929  0.55946074  0.86497003  1
  O  O298  1  0.86346923  0.07125967  0.41402595  1
  O  O299  1  0.88411985  0.12653637  0.85176124  1
  O  O300  1  0.88627977  0.62577135  0.43832385  1
  O  O301  1  0.90714258  0.65113729  0.80806011  1
  O  O302  1  0.07136498  0.39666363  0.16419047  1
  O  O303  1  0.24115683  0.39764857  0.54154368  1
  O  O304  1  0.14150514  0.85951923  0.12673543  1
  O  O305  1  0.14753285  0.87703847  0.61910600  1
  O  O306  1  0.65313447  0.36897307  0.13701249  1
  O  O307  1  0.62911895  0.38685931  0.61595577  1
  O  O308  1  0.67928441  0.85247449  0.11141109  1
  O  O309  1  0.61477226  0.90756326  0.57983978  1
  O  O310  1  0.07999233  0.28163088  0.28292429  1
  O  O311  1  0.08801778  0.28257001  0.68018438  1
  O  O312  1  0.18688676  0.77885136  0.22607446  1
  O  O313  1  0.15027406  0.76635113  0.72743643  1
  O  O314  1  0.63944289  0.29850856  0.28083788  1
  O  O315  1  0.60260544  0.24178298  0.72495235  1
  O  O316  1  0.69238704  0.76843912  0.25435836  1
  O  O317  1  0.64418711  0.72880235  0.79186846  1
  O  O318  1  0.32502196  0.17474725  0.29057948  1
  O  O319  1  0.38795242  0.23230314  0.71812629  1
  O  O320  1  0.37349333  0.74146097  0.24694573  1
  O  O321  1  0.34385013  0.80263596  0.65443371  1
  O  O322  1  0.87549171  0.27726992  0.29977656  1
  O  O323  1  0.90123910  0.25351277  0.72787216  1
  O  O324  1  0.91196202  0.70461216  0.25669871  1
  O  O325  1  0.79977448  0.79309343  0.71781793  1
  O  O326  1  0.40839529  0.54941648  0.47859526  1
  O  O327  1  0.41062282  0.50149027  1.01219969  1
  O  O328  1  0.32013839  0.95896282  0.57181939  1
  O  O329  1  0.35093706  1.03048858  0.94631826  1
  O  O330  1  0.86366832  0.50188539  0.51881442  1
  O  O331  1  0.92363560  0.50288673  0.98558984  1
  O  O332  1  0.85345843  1.00530511  0.44613013  1
  O  O333  1  0.91412170  1.06464147  1.01099207  1
  O  O334  1  0.16931968  -0.01670071  -0.01359259  1
  O  O335  1  0.02390300  -0.01890193  0.37809493  1
  O  O336  1  0.12280786  0.48920577  -0.04317522  1
  O  O337  1  0.14727359  0.53721225  0.48092595  1
  O  O338  1  0.60139345  0.06784991  0.04632355  1
  O  O339  1  0.62355084  0.04393521  0.52943061  1
  O  O340  1  0.56206350  0.45762824  0.01153386  1
  O  O341  1  0.61870005  0.53373788  0.50315898  1
  O  O342  1  0.32439122  0.32674646  0.12119483  1
  O  O343  1  0.26919751  0.23810445  0.51390883  1
  O  O344  1  0.34918938  0.87336053  0.13497194  1
  O  O345  1  0.28948297  0.81619973  0.54265134  1
  O  O346  1  0.91851427  0.41414999  0.12747614  1
  O  O347  1  0.87820271  0.39062380  0.62446225  1
  O  O348  1  0.87333083  0.81971464  0.12305065  1
  O  O349  1  0.88389387  0.88348271  0.64137589  1
  O  O350  1  0.08359773  0.17727455  0.41811836  1
  O  O351  1  0.13309593  0.13378084  0.87478720  1
  O  O352  1  0.13624802  0.64225515  0.38494920  1
  O  O353  1  0.17985048  0.57571826  0.85186733  1
  O  O354  1  0.60379497  0.20554716  0.39446772  1
  O  O355  1  0.65949591  0.15735093  0.89780510  1
  O  O356  1  0.63605235  0.66966945  0.36934471  1
  O  O357  1  0.60619865  0.58770908  0.85735150  1
