# generated using pymatgen
data_V51Zn51O256
_symmetry_space_group_name_H-M   'P 1'
_cell_length_a   17.32373797
_cell_length_b   17.35282368
_cell_length_c   17.64789473
_cell_angle_alpha   89.64651041
_cell_angle_beta   90.70343764
_cell_angle_gamma   89.87015648
_symmetry_Int_Tables_number   1
_chemical_formula_structural   V51Zn51O256
_chemical_formula_sum   'V51 Zn51 O256'
_cell_volume   5304.72013083
_cell_formula_units_Z   1
loop_
 _symmetry_equiv_pos_site_id
 _symmetry_equiv_pos_as_xyz
  1  'x, y, z'
loop_
 _atom_site_type_symbol
 _atom_site_label
 _atom_site_symmetry_multiplicity
 _atom_site_fract_x
 _atom_site_fract_y
 _atom_site_fract_z
 _atom_site_occupancy
  V  V0  1  0.25949036  0.09304380  0.37068557  1
  V  V1  1  0.22457423  0.29355769  0.51018540  1
  V  V2  1  0.40469121  0.72277832  0.10349868  1
  V  V3  1  0.11147914  0.85912390  0.21133521  1
  V  V4  1  0.28517975  0.37997181  0.14059357  1
  V  V5  1  0.29124446  0.63798494  0.88536591  1
  V  V6  1  0.50145992  0.13518088  0.62481217  1
  V  V7  1  0.10367779  0.63571393  0.49758445  1
  V  V8  1  0.48724500  0.15186333  0.12322840  1
  V  V9  1  0.23864182  0.00868387  0.21553516  1
  V  V10  1  0.76008021  0.12069970  0.88414482  1
  V  V11  1  0.76603491  0.61507915  0.41416678  1
  V  V12  1  0.61119300  -0.01610114  0.08889112  1
  V  V13  1  0.44576225  0.38444934  -0.07074237  1
  V  V14  1  0.61332222  0.75056668  0.38208561  1
  V  V15  1  0.60240349  0.12301679  -0.02584118  1
  V  V16  1  0.76073448  0.38820206  0.10142153  1
  V  V17  1  0.91815715  0.65274608  0.75838904  1
  V  V18  1  0.85931080  0.76133340  0.16006288  1
  V  V19  1  0.63136761  0.84976028  0.75127217  1
  V  V20  1  0.63305117  0.37230340  0.20610040  1
  V  V21  1  0.00345155  0.24582759  0.78450301  1
  V  V22  1  0.74428505  0.48817704  0.73059269  1
  V  V23  1  0.74412154  -0.00435417  0.76914637  1
  V  V24  1  0.37707747  0.87508162  0.48837803  1
  V  V25  1  0.09720250  -0.01252763  0.62729203  1
  V  V26  1  0.37740149  0.26652129  0.67002192  1
  V  V27  1  0.26602716  0.09991292  0.87116002  1
  V  V28  1  0.26096355  0.78135555  0.00616776  1
  V  V29  1  0.22695524  0.70184427  0.36689617  1
  V  V30  1  0.24556943  0.37733779  0.68336148  1
  V  V31  1  0.87331797  0.76134503  0.61992001  1
  V  V32  1  0.37289758  0.74270264  0.63019679  1
  V  V33  1  0.37982045  0.09976235  0.74610617  1
  V  V34  1  0.78203469  0.21526694  0.02712977  1
  V  V35  1  0.74546022  0.87875320  0.62117344  1
  V  V36  1  0.90473889  0.07177398  0.79173130  1
  V  V37  1  0.14324078  0.23600826  0.90236986  1
  V  V38  1  0.14603734  0.75618832  0.87538800  1
  V  V39  1  0.58972090  0.63576230  0.51082425  1
  V  V40  1  0.01378598  0.78742041  0.75140824  1
  V  V41  1  0.51058739  0.90553547  0.85194137  1
  V  V42  1  0.75954143  0.73460575  -0.03250211  1
  V  V43  1  0.21784085  0.54270494  0.74233908  1
  V  V44  1  0.45147566  0.39529309  0.39092539  1
  V  V45  1  -0.00937493  0.13770613  0.63112800  1
  V  V46  1  0.07582415  0.80558043  0.37970684  1
  V  V47  1  0.87495078  0.57037197  0.26621934  1
  V  V48  1  0.50256142  0.02439788  0.48438654  1
  V  V49  1  0.16664743  0.87903804  0.73791345  1
  V  V50  1  0.88167451  0.86214257  -0.01753302  1
  Zn  Zn51  1  0.42812114  0.70764639  0.43129363  1
  Zn  Zn52  1  0.04637097  0.75076934  0.05821594  1
  Zn  Zn53  1  0.73705735  0.70038614  0.24190816  1
  Zn  Zn54  1  0.16332835  0.33568457  0.01621457  1
  Zn  Zn55  1  0.67046127  0.93537849  0.44437918  1
  Zn  Zn56  1  0.57183852  0.07888466  0.79990580  1
  Zn  Zn57  1  0.25197135  0.21309465  0.24254059  1
  Zn  Zn58  1  0.42571704  0.97591740  0.16062175  1
  Zn  Zn59  1  0.40056543  0.19641753  0.46524159  1
  Zn  Zn60  1  0.68355824  0.69091562  0.67354922  1
  Zn  Zn61  1  1.12021969  0.13303461  0.50384660  1
  Zn  Zn62  1  0.32776849  0.06025310  0.04707446  1
  Zn  Zn63  1  0.86538102  0.78093098  0.36571297  1
  Zn  Zn64  1  0.96636086  0.64980240  0.38625198  1
  Zn  Zn65  1  0.32420240  0.30873013  0.84023341  1
  Zn  Zn66  1  0.22406309  0.49613211  0.55365922  1
  Zn  Zn67  1  0.40353768  0.18421455  0.95041905  1
  Zn  Zn68  1  0.91027082  0.45190939  0.16888444  1
  Zn  Zn69  1  0.77057005  0.44866875  0.30786520  1
  Zn  Zn70  1  0.05930127  0.81413234  0.57295320  1
  Zn  Zn71  1  0.80015569  0.59198966  0.08949811  1
  Zn  Zn72  1  0.04567701  -0.00187285  0.28134799  1
  Zn  Zn73  1  0.90634728  0.41366914  0.73993987  1
  Zn  Zn74  1  0.50702242  0.35646223  0.58303048  1
  Zn  Zn75  1  0.55157644  0.81961847  0.55686454  1
  Zn  Zn76  1  0.81917247  0.82045345  0.81984665  1
  Zn  Zn77  1  0.58868433  0.78515380  0.05176899  1
  Zn  Zn78  1  0.95126961  0.15844128  0.94512743  1
  Zn  Zn79  1  0.42569825  0.75860889  0.91904022  1
  Zn  Zn80  1  0.79500036  0.02333719  0.06763596  1
  Zn  Zn81  1  0.68269715  0.91815768  0.94416542  1
  Zn  Zn82  1  0.64118159  0.47047711  0.43705590  1
  Zn  Zn83  1  0.89625027  -0.02961187  0.65250666  1
  Zn  Zn84  1  0.25744414  0.36297139  0.34125985  1
  Zn  Zn85  1  0.09423219  0.27885995  0.63764833  1
  Zn  Zn86  1  0.18403917  0.72007756  0.64827544  1
  Zn  Zn87  1  0.10356901  0.07325729  0.78528384  1
  Zn  Zn88  1  0.89888415  0.65401254  0.94782619  1
  Zn  Zn89  1  0.84407172  0.57208114  0.59361458  1
  Zn  Zn90  1  0.19122489  0.69518089  0.17119544  1
  Zn  Zn91  1  0.19084418  0.93412163  0.93064423  1
  Zn  Zn92  1  0.33422218  0.81148692  0.79210897  1
  Zn  Zn93  1  0.35724740  0.54026981  0.03222815  1
  Zn  Zn94  1  0.26249356  0.88900551  0.34220350  1
  Zn  Zn95  1  0.46444596  0.95197002  0.66887882  1
  Zn  Zn96  1  0.95727557  0.91240829  0.10859516  1
  Zn  Zn97  1  0.45003748  0.43083472  0.73040995  1
  Zn  Zn98  1  0.21419861  0.20662633  0.74476227  1
  Zn  Zn99  1  0.41563014  0.06523048  0.30264258  1
  Zn  Zn100  1  0.58833074  0.29273804  0.03877312  1
  Zn  Zn101  1  0.02769230  0.67540168  0.20856548  1
  O  O102  1  0.08183313  0.14237825  0.13278960  1
  O  O103  1  0.07393186  0.09370877  0.67345031  1
  O  O104  1  0.09633290  0.66793093  0.12610979  1
  O  O105  1  0.11181282  0.71092141  0.56364326  1
  O  O106  1  0.56341026  0.09552581  0.07818063  1
  O  O107  1  0.58754460  0.17229055  0.62697526  1
  O  O108  1  0.56630129  0.59867056  0.23750268  1
  O  O109  1  0.60344466  0.65801576  0.60778397  1
  O  O110  1  0.34841695  0.40187992  0.39625083  1
  O  O111  1  0.43761109  0.41351576  0.83493081  1
  O  O112  1  0.36195264  0.87164328  0.39088096  1
  O  O113  1  0.42293969  0.84684716  0.84449126  1
  O  O114  1  0.78316671  0.35855382  0.38631696  1
  O  O115  1  0.98929274  0.34607937  0.99951802  1
  O  O116  1  0.81775062  0.88625448  0.36639995  1
  O  O117  1  0.89191317  0.87410260  0.88807215  1
  O  O118  1  0.24786370  -0.00376077  0.37473505  1
  O  O119  1  0.26016325  0.00205886  0.87792287  1
  O  O120  1  0.19912827  0.46608216  0.35169938  1
  O  O121  1  0.28777518  0.56055729  0.82016573  1
  O  O122  1  0.76104537  0.01524104  0.42131534  1
  O  O123  1  0.74424107  -0.01487084  0.86834965  1
  O  O124  1  0.72594159  0.51310551  0.38440845  1
  O  O125  1  0.73090156  0.49486369  0.82582633  1
  O  O126  1  0.30293022  0.47779602  0.12115268  1
  O  O127  1  0.25543718  0.48288012  0.66267385  1
  O  O128  1  0.24496944  1.03162085  0.12339534  1
  O  O129  1  0.14027229  1.03034799  0.55321038  1
  O  O130  1  0.76082923  0.48159294  0.07263921  1
  O  O131  1  0.76159718  0.50017292  0.62878918  1
  O  O132  1  0.69996842  1.00970895  0.12564739  1
  O  O133  1  0.76282891  0.97361623  0.65517933  1
  O  O134  1  0.02377877  0.40984455  0.21022386  1
  O  O135  1  -0.02971411  0.33901805  0.78244101  1
  O  O136  1  0.02815502  0.92103366  0.19249513  1
  O  O137  1  0.01575457  0.88019822  0.76328945  1
  O  O138  1  0.45940163  0.35716522  0.30169335  1
  O  O139  1  0.56875788  0.34303874  0.79144182  1
  O  O140  1  0.50415690  0.84824366  0.25134625  1
  O  O141  1  0.53340603  0.89512543  0.74560722  1
  O  O142  1  0.45919658  0.11812959  0.21156867  1
  O  O143  1  0.49043015  0.12228144  0.73631644  1
  O  O144  1  0.49874447  0.61400341  0.22364403  1
  O  O145  1  0.44703512  0.60313680  0.66919939  1
  O  O146  1  0.95169517  0.06814896  0.25037374  1
  O  O147  1  0.99740880  0.04768819  0.80983074  1
  O  O148  1  0.96978117  0.61729611  0.27913762  1
  O  O149  1  1.01149364  0.64901023  0.74479036  1
  O  O150  1  0.38689021  0.29732321  -0.06776435  1
  O  O151  1  0.31077965  0.24436537  0.50899465  1
  O  O152  1  0.37100271  0.77319360  0.01605548  1
  O  O153  1  0.40607224  0.77653908  0.51636593  1
  O  O154  1  0.88120893  0.20781886  0.01235555  1
  O  O155  1  0.80883861  0.28909027  0.36339940  1
  O  O156  1  0.86721378  0.75489436  -0.00261668  1
  O  O157  1  0.88178698  0.74732513  0.52973061  1
  O  O158  1  0.14584848  0.23729181  0.54973687  1
  O  O159  1  0.15571021  0.21714663  0.99609436  1
  O  O160  1  0.06835650  0.84080077  0.46851149  1
  O  O161  1  0.15007588  0.75775099  0.97502590  1
  O  O162  1  0.61553401  0.32506802  0.53976544  1
  O  O163  1  0.65397661  0.20506187  1.00529717  1
  O  O164  1  0.60704049  0.74883548  0.49440755  1
  O  O165  1  0.66841987  0.72744253  1.00388281  1
  O  O166  1  0.52046119  0.24341553  0.11805820  1
  O  O167  1  0.46232212  0.25733546  0.61023981  1
  O  O168  1  0.50145652  0.73971153  0.10223795  1
  O  O169  1  0.48015452  0.79177858  0.64379494  1
  O  O170  1  1.03221753  0.19260041  0.12529825  1
  O  O171  1  0.99185409  0.23701188  0.65679297  1
  O  O172  1  0.95079092  0.72887764  0.14049315  1
  O  O173  1  0.98317545  0.77895159  0.64805361  1
  O  O174  1  -0.05787855  0.26359817  0.25895478  1
  O  O175  1  0.03036181  0.21823050  0.88422849  1
  O  O176  1  -0.02231207  0.76474140  0.37160199  1
  O  O177  1  0.04757108  0.75445468  0.85162241  1
  O  O178  1  0.44890296  0.29423199  0.42179586  1
  O  O179  1  0.61007433  0.29613902  0.75304332  1
  O  O180  1  0.51590915  0.74033004  0.36738692  1
  O  O181  1  0.52179663  0.80771587  0.95758115  1
  O  O182  1  0.19074857  0.14194945  0.41967809  1
  O  O183  1  0.29120111  0.12678399  0.96482111  1
  O  O184  1  0.21197403  0.61532919  0.44653420  1
  O  O185  1  0.27761768  0.59580038  0.97104543  1
  O  O186  1  0.67158622  0.17298584  0.49308968  1
  O  O187  1  0.76468123  0.10438373  0.98851892  1
  O  O188  1  0.78727927  0.60474982  0.50752340  1
  O  O189  1  0.79463090  0.63296058  0.98671413  1
  O  O190  1  0.28276204  0.35192095  0.03979745  1
  O  O191  1  0.24009108  0.38330988  0.55474086  1
  O  O192  1  0.24427651  0.87662517  0.01251798  1
  O  O193  1  0.29283771  0.88823143  0.52678994  1
  O  O194  1  0.76547733  0.32091695  0.02191885  1
  O  O195  1  0.66483455  0.36604858  0.50492283  1
  O  O196  1  0.76874416  0.84812175  -0.02006002  1
  O  O197  1  0.73571499  0.89022574  0.52719740  1
  O  O198  1  0.06593552  0.45336042  0.24906719  1
  O  O199  1  0.13611656  0.51027496  0.77249180  1
  O  O200  1  0.14232166  1.03079786  0.23451128  1
  O  O201  1  0.14223565  0.98032659  0.73231604  1
  O  O202  1  0.57034849  0.44440902  0.21648749  1
  O  O203  1  0.65855770  0.44193154  0.71690784  1
  O  O204  1  0.49506283  0.88898084  0.30643818  1
  O  O205  1  0.64955772  1.01366533  0.74787412  1
  O  O206  1  0.34901350  -0.00767433  0.24064964  1
  O  O207  1  0.38427179  0.00408897  0.72968740  1
  O  O208  1  0.22391123  0.52083441  0.31200993  1
  O  O209  1  0.41306392  0.55776246  0.71504634  1
  O  O210  1  0.83970189  -0.07536108  0.30085870  1
  O  O211  1  0.86602180  -0.01914832  0.76390286  1
  O  O212  1  0.88095361  0.46928881  0.28029985  1
  O  O213  1  0.85074389  0.51442646  0.74296784  1
  O  O214  1  0.00638030  0.28026743  0.40002236  1
  O  O215  1  0.13834052  0.33536939  0.90790183  1
  O  O216  1  0.07792939  0.89409171  0.32940606  1
  O  O217  1  0.16294528  0.86159208  0.84488385  1
  O  O218  1  0.55319210  0.41235052  0.39636089  1
  O  O219  1  0.67185173  0.26816251  0.78395951  1
  O  O220  1  0.63535269  0.84899093  0.38742497  1
  O  O221  1  0.61569254  0.87647369  0.85643437  1
  O  O222  1  0.40547083  0.14998760  0.06249750  1
  O  O223  1  0.37751759  0.15114841  0.65503478  1
  O  O224  1  0.39439306  0.62579860  0.09019576  1
  O  O225  1  0.39716911  0.63493320  0.61070441  1
  O  O226  1  0.85660402  0.07953401  0.16360178  1
  O  O227  1  0.90916801  0.08725566  0.66345405  1
  O  O228  1  0.88649543  0.56321363  0.16081909  1
  O  O229  1  0.87271897  0.65506942  0.66140698  1
  O  O230  1  0.27287640  0.27925144  0.15909175  1
  O  O231  1  0.26706658  0.26781656  0.66684794  1
  O  O232  1  0.25890279  0.73120505  0.09229390  1
  O  O233  1  0.27960411  0.74987302  0.60057518  1
  O  O234  1  0.77316671  0.19883058  0.11739922  1
  O  O235  1  0.71671566  0.20995923  0.45469015  1
  O  O236  1  0.77757600  0.70135000  0.13240179  1
  O  O237  1  0.76507499  0.76389621  0.64105854  1
  O  O238  1  0.19718271  0.31837002  0.41954997  1
  O  O239  1  0.24084888  0.23292568  0.85531579  1
  O  O240  1  0.19704303  0.80183629  0.37155086  1
  O  O241  1  0.27616746  0.75891977  0.90110247  1
  O  O242  1  0.77261832  0.25358287  0.31133568  1
  O  O243  1  0.77305076  0.21393618  0.88656462  1
  O  O244  1  0.77977185  0.71322125  0.39333508  1
  O  O245  1  0.75982324  0.73712569  0.87034886  1
  O  O246  1  0.00757425  0.06765833  0.00033368  1
  O  O247  1  0.00790383  0.13448345  0.53691282  1
  O  O248  1  0.00348382  0.66076195  -0.00949866  1
  O  O249  1  0.00712404  0.61895686  0.48185781  1
  O  O250  1  0.51583102  0.15318917  -0.05830536  1
  O  O251  1  0.47529021  0.12786241  0.51528805  1
  O  O252  1  0.58386803  0.55670816  -0.12290238  1
  O  O253  1  0.49453107  0.63120213  0.48294648  1
  O  O254  1  0.46017353  0.40757491  0.49523704  1
  O  O255  1  0.53222634  0.35381516  0.96555024  1
  O  O256  1  0.49955181  0.90612922  0.49943639  1
  O  O257  1  0.50653824  0.88797200  0.95753952  1
  O  O258  1  0.90278498  0.36354415  0.49297108  1
  O  O259  1  1.04171290  0.34893488  1.04886574  1
  O  O260  1  0.93803322  0.98057201  0.39796221  1
  O  O261  1  0.97984839  0.84276789  1.02202214  1
  O  O262  1  0.43815869  0.49173174  0.36336771  1
  O  O263  1  0.58949004  0.48862182  0.90682535  1
  O  O264  1  0.47721922  1.03146267  0.39131942  1
  O  O265  1  0.50202536  1.00120791  0.85513871  1
  O  O266  1  1.02963468  0.34309142  0.37792158  1
  O  O267  1  1.04750832  0.55507149  0.92262286  1
  O  O268  1  1.04566592  1.05195955  0.38594785  1
  O  O269  1  1.07519999  1.04793199  0.97036855  1
  O  O270  1  -0.07591255  0.04911797  0.18009890  1
  O  O271  1  0.00245377  -0.03139213  0.60686103  1
  O  O272  1  -0.01531576  0.48663820  0.06084067  1
  O  O273  1  -0.04661934  0.44258087  0.63459000  1
  O  O274  1  0.53927885  -0.03274243  0.15459864  1
  O  O275  1  0.51579982  0.03337709  0.61428145  1
  O  O276  1  0.54968462  0.56594040  0.05465820  1
  O  O277  1  0.52476117  0.43362981  0.65356415  1
  O  O278  1  0.25563737  0.40027048  0.23324231  1
  O  O279  1  0.26406062  0.38214196  0.77850978  1
  O  O280  1  0.21206732  0.90008770  0.23338909  1
  O  O281  1  0.26208010  0.86980110  0.72891666  1
  O  O282  1  0.73242004  0.40713782  0.21312718  1
  O  O283  1  0.78918724  0.39321155  0.72713659  1
  O  O284  1  0.78920741  0.96635330  0.26889851  1
  O  O285  1  0.73640912  0.87612306  0.76126894  1
  O  O286  1  0.25755799  0.11012557  0.26725557  1
  O  O287  1  0.27007116  0.10979721  0.75686563  1
  O  O288  1  0.22237605  0.67470309  0.27386984  1
  O  O289  1  0.20327649  0.62497726  0.69372647  1
  O  O290  1  0.74867758  0.07471940  0.37340778  1
  O  O291  1  0.77816788  0.09720260  0.77898878  1
  O  O292  1  0.77808495  0.59655429  0.25945532  1
  O  O293  1  0.71425483  0.58573059  0.72040884  1
  O  O294  1  0.35416021  0.12605997  0.38802027  1
  O  O295  1  0.37541390  0.12221442  0.84854858  1
  O  O296  1  0.32246561  0.70216165  0.38957707  1
  O  O297  1  0.38855668  0.66128820  0.88374547  1
  O  O298  1  0.89379072  0.15235655  0.38000258  1
  O  O299  1  0.87467261  0.09027848  0.88692764  1
  O  O300  1  0.86513368  0.59041370  0.37619857  1
  O  O301  1  0.89631930  0.61673356  0.84590566  1
  O  O302  1  0.17962293  0.39224982  0.11230012  1
  O  O303  1  0.14720474  0.36662316  0.67642305  1
  O  O304  1  0.12266627  0.82739788  0.12270622  1
  O  O305  1  0.13190829  0.88617080  0.63117706  1
  O  O306  1  0.65204920  0.35346695  0.10661973  1
  O  O307  1  0.73604260  0.26566630  0.61915477  1
  O  O308  1  0.62929733  0.88967182  0.05346198  1
  O  O309  1  0.64089795  0.86363884  0.64457010  1
  O  O310  1  0.13829524  0.25799834  0.25493436  1
  O  O311  1  0.10277268  0.23087684  0.75514265  1
  O  O312  1  0.08720616  0.77140099  0.25600105  1
  O  O313  1  0.12459115  0.77881133  0.72806382  1
  O  O314  1  0.61629655  0.29919441  0.26436169  1
  O  O315  1  0.78730684  0.22172526  0.64048603  1
  O  O316  1  0.64752335  0.72949500  0.29007734  1
  O  O317  1  0.62894212  0.75352580  0.75303246  1
  O  O318  1  0.31029924  0.27534479  0.30671745  1
  O  O319  1  0.39841018  0.25891064  0.76348855  1
  O  O320  1  0.38009556  0.73259484  0.21002218  1
  O  O321  1  0.36279220  0.72751394  0.72628851  1
  O  O322  1  0.90715636  0.21878484  0.21814373  1
  O  O323  1  0.92684499  0.18243715  0.77719008  1
  O  O324  1  0.84510909  0.75386931  0.25795426  1
  O  O325  1  0.90664940  0.75812097  0.77064778  1
  O  O326  1  0.27007369  0.57093112  0.47814437  1
  O  O327  1  0.41091670  0.45907553  0.98404779  1
  O  O328  1  0.41076008  0.97488856  0.52412963  1
  O  O329  1  0.38969588  0.97276664  1.06000668  1
  O  O330  1  0.93290987  0.49593177  0.58718126  1
  O  O331  1  0.95591925  0.46983464  0.99818009  1
  O  O332  1  0.87369074  1.16042792  0.44575257  1
  O  O333  1  0.87656395  0.95701804  1.03085474  1
  O  O334  1  0.09768533  -0.02506546  -0.01161588  1
  O  O335  1  -0.00793981  0.01696343  0.43146206  1
  O  O336  1  0.06401288  0.59976611  -0.02495965  1
  O  O337  1  0.12867312  0.55135954  0.54284012  1
  O  O338  1  0.62126656  0.01637099  -0.01606944  1
  O  O339  1  0.60146600  0.01495675  0.48145424  1
  O  O340  1  0.58291830  0.50597798  0.07157710  1
  O  O341  1  0.61431079  0.53667881  0.51585750  1
  O  O342  1  0.38338756  0.36910196  0.15247104  1
  O  O343  1  0.36913750  0.36976258  0.66152354  1
  O  O344  1  0.37086328  0.80311068  0.17832739  1
  O  O345  1  0.41743227  0.84860022  0.64222655  1
  O  O346  1  0.85497914  0.36743681  0.13182725  1
  O  O347  1  0.85981251  0.32902153  0.53648338  1
  O  O348  1  0.85613327  0.85708286  0.13984284  1
  O  O349  1  0.85855955  0.86656921  0.62889631  1
  O  O350  1  0.08891924  0.21205355  0.28104739  1
  O  O351  1  0.15902392  0.11927150  0.86676844  1
  O  O352  1  0.11525534  0.69397678  0.40181581  1
  O  O353  1  0.18469120  0.66876097  0.84803648  1
  O  O354  1  0.68417220  0.08000971  0.33885954  1
  O  O355  1  0.64965697  0.11812483  0.87636239  1
  O  O356  1  0.65292296  0.64455951  0.41957443  1
  O  O357  1  0.63324232  0.60865282  0.89536303  1
