# generated using pymatgen
data_V51Zn51O256
_symmetry_space_group_name_H-M   'P 1'
_cell_length_a   17.47827130
_cell_length_b   17.62078617
_cell_length_c   17.34997441
_cell_angle_alpha   89.16527784
_cell_angle_beta   87.05883711
_cell_angle_gamma   90.75312970
_symmetry_Int_Tables_number   1
_chemical_formula_structural   V51Zn51O256
_chemical_formula_sum   'V51 Zn51 O256'
_cell_volume   5335.33908893
_cell_formula_units_Z   1
loop_
 _symmetry_equiv_pos_site_id
 _symmetry_equiv_pos_as_xyz
  1  'x, y, z'
loop_
 _atom_site_type_symbol
 _atom_site_label
 _atom_site_symmetry_multiplicity
 _atom_site_fract_x
 _atom_site_fract_y
 _atom_site_fract_z
 _atom_site_occupancy
  V  V0  1  0.67601965  0.14395509  0.00228979  1
  V  V1  1  0.74380683  -0.01881464  0.24290219  1
  V  V2  1  0.13470697  0.86540774  0.76363821  1
  V  V3  1  0.41344150  0.23541703  0.60838607  1
  V  V4  1  0.86652790  0.72396586  0.11641420  1
  V  V5  1  0.60064584  0.51468313  0.63620820  1
  V  V6  1  0.21592071  0.35559555  0.62218228  1
  V  V7  1  0.45932152  0.25499741  0.24083624  1
  V  V8  1  0.25047024  -0.02367052  0.72353965  1
  V  V9  1  0.49470016  0.38749882  0.35141640  1
  V  V10  1  0.01989497  0.89080296  0.35648182  1
  V  V11  1  0.74745646  0.62802043  0.36564837  1
  V  V12  1  0.09894962  0.13273671  0.48863192  1
  V  V13  1  0.24227388  0.23905696  0.49343649  1
  V  V14  1  0.89116743  0.52533885  0.88024374  1
  V  V15  1  0.60294577  0.74573581  0.39769665  1
  V  V16  1  0.89409534  0.13825549  0.22379074  1
  V  V17  1  0.12153423  -0.00705679  0.59688499  1
  V  V18  1  0.73431431  0.65102751  0.87930559  1
  V  V19  1  0.45430321  0.43598561  -0.02705885  1
  V  V20  1  0.12899718  0.51177414  0.59724891  1
  V  V21  1  0.88911061  0.76154541  0.61701492  1
  V  V22  1  0.37250715  0.50447188  0.34805046  1
  V  V23  1  0.33355789  0.92177977  -0.00316215  1
  V  V24  1  0.24551813  0.26139161  -0.04929458  1
  V  V25  1  0.51678343  0.24171737  0.78095308  1
  V  V26  1  0.22937548  0.64925985  0.02278825  1
  V  V27  1  0.49998527  0.72430121  0.76839779  1
  V  V28  1  0.62237004  0.04633611  0.13672158  1
  V  V29  1  0.02694801  0.65479700  0.57262378  1
  V  V30  1  0.77340563  -0.02090709  0.77465633  1
  V  V31  1  0.79261261  0.09994966  0.37530765  1
  V  V32  1  -0.00513308  0.11641331  0.64944467  1
  V  V33  1  0.19421930  0.46716226  0.25283142  1
  V  V34  1  0.00950252  0.74747290  0.76276879  1
  V  V35  1  0.66756969  0.28493384  0.90947183  1
  V  V36  1  0.69041956  0.22882055  0.37375727  1
  V  V37  1  0.01181135  0.68663846  0.25068045  1
  V  V38  1  0.23340052  0.60820281  0.38805612  1
  V  V39  1  0.60955344  0.38410706  0.75338429  1
  V  V40  1  0.72520411  0.53003258  0.75777816  1
  V  V41  1  0.37601836  0.36211654  0.50544649  1
  V  V42  1  0.59247850  0.78573692  0.91408841  1
  V  V43  1  0.48410616  0.48270197  0.53625827  1
  V  V44  1  0.36062999  0.12051358  0.73403678  1
  V  V45  1  0.23613665  0.49305286  0.74790005  1
  V  V46  1  0.59998965  0.89233266  0.76484892  1
  V  V47  1  0.85167137  0.86089102  0.46866411  1
  V  V48  1  0.73422356  0.87225302  0.63041126  1
  V  V49  1  0.62212584  0.52656937  0.13467440  1
  V  V50  1  -0.03468104  0.46556934  0.52501559  1
  Zn  Zn51  1  0.90155437  0.87814518  0.20147049  1
  Zn  Zn52  1  0.65923977  0.45408841  0.43921940  1
  Zn  Zn53  1  0.27622118  0.09976392  0.06363842  1
  Zn  Zn54  1  0.52139688  0.23006797  0.44515603  1
  Zn  Zn55  1  0.72134429  0.46737201  0.95090892  1
  Zn  Zn56  1  0.30546180  0.07055978  0.56063126  1
  Zn  Zn57  1  0.95985882  0.93007532  0.69561370  1
  Zn  Zn58  1  0.57119889  0.78123186  0.59923479  1
  Zn  Zn59  1  0.43486194  0.45221634  0.16783932  1
  Zn  Zn60  1  0.29389279  0.53778806  0.52681038  1
  Zn  Zn61  1  0.03465552  0.70283684  0.05066169  1
  Zn  Zn62  1  0.04654554  0.28870630  0.57151903  1
  Zn  Zn63  1  1.09585206  0.13974728  0.99776983  1
  Zn  Zn64  1  0.65794211  0.97330853  0.92993123  1
  Zn  Zn65  1  0.17436756  0.97918732  0.90807459  1
  Zn  Zn66  1  0.07121688  0.11903876  0.82862898  1
  Zn  Zn67  1  0.28968242  0.49140553  0.07780943  1
  Zn  Zn68  1  0.57063325  0.55408241  0.85034179  1
  Zn  Zn69  1  0.08437594  0.14235920  0.16037334  1
  Zn  Zn70  1  0.80441074  0.79056436  0.77316305  1
  Zn  Zn71  1  0.30706849  0.32716788  0.31984938  1
  Zn  Zn72  1  0.79782118  0.37003764  0.81488716  1
  Zn  Zn73  1  0.43113352  1.09573538  0.13645467  1
  Zn  Zn74  1  0.15377234  0.66117392  0.70808943  1
  Zn  Zn75  1  0.17514068  0.17699919  0.68124362  1
  Zn  Zn76  1  0.76834743  0.80008056  0.29108179  1
  Zn  Zn77  1  0.57819047  0.31896668  0.07499565  1
  Zn  Zn78  1  0.19799255  0.42095339  0.43541931  1
  Zn  Zn79  1  0.00805370  0.08904111  0.34037374  1
  Zn  Zn80  1  0.68815004  0.15914909  0.22443759  1
  Zn  Zn81  1  0.04613183  0.53085875  0.34748541  1
  Zn  Zn82  1  0.38369909  0.76551689  0.92121062  1
  Zn  Zn83  1  0.83810606  0.03637301  0.56439444  1
  Zn  Zn84  1  0.81137353  0.45247727  0.64008834  1
  Zn  Zn85  1  0.41355616  0.41385310  0.77998150  1
  Zn  Zn86  1  0.57310983  0.56493226  0.34384356  1
  Zn  Zn87  1  0.03035209  0.84803042  0.53163679  1
  Zn  Zn88  1  0.10999887  0.31140999  0.07455163  1
  Zn  Zn89  1  0.44175825  0.64535553  0.42926629  1
  Zn  Zn90  1  0.41198261  0.15496478  0.92795592  1
  Zn  Zn91  1  0.69476010  0.70894225  0.04861774  1
  Zn  Zn92  1  0.15659455  0.76677027  0.33185132  1
  Zn  Zn93  1  0.21163536  0.65496351  0.22003850  1
  Zn  Zn94  1  0.91837225  0.68837342  0.42669987  1
  Zn  Zn95  1  0.17860740  0.46266047  0.94832093  1
  Zn  Zn96  1  0.80856098  0.05006197  0.08485419  1
  Zn  Zn97  1  0.89172355  0.70596636  0.91887355  1
  Zn  Zn98  1  0.01507957  0.54166837  0.72414935  1
  Zn  Zn99  1  0.86411366  0.28569204  0.32182990  1
  Zn  Zn100  1  0.82831162  0.56584381  0.04363163  1
  Zn  Zn101  1  0.65152125  0.09421585  0.73108896  1
  O  O102  1  0.12784146  -0.00269415  0.20063075  1
  O  O103  1  0.11048477  0.11291487  0.61961087  1
  O  O104  1  -0.05200049  0.41942216  0.10388375  1
  O  O105  1  0.12930599  0.61405103  0.59054719  1
  O  O106  1  0.64279374  0.14463107  0.11933375  1
  O  O107  1  0.67184196  0.10778233  0.60946944  1
  O  O108  1  0.63553009  0.62454237  0.11178800  1
  O  O109  1  0.59371081  0.60544958  0.63012918  1
  O  O110  1  0.37782663  0.39359516  0.38607073  1
  O  O111  1  0.40602221  0.41190792  0.89372161  1
  O  O112  1  0.36757670  0.87455381  0.39606122  1
  O  O113  1  0.37464265  0.88643092  0.90311066  1
  O  O114  1  0.78765103  0.43440574  0.34516850  1
  O  O115  1  0.82666612  0.44628519  0.88903320  1
  O  O116  1  0.82278019  0.84876331  0.37865997  1
  O  O117  1  0.89656772  0.90389388  1.02878349  1
  O  O118  1  0.26252767  0.13812719  0.26249382  1
  O  O119  1  0.22837803  0.01455705  0.81009600  1
  O  O120  1  0.27770582  0.50448691  0.41005505  1
  O  O121  1  0.19814818  0.48080958  0.84012827  1
  O  O122  1  0.75892055  0.00966440  0.34576372  1
  O  O123  1  0.75615206  -0.02421295  0.87337878  1
  O  O124  1  0.67265635  0.55804844  0.39254915  1
  O  O125  1  0.68967152  0.54284824  0.86967714  1
  O  O126  1  0.22627267  0.44800217  0.15984388  1
  O  O127  1  0.22908024  0.48578856  0.60684909  1
  O  O128  1  0.32526768  1.05930111  0.14882177  1
  O  O129  1  0.22975730  1.01138130  0.62070979  1
  O  O130  1  0.71536646  0.51203884  0.16157928  1
  O  O131  1  0.70633268  0.50673056  0.65261710  1
  O  O132  1  0.71828744  0.99359126  0.13228360  1
  O  O133  1  0.76534159  0.96445046  0.63027354  1
  O  O134  1  -0.04633149  0.33094417  0.37172073  1
  O  O135  1  -0.01495849  0.30641029  0.76002782  1
  O  O136  1  -0.01304231  0.87711560  0.26642171  1
  O  O137  1  0.02708405  0.85267491  0.74443374  1
  O  O138  1  0.48454846  0.39834202  0.25417777  1
  O  O139  1  0.50223271  0.35115928  0.76101792  1
  O  O140  1  0.44102520  0.87828979  0.20386191  1
  O  O141  1  0.51238897  0.91314091  0.75066445  1
  O  O142  1  0.44752206  0.16004284  0.22642832  1
  O  O143  1  0.57219921  0.16674637  0.75003438  1
  O  O144  1  0.43402745  0.69575732  0.23909685  1
  O  O145  1  0.52229263  0.63402270  0.79612557  1
  O  O146  1  1.00077104  0.11897391  0.23104424  1
  O  O147  1  1.00347795  0.09853373  0.74698507  1
  O  O148  1  1.00124625  0.59209869  0.26560277  1
  O  O149  1  1.03553482  0.65525696  0.71654576  1
  O  O150  1  0.34670912  0.25648660  -0.04630113  1
  O  O151  1  0.35785751  0.25569669  0.50516707  1
  O  O152  1  0.35072939  0.82482753  0.02629868  1
  O  O153  1  0.39939851  0.73904042  0.49571437  1
  O  O154  1  0.88150008  0.30510900  0.00320568  1
  O  O155  1  0.84489468  0.27399205  0.60519454  1
  O  O156  1  0.93084155  0.71850135  0.02074559  1
  O  O157  1  0.87264077  0.76124085  0.51350606  1
  O  O158  1  0.13258120  0.23552474  0.50573347  1
  O  O159  1  0.14405456  0.24418573  0.94476595  1
  O  O160  1  0.24857976  0.80244215  0.50415407  1
  O  O161  1  0.13740199  0.68538238  1.01789898  1
  O  O162  1  0.62751453  0.26493559  0.44259440  1
  O  O163  1  0.64313094  0.24942876  1.01273658  1
  O  O164  1  0.59389172  0.76449168  0.49507447  1
  O  O165  1  0.63616761  0.78684669  0.99996118  1
  O  O166  1  0.52001036  0.28248294  0.16427209  1
  O  O167  1  0.49768540  0.22652704  0.55849930  1
  O  O168  1  0.64253375  0.77379885  0.16960319  1
  O  O169  1  0.49761899  0.73864145  0.66936943  1
  O  O170  1  1.06101952  0.21391423  0.07381977  1
  O  O171  1  0.99820720  0.21556768  0.64100986  1
  O  O172  1  0.98164763  0.71429548  0.15682848  1
  O  O173  1  1.05649508  0.74702235  0.57459184  1
  O  O174  1  0.01663897  0.28335989  0.36320818  1
  O  O175  1  0.00618508  0.17931189  0.91781595  1
  O  O176  1  -0.03237958  0.72770323  0.33062982  1
  O  O177  1  -0.00885667  0.73118735  0.85721415  1
  O  O178  1  0.48631363  0.27908570  0.34607728  1
  O  O179  1  0.48377289  0.22464363  0.87144766  1
  O  O180  1  0.54043821  0.66693694  0.37499418  1
  O  O181  1  0.49977683  0.76592394  0.93865979  1
  O  O182  1  0.24932143  0.14280800  0.49678708  1
  O  O183  1  0.25413305  0.15992576  0.96427265  1
  O  O184  1  0.26135982  0.63227590  0.47999856  1
  O  O185  1  0.23471054  0.54714872  1.00132018  1
  O  O186  1  0.80374734  0.08763123  0.47023389  1
  O  O187  1  0.77093369  0.13290403  1.01479978  1
  O  O188  1  0.76408469  0.63556355  0.57507135  1
  O  O189  1  0.75010373  0.63241428  0.97906250  1
  O  O190  1  0.24777121  0.36207254  -0.05284166  1
  O  O191  1  0.25742552  0.36257271  0.51456763  1
  O  O192  1  0.24016584  0.90085284  -0.03892392  1
  O  O193  1  0.38083652  0.89453927  0.55510727  1
  O  O194  1  0.78088916  0.46899211  0.04176215  1
  O  O195  1  0.74867269  0.39033553  0.40295769  1
  O  O196  1  0.83211312  0.93772244  0.05035815  1
  O  O197  1  0.75571122  0.85189785  0.53307289  1
  O  O198  1  0.09733309  0.47144963  0.26365179  1
  O  O199  1  0.11378639  0.49208360  0.69878937  1
  O  O200  1  0.17563255  0.99243966  0.25015295  1
  O  O201  1  0.13399119  0.95640781  0.71145356  1
  O  O202  1  0.60045041  0.54627034  0.23404452  1
  O  O203  1  0.58612953  0.48988754  0.74734769  1
  O  O204  1  0.64259933  1.04639424  0.23787620  1
  O  O205  1  0.64468073  0.98392364  0.76293269  1
  O  O206  1  0.40271499  -0.01184693  0.32333174  1
  O  O207  1  0.34706637  0.01869038  0.71055834  1
  O  O208  1  0.36519092  0.49072791  0.25234997  1
  O  O209  1  0.33439362  0.47951050  0.75344148  1
  O  O210  1  0.83969723  -0.03117778  0.21583611  1
  O  O211  1  0.86901207  -0.04462228  0.75579648  1
  O  O212  1  0.83548268  0.39782760  0.29926376  1
  O  O213  1  0.81977756  0.50989671  0.74266189  1
  O  O214  1  0.08101638  0.31669726  0.35431280  1
  O  O215  1  0.05564377  0.38881678  0.87253304  1
  O  O216  1  0.11206152  0.85401157  0.36630745  1
  O  O217  1  0.12788613  0.88744500  0.85755529  1
  O  O218  1  0.58852791  0.40783982  0.36554866  1
  O  O219  1  0.65896036  0.37678379  0.93911375  1
  O  O220  1  0.57319287  0.81814370  0.34932134  1
  O  O221  1  0.60656879  0.88748573  0.88234473  1
  O  O222  1  0.38891874  0.13379583  0.03601136  1
  O  O223  1  0.36945213  0.14204075  0.61662797  1
  O  O224  1  0.42561467  0.69292041  0.10027329  1
  O  O225  1  0.37859282  0.72759804  0.56527737  1
  O  O226  1  0.88857060  0.10878524  0.12963716  1
  O  O227  1  0.90145948  0.09003318  0.63060386  1
  O  O228  1  0.84300664  0.63052140  0.12899794  1
  O  O229  1  0.92744309  0.66799611  0.61300798  1
  O  O230  1  0.22511481  0.27783235  0.05320466  1
  O  O231  1  0.23403804  0.25546890  0.61525054  1
  O  O232  1  0.25510926  0.65507900  0.11772502  1
  O  O233  1  0.25586092  0.79272028  0.57343640  1
  O  O234  1  0.75145644  0.31543106  0.11574383  1
  O  O235  1  0.82879223  0.27798611  0.67499008  1
  O  O236  1  0.79032288  0.75917843  0.07024614  1
  O  O237  1  0.79359335  0.78049326  0.65399629  1
  O  O238  1  0.25381483  0.26120085  0.39831317  1
  O  O239  1  0.24606962  0.26352026  0.85014162  1
  O  O240  1  0.23852596  0.69707901  0.33106971  1
  O  O241  1  0.29702715  0.69847986  0.96432662  1
  O  O242  1  0.79337672  0.22329401  0.38352401  1
  O  O243  1  0.76182696  0.28310290  0.87927939  1
  O  O244  1  0.70265436  0.72633561  0.35763393  1
  O  O245  1  0.79387279  0.74063024  0.87046637  1
  O  O246  1  -0.00781100  0.04506417  0.02917934  1
  O  O247  1  0.00665449  0.12793329  0.51673167  1
  O  O248  1  0.05321273  0.54466199  0.05043182  1
  O  O249  1  0.00667563  0.64468437  0.47941627  1
  O  O250  1  0.51378846  0.08171555  -0.06772465  1
  O  O251  1  0.48512682  0.11759333  0.42417149  1
  O  O252  1  0.48423091  0.73219603  0.09441279  1
  O  O253  1  0.47713860  0.57522293  0.50820122  1
  O  O254  1  0.48144948  0.38588709  0.48203441  1
  O  O255  1  0.50656223  0.36247440  1.00439495  1
  O  O256  1  0.43549304  0.89277490  0.38844652  1
  O  O257  1  0.42075514  0.96864561  0.99201829  1
  O  O258  1  0.98682101  0.37216555  0.53619545  1
  O  O259  1  1.01017602  0.35996660  0.92137920  1
  O  O260  1  0.96570474  0.85123569  0.44162524  1
  O  O261  1  1.08893653  0.88234969  1.03938287  1
  O  O262  1  0.47493681  0.50198038  0.36575952  1
  O  O263  1  0.51507555  0.50785125  0.93787086  1
  O  O264  1  0.41088544  1.10606765  0.44135267  1
  O  O265  1  0.53294332  1.03365213  0.88328648  1
  O  O266  1  0.97986937  0.49495773  0.43089768  1
  O  O267  1  0.96923397  0.50869865  0.81858746  1
  O  O268  1  1.02533040  0.98510674  0.36982709  1
  O  O269  1  0.91335095  1.09204744  0.89399332  1
  O  O270  1  0.18039893  -0.15327765  0.16178153  1
  O  O271  1  0.02066636  -0.00033494  0.62534774  1
  O  O272  1  -0.01101778  0.37254932  0.13432938  1
  O  O273  1  0.00955373  0.52897001  0.60045265  1
  O  O274  1  0.52532827  0.03303294  0.13312495  1
  O  O275  1  0.58285186  0.01734062  0.59142895  1
  O  O276  1  0.51879683  0.52899719  0.13070762  1
  O  O277  1  0.49212539  0.48245238  0.63539649  1
  O  O278  1  0.21811089  0.39679786  0.32344618  1
  O  O279  1  0.23343449  0.38425222  0.71323178  1
  O  O280  1  0.33612902  0.96611317  0.33336647  1
  O  O281  1  0.24490546  0.87692301  0.73997439  1
  O  O282  1  0.79130264  0.35146555  0.15915462  1
  O  O283  1  0.70031503  0.42029005  0.78738191  1
  O  O284  1  0.71058113  0.89208346  0.26109831  1
  O  O285  1  0.73713426  0.87457950  0.74833192  1
  O  O286  1  0.16498596  0.10699936  0.08606972  1
  O  O287  1  0.27183149  0.15364122  0.73781754  1
  O  O288  1  0.22950463  0.55883351  0.27569859  1
  O  O289  1  0.23013842  0.59103715  0.72803207  1
  O  O290  1  0.78764210  0.11726811  0.24810040  1
  O  O291  1  0.76010349  0.07249699  0.74593731  1
  O  O292  1  0.77974842  0.61384569  0.27808070  1
  O  O293  1  0.72674269  0.62896780  0.76419917  1
  O  O294  1  0.29282208  0.11564989  0.32034438  1
  O  O295  1  0.38585906  0.11308565  0.82860124  1
  O  O296  1  0.36813435  0.60494981  0.35991791  1
  O  O297  1  0.33724462  0.60730207  0.84231330  1
  O  O298  1  0.89321972  0.10606787  0.33557102  1
  O  O299  1  0.92907154  0.15356837  0.92734688  1
  O  O300  1  0.82477385  0.63232846  0.42248878  1
  O  O301  1  0.84709977  0.61132292  0.85831777  1
  O  O302  1  0.13210976  0.30321064  0.19328851  1
  O  O303  1  0.12001912  0.35811339  0.62089317  1
  O  O304  1  0.21697209  0.84470626  0.22124860  1
  O  O305  1  0.11890446  0.90104247  0.56407488  1
  O  O306  1  0.61080018  0.42495576  0.13914791  1
  O  O307  1  0.63193038  0.36212033  0.66426940  1
  O  O308  1  0.59754343  0.82610572  0.16091375  1
  O  O309  1  0.63147973  0.86043124  0.65128738  1
  O  O310  1  0.14007210  0.23623671  0.22094369  1
  O  O311  1  0.12440681  0.20116342  0.77720017  1
  O  O312  1  0.11282074  0.70710603  0.24672254  1
  O  O313  1  0.12945401  0.76127407  0.75095125  1
  O  O314  1  0.66724158  0.25071842  0.27996423  1
  O  O315  1  0.61482555  0.29376856  0.81706548  1
  O  O316  1  0.49598686  0.72868343  0.22990979  1
  O  O317  1  0.58224593  0.78414429  0.79432697  1
  O  O318  1  0.36817102  0.29254367  0.23329313  1
  O  O319  1  0.43093602  0.21838806  0.71642514  1
  O  O320  1  0.37824401  0.84910707  0.22163115  1
  O  O321  1  0.41256552  0.74610177  0.81323841  1
  O  O322  1  0.89216988  0.23582937  0.22527262  1
  O  O323  1  0.94296454  0.26600989  0.80200171  1
  O  O324  1  0.84664621  0.77799244  0.20855626  1
  O  O325  1  0.91376100  0.75627261  0.73098955  1
  O  O326  1  0.37684349  0.46676504  0.53537195  1
  O  O327  1  0.37708477  0.57444987  0.88722979  1
  O  O328  1  0.39352929  1.04171483  0.48220234  1
  O  O329  1  0.28826446  1.01491213  0.97999696  1
  O  O330  1  0.86836340  0.47356221  0.54830915  1
  O  O331  1  0.91636159  0.54329554  0.97298318  1
  O  O332  1  0.86620997  0.95149439  0.49396212  1
  O  O333  1  0.97252555  1.00889516  0.97281097  1
  O  O334  1  0.10961751  -0.05002261  0.03455496  1
  O  O335  1  0.13345499  0.03463228  0.50190182  1
  O  O336  1  0.12192848  0.40546102  0.02696446  1
  O  O337  1  0.12146777  0.46781740  0.50730284  1
  O  O338  1  0.63992826  0.04476249  0.01383525  1
  O  O339  1  0.63622774  0.06041200  0.56212312  1
  O  O340  1  0.63768023  0.51470555  0.03452290  1
  O  O341  1  0.59813156  0.47705331  0.53434031  1
  O  O342  1  0.39347949  0.45763851  0.06319558  1
  O  O343  1  0.38796079  0.33402235  0.61361653  1
  O  O344  1  0.31699362  0.92443552  0.09541861  1
  O  O345  1  0.45079256  0.90065835  0.54583704  1
  O  O346  1  0.91534871  0.26498260  0.04799011  1
  O  O347  1  0.83533760  0.36284917  0.70659958  1
  O  O348  1  0.93809060  0.87472819  0.08653383  1
  O  O349  1  0.93782513  0.85001873  0.61043223  1
  O  O350  1  0.09490346  0.13491560  0.39000195  1
  O  O351  1  0.11737471  0.07057314  0.91591110  1
  O  O352  1  0.13888403  0.58598495  0.39766814  1
  O  O353  1  0.06691742  0.53685295  0.98043179  1
  O  O354  1  0.68263172  0.13068577  0.38042432  1
  O  O355  1  0.66493790  0.16247191  0.90613093  1
  O  O356  1  0.71521625  0.67138013  0.54252869  1
  O  O357  1  0.64477241  0.69231707  0.88807295  1
