# generated using pymatgen
data_V51Zn51O256
_symmetry_space_group_name_H-M   'P 1'
_cell_length_a   17.07195382
_cell_length_b   17.21916860
_cell_length_c   17.17016804
_cell_angle_alpha   90.09455983
_cell_angle_beta   89.65265325
_cell_angle_gamma   90.49262911
_symmetry_Int_Tables_number   1
_chemical_formula_structural   V51Zn51O256
_chemical_formula_sum   'V51 Zn51 O256'
_cell_volume   5047.14013050
_cell_formula_units_Z   1
loop_
 _symmetry_equiv_pos_site_id
 _symmetry_equiv_pos_as_xyz
  1  'x, y, z'
loop_
 _atom_site_type_symbol
 _atom_site_label
 _atom_site_symmetry_multiplicity
 _atom_site_fract_x
 _atom_site_fract_y
 _atom_site_fract_z
 _atom_site_occupancy
  V  V0  1  0.49382920  0.63046134  0.64592211  1
  V  V1  1  0.63239459  0.00804055  0.10832005  1
  V  V2  1  0.36360511  0.49146668  0.83792289  1
  V  V3  1  0.12739169  0.01641804  0.11818510  1
  V  V4  1  0.26341404  0.76277307  0.49440696  1
  V  V5  1  0.88220467  0.87145425  -0.00177317  1
  V  V6  1  0.39640665  0.78098590  0.62752309  1
  V  V7  1  0.67102017  0.72892748  0.38254957  1
  V  V8  1  0.48911764  0.25276861  0.28167251  1
  V  V9  1  0.14451479  0.74826705  0.34368680  1
  V  V10  1  0.61410955  0.88795673  0.73065779  1
  V  V11  1  0.10861979  0.36367197  0.75683104  1
  V  V12  1  0.01984814  0.49222804  -0.01364651  1
  V  V13  1  0.86128606  0.38879324  0.00625038  1
  V  V14  1  0.60388638  0.12323389  -0.00893704  1
  V  V15  1  -0.00419208  0.33796537  0.89135525  1
  V  V16  1  0.36927061  0.87023443  -0.01941431  1
  V  V17  1  0.13473327  0.13796922  0.49230164  1
  V  V18  1  0.75756693  0.26630690  0.51146294  1
  V  V19  1  0.11479125  0.63916961  0.49025308  1
  V  V20  1  0.49031498  0.49404605  0.00473251  1
  V  V21  1  0.12071977  0.65082921  -0.00154991  1
  V  V22  1  0.64926136  0.22250882  0.37796205  1
  V  V23  1  0.78336427  0.36751022  0.65057366  1
  V  V24  1  0.62167655  0.63284041  0.01967507  1
  V  V25  1  0.00091608  0.87779300  0.35515813  1
  V  V26  1  -0.00338636  0.24262898  0.23930446  1
  V  V27  1  0.74075895  0.11786582  0.87876218  1
  V  V28  1  0.14561153  0.26004791  0.36526467  1
  V  V29  1  0.22801012  0.01087171  0.73732721  1
  V  V30  1  0.11599437  -0.03057404  0.60430275  1
  V  V31  1  0.75146098  -0.00086327  0.73952746  1
  V  V32  1  0.23885807  0.23855878  0.01360139  1
  V  V33  1  0.62208275  0.60219758  0.51059244  1
  V  V34  1  -0.00758541  0.59774311  0.13655100  1
  V  V35  1  0.26099271  0.40013952  0.11191200  1
  V  V36  1  0.84442927  0.24420240  0.12063798  1
  V  V37  1  0.89123739  0.75838113  0.13203897  1
  V  V38  1  0.88150891  0.02372894  0.34123361  1
  V  V39  1  0.37624942  0.22161139  0.11487729  1
  V  V40  1  0.27855132  0.01645907  0.25322612  1
  V  V41  1  0.89738104  -0.00699488  0.87586837  1
  V  V42  1  0.60555075  0.76333107  0.88258547  1
  V  V43  1  0.72909603  0.61913707  0.85207468  1
  V  V44  1  0.14448805  0.89117852  0.23685625  1
  V  V45  1  0.52129538  0.89192343  0.37850540  1
  V  V46  1  0.37316138  0.25447015  0.61353030  1
  V  V47  1  -0.01051004  0.00758141  0.48477937  1
  V  V48  1  0.74256096  0.87284159  0.12363514  1
  V  V49  1  0.76861771  0.78009813  0.52822956  1
  V  V50  1  -0.02585300  0.37259320  0.36601112  1
  Zn  Zn51  1  0.71281625  0.55618863  0.65932192  1
  Zn  Zn52  1  0.06322030  0.31293845  0.54700894  1
  Zn  Zn53  1  0.95092735  0.72639200  0.44588703  1
  Zn  Zn54  1  0.09739195  0.76707329  0.12637643  1
  Zn  Zn55  1  0.78508392  0.32796939  0.85488040  1
  Zn  Zn56  1  0.78521216  0.87622956  0.32929183  1
  Zn  Zn57  1  0.31667183  0.05154826  0.06956206  1
  Zn  Zn58  1  0.29357554  0.62022649  0.58736774  1
  Zn  Zn59  1  0.17927154  0.40467854  0.94004314  1
  Zn  Zn60  1  0.07154107  0.07347406  0.30495479  1
  Zn  Zn61  1  0.42642268  0.67059080  0.92261646  1
  Zn  Zn62  1  0.81859656  0.05573003  0.05489754  1
  Zn  Zn63  1  0.93954073  0.18426865  0.43208989  1
  Zn  Zn64  1  0.57055879  0.07247395  0.28989716  1
  Zn  Zn65  1  0.29340408  0.86822124  0.35149846  1
  Zn  Zn66  1  0.14135733  0.53488814  0.84705806  1
  Zn  Zn67  1  0.83752114  0.65599339  -0.00219096  1
  Zn  Zn68  1  0.40956611  0.90939518  0.76880047  1
  Zn  Zn69  1  0.45336776  0.69662197  0.43380032  1
  Zn  Zn70  1  0.28708486  0.54866223  -0.02089391  1
  Zn  Zn71  1  0.07578408  -0.06530312  0.80479029  1
  Zn  Zn72  1  0.88533348  0.19652494  0.93155984  1
  Zn  Zn73  1  0.32439465  0.19131873  0.41241081  1
  Zn  Zn74  1  0.77626692  0.82776442  0.84120416  1
  Zn  Zn75  1  0.19524804  0.95251467  0.93618437  1
  Zn  Zn76  1  0.66874405  0.70244181  0.18137786  1
  Zn  Zn77  1  0.67079517  0.71581091  0.69201589  1
  Zn  Zn78  1  0.02630356  0.58648762  0.33478728  1
  Zn  Zn79  1  0.90802034  0.96448835  0.65986823  1
  Zn  Zn80  1  0.66481669  0.45136122  0.95120938  1
  Zn  Zn81  1  0.29521837  0.30279772  0.80144707  1
  Zn  Zn82  1  0.57373694  0.80499830  0.55168219  1
  Zn  Zn83  1  0.97620755  0.39141451  0.15649621  1
  Zn  Zn84  1  0.09435949  0.45037536  0.43488787  1
  Zn  Zn85  1  0.19033719  0.18058610  0.20274951  1
  Zn  Zn86  1  0.71836545  0.46818949  0.49680825  1
  Zn  Zn87  1  0.38358879  0.46780502  0.64758591  1
  Zn  Zn88  1  0.55508635  0.82334510  0.06118323  1
  Zn  Zn89  1  0.95178772  0.33538845  0.68530074  1
  Zn  Zn90  1  0.17758690  0.94474696  0.42802405  1
  Zn  Zn91  1  0.80664560  0.28167747  0.31039727  1
  Zn  Zn92  1  0.46463898  0.93564748  0.20072401  1
  Zn  Zn93  1  0.57935724  0.22100242  0.57686135  1
  Zn  Zn94  1  0.45469895  0.38365211  0.16910791  1
  Zn  Zn95  1  0.53511172  0.58494085  0.84532382  1
  Zn  Zn96  1  0.65375636  0.19923600  0.18263690  1
  Zn  Zn97  1  0.94822944  0.94077040  0.17507212  1
  Zn  Zn98  1  0.68964837  0.94214688  0.94048374  1
  Zn  Zn99  1  0.18625296  0.19857165  0.68291697  1
  Zn  Zn100  1  0.79561724  0.20306293  0.71754481  1
  Zn  Zn101  1  0.28790992  0.07022709  0.56417466  1
  O  O102  1  0.13210714  0.11557238  0.13079267  1
  O  O103  1  0.13238570  0.14981364  0.59467328  1
  O  O104  1  0.08248118  0.64470979  0.12537345  1
  O  O105  1  0.08595496  0.65237985  0.58005586  1
  O  O106  1  0.62815352  0.12263571  0.09742986  1
  O  O107  1  0.71171949  0.05284858  0.52171998  1
  O  O108  1  0.59438450  0.65837502  0.11515796  1
  O  O109  1  0.60685520  0.62842468  0.62005891  1
  O  O110  1  0.42768699  0.41994100  0.39931328  1
  O  O111  1  0.34574368  0.38962036  0.84534235  1
  O  O112  1  0.41021712  0.88589104  0.36459510  1
  O  O113  1  0.38720868  0.88643282  0.87868294  1
  O  O114  1  0.87544229  0.36942675  0.36267636  1
  O  O115  1  0.88491514  0.36239258  0.89734358  1
  O  O116  1  0.90071305  0.88681992  0.34849130  1
  O  O117  1  0.86320126  0.87621713  0.89160690  1
  O  O118  1  0.26220249  -0.01301218  0.35485702  1
  O  O119  1  0.18759569  -0.03728941  0.82923887  1
  O  O120  1  0.31686516  0.51934914  0.29545418  1
  O  O121  1  0.23677890  0.48953674  0.89126573  1
  O  O122  1  0.78819600  -0.01460035  0.36488950  1
  O  O123  1  0.74580867  0.00981254  0.86444800  1
  O  O124  1  0.72822429  0.46565832  0.37853990  1
  O  O125  1  0.70878672  0.52292727  0.86891833  1
  O  O126  1  0.28107628  0.49032624  0.08380636  1
  O  O127  1  0.29423866  0.50468241  0.57926605  1
  O  O128  1  0.24674818  1.00898330  0.14479998  1
  O  O129  1  0.22422435  1.00192126  0.62633117  1
  O  O130  1  0.80348791  0.57624258  0.25538660  1
  O  O131  1  0.72566040  0.44453661  0.67505910  1
  O  O132  1  0.73260786  1.00863756  0.12303944  1
  O  O133  1  0.80007815  1.00000626  0.65086639  1
  O  O134  1  0.00175792  0.35971651  0.26244032  1
  O  O135  1  -0.00211737  0.36323720  0.78447299  1
  O  O136  1  0.02396498  0.90009420  0.25408455  1
  O  O137  1  0.04484700  0.82614876  0.83970786  1
  O  O138  1  0.49350477  0.35390591  0.27026160  1
  O  O139  1  0.56255733  0.36721750  0.79706912  1
  O  O140  1  0.45152059  0.85439401  0.29756090  1
  O  O141  1  0.52244516  0.91806911  0.75929992  1
  O  O142  1  0.55391397  0.17450248  0.24475859  1
  O  O143  1  0.49071078  0.07524954  0.82038987  1
  O  O144  1  0.47191773  0.55248888  0.28664704  1
  O  O145  1  0.50864342  0.63451247  0.74239626  1
  O  O146  1  1.00333296  0.14438064  0.24532232  1
  O  O147  1  1.03279729  0.11860480  0.77332230  1
  O  O148  1  0.97658545  0.60399124  0.23470979  1
  O  O149  1  1.02678628  0.60569750  0.73192827  1
  O  O150  1  0.38066208  0.25106390  0.02331465  1
  O  O151  1  0.36619358  0.25444835  0.51000084  1
  O  O152  1  0.37999318  0.76885410  -0.03096116  1
  O  O153  1  0.35655474  0.74189543  0.45923273  1
  O  O154  1  0.86212949  0.26698852  0.01552366  1
  O  O155  1  0.84195891  0.21857203  0.49429077  1
  O  O156  1  0.85917596  0.76716920  0.02040158  1
  O  O157  1  0.86120576  0.73908534  0.50255349  1
  O  O158  1  0.12360079  0.24481141  0.47882109  1
  O  O159  1  0.14649534  0.22510211  1.00250988  1
  O  O160  1  0.14088506  0.74610785  0.45345114  1
  O  O161  1  0.11750461  0.74921683  1.01509562  1
  O  O162  1  0.65840951  0.21917888  0.50043395  1
  O  O163  1  0.62622408  0.24684561  0.99514110  1
  O  O164  1  0.66044832  0.75253257  0.49968532  1
  O  O165  1  0.59697474  0.74752897  0.99140669  1
  O  O166  1  0.45743468  0.25865701  0.16887837  1
  O  O167  1  0.47367716  0.23458765  0.61266499  1
  O  O168  1  0.48339684  0.84190030  0.14338189  1
  O  O169  1  0.49974333  0.74281512  0.61365660  1
  O  O170  1  1.00557927  0.26923118  0.14382826  1
  O  O171  1  0.96551180  0.23845864  0.57190168  1
  O  O172  1  0.98537922  0.78202983  0.14809909  1
  O  O173  1  0.91515591  0.73299056  0.68557389  1
  O  O174  1  -0.00683546  0.26093664  0.36210322  1
  O  O175  1  -0.01282052  0.24098229  0.89442224  1
  O  O176  1  0.01050095  0.77588321  0.36198840  1
  O  O177  1  0.05609525  0.76391482  0.79237731  1
  O  O178  1  0.55704764  0.26349254  0.37295485  1
  O  O179  1  0.59325528  0.28048075  1.05137577  1
  O  O180  1  0.56116324  0.74908767  0.37374962  1
  O  O181  1  0.50671185  0.73670137  0.86772180  1
  O  O182  1  0.24154493  0.12913107  0.47943017  1
  O  O183  1  0.27085485  0.12824188  0.98112865  1
  O  O184  1  0.23084404  0.65675755  0.50357730  1
  O  O185  1  0.21251319  0.62083415  1.02537858  1
  O  O186  1  0.66987275  -0.00423065  0.51573119  1
  O  O187  1  0.75164931  0.11312567  0.97943642  1
  O  O188  1  0.72804519  0.56868904  0.54962873  1
  O  O189  1  0.72168855  0.64275620  1.01803181  1
  O  O190  1  0.24336542  0.34750162  0.01689466  1
  O  O191  1  0.27014992  0.42758351  0.47003649  1
  O  O192  1  0.26662495  0.86407487  -0.03817104  1
  O  O193  1  0.25117634  0.86111790  0.46373873  1
  O  O194  1  0.76288904  0.40258054  -0.00598494  1
  O  O195  1  0.75710257  0.37078941  0.53593058  1
  O  O196  1  0.75913144  0.89456567  0.01615054  1
  O  O197  1  0.78010211  0.87374495  0.53830726  1
  O  O198  1  0.26565113  0.56689941  0.28310747  1
  O  O199  1  0.13878288  0.45669832  0.75499038  1
  O  O200  1  0.14060718  1.00310863  0.24247310  1
  O  O201  1  0.10989550  0.98474616  0.70915308  1
  O  O202  1  0.65970327  0.43898385  0.34431754  1
  O  O203  1  0.63559102  0.36841219  0.79396920  1
  O  O204  1  0.71231897  1.04859606  0.27049176  1
  O  O205  1  0.65223070  0.99842233  0.71734608  1
  O  O206  1  0.37685186  -0.00238201  0.23541979  1
  O  O207  1  0.32364692  -0.01776170  0.74746741  1
  O  O208  1  0.47813536  0.62583876  0.28703628  1
  O  O209  1  0.33412023  0.50523669  0.74223176  1
  O  O210  1  0.88815741  0.01123535  0.24242217  1
  O  O211  1  0.87034055  -0.02148356  0.77561676  1
  O  O212  1  0.83381057  0.51230107  0.25724931  1
  O  O213  1  0.96786810  0.62479567  0.76791711  1
  O  O214  1  0.13490764  0.35938367  0.37731799  1
  O  O215  1  0.10687772  0.34833272  0.87032557  1
  O  O216  1  0.12679455  0.87354369  0.35133531  1
  O  O217  1  0.22144366  0.74704288  0.84062275  1
  O  O218  1  0.52016263  0.38049532  0.53271809  1
  O  O219  1  0.67461833  0.35570395  0.87137340  1
  O  O220  1  0.59535785  0.81942753  0.33913253  1
  O  O221  1  0.61953860  0.86384363  0.89391579  1
  O  O222  1  0.38925902  0.12335568  0.11351314  1
  O  O223  1  0.35559224  0.15021009  0.61643970  1
  O  O224  1  0.42581586  0.64154862  0.13129396  1
  O  O225  1  0.38682899  0.66136968  0.63058641  1
  O  O226  1  0.86096476  0.14655531  0.10892197  1
  O  O227  1  0.94980707  0.18554514  0.62553340  1
  O  O228  1  0.90300049  0.64881380  0.09960025  1
  O  O229  1  0.90344508  0.59846411  0.59971069  1
  O  O230  1  0.26162789  0.22340445  0.11780599  1
  O  O231  1  0.26577119  0.26136427  0.61394889  1
  O  O232  1  0.26556743  0.71921466  0.14626489  1
  O  O233  1  0.28384172  0.77061635  0.59344759  1
  O  O234  1  0.74639395  0.25133197  0.13199898  1
  O  O235  1  0.75344310  0.25809400  0.62088801  1
  O  O236  1  0.72799672  0.77495435  0.11904090  1
  O  O237  1  0.75292876  0.74451997  0.62294886  1
  O  O238  1  0.24408481  0.25191821  0.36220168  1
  O  O239  1  0.27851640  0.22913354  0.90036234  1
  O  O240  1  0.24507926  0.75714463  0.34256199  1
  O  O241  1  0.21665604  0.62061829  0.75561927  1
  O  O242  1  0.74009812  0.28465556  0.40626686  1
  O  O243  1  0.78870913  0.21227693  0.86332268  1
  O  O244  1  0.75413409  0.78955900  0.39566809  1
  O  O245  1  0.71625893  0.73772047  0.86539232  1
  O  O246  1  -0.00123525  0.13234091  0.01963917  1
  O  O247  1  0.01677771  0.11229492  0.48362017  1
  O  O248  1  0.01961157  0.59594831  0.00611568  1
  O  O249  1  0.01619736  0.63590473  0.44036840  1
  O  O250  1  0.51064068  0.13397601  -0.01646960  1
  O  O251  1  0.42384639  0.04495737  0.46427108  1
  O  O252  1  0.50077747  0.60264283  -0.01886222  1
  O  O253  1  0.52770922  0.63985812  0.48837923  1
  O  O254  1  0.57257298  0.35403805  0.57528923  1
  O  O255  1  0.54705023  0.43146225  0.95043762  1
  O  O256  1  0.53236574  0.87674894  0.47445036  1
  O  O257  1  0.47200303  0.88512727  0.99400351  1
  O  O258  1  1.00829895  0.37527039  0.47144908  1
  O  O259  1  0.99871278  0.37432391  0.98867790  1
  O  O260  1  1.01676359  0.90660143  0.45825160  1
  O  O261  1  0.97766032  0.87012555  1.00335106  1
  O  O262  1  0.43962227  0.48162171  0.43282572  1
  O  O263  1  0.46513181  0.50134399  0.82552943  1
  O  O264  1  0.55186583  0.98182602  0.35267622  1
  O  O265  1  0.42314560  1.09921779  0.82418153  1
  O  O266  1  1.00769260  0.47543023  0.35735560  1
  O  O267  1  1.02942068  0.49571123  0.88722236  1
  O  O268  1  0.99398915  1.01022209  0.36584123  1
  O  O269  1  0.99586790  0.98011528  0.86981168  1
  O  O270  1  0.02730868  0.00031986  0.11957799  1
  O  O271  1  0.00340479  -0.00942875  0.59409060  1
  O  O272  1  -0.00120633  0.49625436  0.12067453  1
  O  O273  1  -0.04885764  0.54595275  0.59687758  1
  O  O274  1  0.56201843  0.00785873  0.18616248  1
  O  O275  1  0.52374131  0.06457904  0.63277353  1
  O  O276  1  0.48336428  0.46440636  0.10174028  1
  O  O277  1  0.47289448  0.53376199  0.62406350  1
  O  O278  1  0.20051943  0.41820874  0.20659219  1
  O  O279  1  0.19095236  0.29551878  0.75103902  1
  O  O280  1  0.24825933  0.89253892  0.24487037  1
  O  O281  1  0.23274958  0.79141795  0.78590041  1
  O  O282  1  0.73608866  0.43579965  0.18195576  1
  O  O283  1  0.79929957  0.31924261  0.74206805  1
  O  O284  1  0.74459115  0.88789666  0.22356550  1
  O  O285  1  0.72909050  0.89221658  0.76299275  1
  O  O286  1  0.26631447  0.11590587  0.25900260  1
  O  O287  1  0.22514416  0.10946172  0.74708800  1
  O  O288  1  0.37342864  0.60006238  0.15679955  1
  O  O289  1  0.19822338  0.63871139  0.68847575  1
  O  O290  1  0.74664294  0.10409488  0.23990019  1
  O  O291  1  0.75664927  0.10818640  0.76154659  1
  O  O292  1  0.62104088  0.48808517  0.30640376  1
  O  O293  1  0.72315469  0.62430071  0.74726014  1
  O  O294  1  0.40264799  0.09626275  0.41119717  1
  O  O295  1  0.29206638  0.14769140  0.90460239  1
  O  O296  1  0.41983562  0.66631171  0.32533985  1
  O  O297  1  0.34873145  0.59658397  0.88857732  1
  O  O298  1  0.87420801  0.12159556  0.36001625  1
  O  O299  1  0.88589373  0.09323111  0.88439850  1
  O  O300  1  0.84217355  0.59600399  0.41603688  1
  O  O301  1  0.82265350  0.62958419  0.88910851  1
  O  O302  1  0.15620122  0.38013374  0.15361787  1
  O  O303  1  0.07023115  0.33782069  0.65787280  1
  O  O304  1  0.13309744  0.89069323  0.13633785  1
  O  O305  1  0.12480807  0.87754098  0.59001978  1
  O  O306  1  0.68696630  0.48673310  0.17615801  1
  O  O307  1  0.60893668  0.21860192  0.69762963  1
  O  O308  1  0.63393435  0.89972192  0.10139958  1
  O  O309  1  0.61176191  0.87339482  0.63420407  1
  O  O310  1  0.11727221  0.24655512  0.26217259  1
  O  O311  1  0.07022509  0.17917794  0.76350451  1
  O  O312  1  0.13029248  0.78164838  0.23847541  1
  O  O313  1  0.08782454  0.77631326  0.72628113  1
  O  O314  1  0.69453599  0.24167546  0.28277391  1
  O  O315  1  0.55628856  0.21180571  0.74829654  1
  O  O316  1  0.68396360  0.70137625  0.28697898  1
  O  O317  1  0.61403207  0.78395636  0.76178563  1
  O  O318  1  0.40726549  0.22213698  0.32698953  1
  O  O319  1  0.36680439  0.25770879  0.71912690  1
  O  O320  1  0.30926446  0.73484681  0.20035939  1
  O  O321  1  0.38734013  0.80916184  0.72246383  1
  O  O322  1  0.88004309  0.25378720  0.22837479  1
  O  O323  1  0.91753638  0.22037121  0.69341904  1
  O  O324  1  0.84856713  0.74460963  0.21711004  1
  O  O325  1  0.90492588  0.80323560  0.70357235  1
  O  O326  1  0.30046835  0.48971729  0.49182290  1
  O  O327  1  0.39619446  0.48203683  0.96926371  1
  O  O328  1  0.36990796  1.00868886  0.50778075  1
  O  O329  1  0.35496956  0.97481452  0.99210966  1
  O  O330  1  0.86361343  0.53087283  0.43468578  1
  O  O331  1  0.90201480  0.48192671  1.00134122  1
  O  O332  1  0.89335624  1.00977972  0.48007191  1
  O  O333  1  0.87822958  0.98518810  0.98933635  1
  O  O334  1  0.15574060  0.00325825  0.02029489  1
  O  O335  1  0.12820257  0.01639196  0.50183023  1
  O  O336  1  0.11454122  0.46957128  0.01257837  1
  O  O337  1  0.13704614  0.54021235  0.47676388  1
  O  O338  1  0.61313326  0.01366833  0.00182382  1
  O  O339  1  0.54702980  0.09654840  0.57170666  1
  O  O340  1  0.61982723  0.53045059  0.02619217  1
  O  O341  1  0.60316063  0.50710453  0.49331989  1
  O  O342  1  0.34174428  0.35775549  0.15250681  1
  O  O343  1  0.38565288  0.35692863  0.61663031  1
  O  O344  1  0.35470895  0.85833940  0.08151791  1
  O  O345  1  0.40984988  0.86033876  0.57561889  1
  O  O346  1  0.87276289  0.36642895  0.11128964  1
  O  O347  1  0.87734051  0.39862169  0.63282096  1
  O  O348  1  0.86341906  0.87489088  0.11906942  1
  O  O349  1  0.95088654  0.85618778  0.66323207  1
  O  O350  1  0.12454279  0.14384925  0.37982736  1
  O  O351  1  0.04579487  0.10524338  0.97393750  1
  O  O352  1  0.12544007  0.65163707  0.32809357  1
  O  O353  1  0.12272502  0.63587964  0.89755764  1
  O  O354  1  0.63792338  0.12498080  0.37597546  1
  O  O355  1  0.63955021  0.13634642  0.88589871  1
  O  O356  1  0.67561081  0.63216394  0.42031130  1
  O  O357  1  0.62274463  0.63955468  0.89188477  1
