# generated using pymatgen
data_V51Zn51O256
_symmetry_space_group_name_H-M   'P 1'
_cell_length_a   17.29435153
_cell_length_b   17.82695229
_cell_length_c   17.85845014
_cell_angle_alpha   91.78637167
_cell_angle_beta   86.70809906
_cell_angle_gamma   91.73845256
_symmetry_Int_Tables_number   1
_chemical_formula_structural   V51Zn51O256
_chemical_formula_sum   'V51 Zn51 O256'
_cell_volume   5491.85471822
_cell_formula_units_Z   1
loop_
 _symmetry_equiv_pos_site_id
 _symmetry_equiv_pos_as_xyz
  1  'x, y, z'
loop_
 _atom_site_type_symbol
 _atom_site_label
 _atom_site_symmetry_multiplicity
 _atom_site_fract_x
 _atom_site_fract_y
 _atom_site_fract_z
 _atom_site_occupancy
  V  V0  1  0.33801796  0.73675000  0.61944404  1
  V  V1  1  0.49425047  0.49552595  0.52020644  1
  V  V2  1  0.02081456  0.64666965  0.57424779  1
  V  V3  1  0.16290303  0.22498677  0.86679299  1
  V  V4  1  0.25654617  0.35557964  0.62664821  1
  V  V5  1  0.03163543  0.14653681  0.60684702  1
  V  V6  1  -0.01339675  0.51167316  0.03081332  1
  V  V7  1  0.62307001  0.21463187  0.87614801  1
  V  V8  1  0.01713279  0.92153040  0.40804698  1
  V  V9  1  0.35387376  0.73705223  0.11574443  1
  V  V10  1  0.10260828  0.90130831  0.72598472  1
  V  V11  1  0.84553182  0.29636178  0.08861283  1
  V  V12  1  0.49769526  0.63858000  0.62275777  1
  V  V13  1  0.27104799  0.47747497  0.25099076  1
  V  V14  1  0.50117785  0.20656048  0.20819458  1
  V  V15  1  0.49769413  -0.00414682  -0.00889363  1
  V  V16  1  0.08995790  0.63649864  0.03866951  1
  V  V17  1  0.21687069  0.74508357  0.01351668  1
  V  V18  1  0.83691020  0.41031879  -0.01637610  1
  V  V19  1  0.27083583  0.76313454  0.45586548  1
  V  V20  1  0.84337995  0.12744545  0.78334192  1
  V  V21  1  -0.00116464  0.23582820  0.78291699  1
  V  V22  1  -0.00309229  0.39078386  0.88073558  1
  V  V23  1  0.35059734  0.00068283  0.86586865  1
  V  V24  1  0.35579270  0.86264649  -0.02011529  1
  V  V25  1  0.86046162  -0.00093173  0.90317512  1
  V  V26  1  0.24016679  0.49701567  0.75289133  1
  V  V27  1  0.38374744  0.51338027  0.88253475  1
  V  V28  1  0.50123378  0.28559159  0.74200741  1
  V  V29  1  0.21721059  0.12999410  0.35284032  1
  V  V30  1  0.62854304  0.27197309  0.39110582  1
  V  V31  1  0.22079801  -0.00910983  0.23955655  1
  V  V32  1  0.09362732  0.72015097  0.86705646  1
  V  V33  1  0.90368803  0.68324453  0.70155308  1
  V  V34  1  0.64759159  0.84006732  0.78053205  1
  V  V35  1  0.12848767  0.69182530  0.36235821  1
  V  V36  1  0.49372281  0.81546268  0.87903825  1
  V  V37  1  0.11311328  0.48641835  0.61209340  1
  V  V38  1  0.86382904  0.11561431  0.27636376  1
  V  V39  1  0.00463205  0.89534308  0.89037874  1
  V  V40  1  0.63445090  0.48876245  0.62825897  1
  V  V41  1  0.60863332  -0.04573264  0.65389731  1
  V  V42  1  0.55835630  0.42444302  0.35233619  1
  V  V43  1  0.81609713  0.23823424  0.62491095  1
  V  V44  1  0.11734184  0.37473533  0.74693085  1
  V  V45  1  0.40294362  -0.00760755  0.36131279  1
  V  V46  1  0.89405024  0.53281020  0.80373666  1
  V  V47  1  0.53255009  0.90726555  0.31475281  1
  V  V48  1  0.38566251  0.35358263  0.50279074  1
  V  V49  1  0.35658503  0.62184324  0.73772615  1
  V  V50  1  0.85402572  0.82923208  0.46484961  1
  Zn  Zn51  1  0.65965723  1.01351565  0.87433214  1
  Zn  Zn52  1  0.68577751  0.42832557  0.46792429  1
  Zn  Zn53  1  1.00345298  0.09767455  0.92015694  1
  Zn  Zn54  1  0.16445681  0.47056034  0.93590378  1
  Zn  Zn55  1  0.90755926  0.19497132  0.46527630  1
  Zn  Zn56  1  0.43233939  0.43781605  0.68304870  1
  Zn  Zn57  1  0.69888575  0.21590491  0.21985872  1
  Zn  Zn58  1  0.48766984  0.19786244  0.01447317  1
  Zn  Zn59  1  0.21301982  0.93966667  0.41854024  1
  Zn  Zn60  1  0.93715664  0.39706596  0.68162922  1
  Zn  Zn61  1  0.48007613  0.48772010  0.19248236  1
  Zn  Zn62  1  0.68225677  0.52957235  0.11368775  1
  Zn  Zn63  1  0.20076578  0.86452305  0.87390510  1
  Zn  Zn64  1  0.77780864  0.82932006  0.10827158  1
  Zn  Zn65  1  0.68369946  0.65612071  0.70367794  1
  Zn  Zn66  1  0.06149232  0.06662996  0.30350667  1
  Zn  Zn67  1  0.01430435  0.24767800  -0.00630667  1
  Zn  Zn68  1  0.99965780  1.01974236  0.75571356  1
  Zn  Zn69  1  0.53756854  0.54998701  0.77393018  1
  Zn  Zn70  1  0.82264308  0.27925927  0.87792974  1
  Zn  Zn71  1  0.15823695  0.02136921  0.84697565  1
  Zn  Zn72  1  0.36968694  0.70093601  0.89824156  1
  Zn  Zn73  1  0.89035694  0.05692201  0.63487400  1
  Zn  Zn74  1  0.23351043  -0.06135666  0.05687003  1
  Zn  Zn75  1  0.35713048  0.17076745  0.44908065  1
  Zn  Zn76  1  0.81575981  0.30859662  0.27732080  1
  Zn  Zn77  1  0.35837670  0.20008494  0.86611585  1
  Zn  Zn78  1  0.47340426  0.85888743  0.11944446  1
  Zn  Zn79  1  0.82419327  0.55135238  0.64005690  1
  Zn  Zn80  1  0.83970744  0.82278256  0.81977575  1
  Zn  Zn81  1  0.03787455  0.83092646  0.05266523  1
  Zn  Zn82  1  0.66596744  0.17175325  0.71711570  1
  Zn  Zn83  1  0.26084753  0.81062209  0.27872313  1
  Zn  Zn84  1  0.28372143  0.56464266  0.04831323  1
  Zn  Zn85  1  0.22456178  0.44226646  0.45466427  1
  Zn  Zn86  1  0.47325199  1.01165454  0.18866856  1
  Zn  Zn87  1  0.34947958  0.28949822  0.32847538  1
  Zn  Zn88  1  0.08609357  0.56997745  0.22424900  1
  Zn  Zn89  1  0.78609061  0.56327374  0.96549680  1
  Zn  Zn90  1  0.96594417  0.76815971  0.33348766  1
  Zn  Zn91  1  0.57058398  0.32397747  0.57169745  1
  Zn  Zn92  1  0.31201519  0.53228574  0.58565673  1
  Zn  Zn93  1  0.84857207  0.01181308  0.09944478  1
  Zn  Zn94  1  0.67371708  0.91225366  0.47694733  1
  Zn  Zn95  1  0.16302102  0.66051998  0.68708674  1
  Zn  Zn96  1  0.11216119  0.83154870  0.53544766  1
  Zn  Zn97  1  0.41931155  0.88278020  0.70693137  1
  Zn  Zn98  1  0.89382134  0.47144477  0.17535529  1
  Zn  Zn99  1  0.52069149  0.11336601  0.34446238  1
  Zn  Zn100  1  0.50982786  -0.03219464  0.79828737  1
  Zn  Zn101  1  0.31876182  0.34191711  0.80871727  1
  O  O102  1  0.18382770  0.17257694  0.14347563  1
  O  O103  1  0.12421756  0.14940826  0.58619937  1
  O  O104  1  0.10765253  0.61205185  0.12755225  1
  O  O105  1  0.10248050  0.58983820  0.62121482  1
  O  O106  1  0.70830041  0.14251487  0.11212018  1
  O  O107  1  0.63127203  0.06923993  0.66985203  1
  O  O108  1  0.61552113  0.66958034  0.14363089  1
  O  O109  1  0.59476155  0.65164074  0.62679527  1
  O  O110  1  0.37991254  0.36226192  0.40760218  1
  O  O111  1  0.35584792  0.41971950  0.87535769  1
  O  O112  1  0.44307529  0.88632425  0.35419523  1
  O  O113  1  0.36591375  0.81926711  0.88760903  1
  O  O114  1  0.88128546  0.33472209  0.37236116  1
  O  O115  1  0.86930121  0.38293819  0.88913136  1
  O  O116  1  0.86637675  0.76987016  0.38593540  1
  O  O117  1  0.88953789  0.90131150  0.87549592  1
  O  O118  1  0.20862802  0.05917793  0.41467971  1
  O  O119  1  0.25193461  -0.03288649  0.86747438  1
  O  O120  1  0.24486725  0.45368285  0.34825778  1
  O  O121  1  0.22974414  0.50089975  0.84788346  1
  O  O122  1  0.68773202  0.04524306  0.44154647  1
  O  O123  1  0.76381696  -0.01298528  0.89513910  1
  O  O124  1  0.78083226  0.50582415  0.41697520  1
  O  O125  1  0.81452869  0.54586116  0.86399411  1
  O  O126  1  0.28629909  0.49285893  0.15399417  1
  O  O127  1  0.22632227  0.47725305  0.63480766  1
  O  O128  1  0.26244707  0.96922504  0.15305691  1
  O  O129  1  0.25773548  1.04686750  0.67055411  1
  O  O130  1  0.77466609  0.50783496  0.18954857  1
  O  O131  1  0.73104037  0.50811665  0.60044860  1
  O  O132  1  0.72544611  0.98592331  0.08575465  1
  O  O133  1  0.69532610  1.02291908  0.66116599  1
  O  O134  1  0.01602166  0.41546373  0.30736083  1
  O  O135  1  0.00843236  0.35704487  0.76093631  1
  O  O136  1  0.00663737  0.87229021  0.32524189  1
  O  O137  1  0.00867611  0.89391272  0.76965553  1
  O  O138  1  0.53966010  0.44212417  0.26302786  1
  O  O139  1  0.50077801  0.38094167  0.74840570  1
  O  O140  1  0.70982941  0.95348153  0.24412508  1
  O  O141  1  0.48378063  0.84637935  0.78750469  1
  O  O142  1  0.50701456  0.10840867  0.23139249  1
  O  O143  1  0.46679644  0.11825386  0.71329569  1
  O  O144  1  0.55324324  0.63286056  0.14636812  1
  O  O145  1  0.46578197  0.61656889  0.72438805  1
  O  O146  1  0.96400973  0.09974287  0.26659086  1
  O  O147  1  1.01226105  0.14964596  0.81552870  1
  O  O148  1  0.96297516  0.55889187  0.24030771  1
  O  O149  1  0.99903334  0.70590844  0.67743041  1
  O  O150  1  0.38790174  0.22241540  -0.03117972  1
  O  O151  1  0.38597217  0.25770865  0.50973091  1
  O  O152  1  0.32281235  0.73324849  -0.00435329  1
  O  O153  1  0.34386048  0.73445770  0.51726620  1
  O  O154  1  0.81623455  0.29617772  -0.00448224  1
  O  O155  1  0.82205474  0.22683022  0.52883554  1
  O  O156  1  0.85806316  0.90479285  0.12994965  1
  O  O157  1  0.84577645  0.77866727  0.54067503  1
  O  O158  1  0.09769949  0.26248941  0.43585309  1
  O  O159  1  0.12488753  0.26052157  0.94939591  1
  O  O160  1  0.19747321  0.69301542  0.43808960  1
  O  O161  1  0.09588277  0.74070876  1.04196652  1
  O  O162  1  0.64567540  0.31429554  0.48108436  1
  O  O163  1  0.56392467  0.24810543  0.94881124  1
  O  O164  1  0.63498250  0.66215108  0.35733859  1
  O  O165  1  0.75325014  0.76684129  1.01919646  1
  O  O166  1  0.47514769  0.21853396  0.11927379  1
  O  O167  1  0.51299362  0.26324159  0.64848766  1
  O  O168  1  0.45533713  0.75292290  0.10891953  1
  O  O169  1  0.46094304  0.72501029  0.61613720  1
  O  O170  1  0.93794441  0.26965341  0.08571833  1
  O  O171  1  1.00875609  0.21918032  0.68553506  1
  O  O172  1  0.96014886  0.82323048  0.14633159  1
  O  O173  1  1.06047868  0.73239348  0.54727505  1
  O  O174  1  -0.06770966  0.29632047  0.40119479  1
  O  O175  1  -0.01424164  0.28881969  0.88639503  1
  O  O176  1  0.04310698  0.72870918  0.39477212  1
  O  O177  1  0.02403987  0.79496444  0.87205022  1
  O  O178  1  0.54918549  0.32426572  0.36351804  1
  O  O179  1  0.41070750  0.11397351  0.67390155  1
  O  O180  1  0.52394666  0.90676677  0.21681943  1
  O  O181  1  0.48266322  0.72073028  0.88650665  1
  O  O182  1  0.31562376  0.11984598  0.55617379  1
  O  O183  1  0.18372795  0.17822853  1.07526338  1
  O  O184  1  0.27564379  0.55911058  0.47505848  1
  O  O185  1  0.19810887  0.64253204  1.00503282  1
  O  O186  1  0.71505037  0.09494387  0.48348682  1
  O  O187  1  0.76972470  0.14907881  1.07105311  1
  O  O188  1  0.74702334  0.64727742  0.47714692  1
  O  O189  1  0.86661056  0.68016085  1.10989362  1
  O  O190  1  0.22254331  0.47829894  0.02255546  1
  O  O191  1  0.27268170  0.37383196  0.52127129  1
  O  O192  1  0.23958501  0.85429609  -0.01483003  1
  O  O193  1  0.22535943  0.84234326  0.49260176  1
  O  O194  1  0.74689375  0.43620193  -0.02064193  1
  O  O195  1  0.79688455  0.39107545  0.49387305  1
  O  O196  1  0.81483574  0.77928303  -0.03156790  1
  O  O197  1  0.77138068  0.88111789  0.45488623  1
  O  O198  1  0.17363913  0.48220201  0.22955544  1
  O  O199  1  0.12670305  0.47532093  0.74048728  1
  O  O200  1  0.12468185  1.00661333  0.23258709  1
  O  O201  1  0.11715458  1.00151642  0.74718166  1
  O  O202  1  0.65820582  0.41084543  0.12594611  1
  O  O203  1  0.63271457  0.54540822  0.71851358  1
  O  O204  1  0.65720944  0.99896143  0.25509919  1
  O  O205  1  0.61967628  0.95375782  0.79090658  1
  O  O206  1  0.38409279  -0.00617051  0.26913246  1
  O  O207  1  0.37926578  -0.03378934  0.77744675  1
  O  O208  1  0.37849444  0.48132086  0.24786858  1
  O  O209  1  0.34823662  0.49973306  0.73681548  1
  O  O210  1  0.83523223  0.03073354  0.31388174  1
  O  O211  1  0.88309508  0.04103988  0.74735052  1
  O  O212  1  0.75856756  0.45643671  0.24423344  1
  O  O213  1  0.87138498  0.48490224  0.71859298  1
  O  O214  1  0.08272541  0.31350248  0.48647564  1
  O  O215  1  0.09924940  0.40399717  0.86797628  1
  O  O216  1  0.10557739  0.90274141  0.45053976  1
  O  O217  1  0.10084153  0.93103380  0.89654330  1
  O  O218  1  0.65329681  0.44416410  0.36533001  1
  O  O219  1  0.65549645  0.41401724  0.83514604  1
  O  O220  1  0.61862866  0.89355373  0.37692109  1
  O  O221  1  0.59495318  0.83161317  0.87681347  1
  O  O222  1  0.33357242  0.28183622  0.01018129  1
  O  O223  1  0.49840532  0.07402058  0.53964935  1
  O  O224  1  0.33747074  0.64082424  0.10749595  1
  O  O225  1  0.36111800  0.62008263  0.62892564  1
  O  O226  1  0.86055548  0.08284612  0.18059048  1
  O  O227  1  0.85187234  0.15526859  0.66514946  1
  O  O228  1  0.93024298  0.62445340  0.27146718  1
  O  O229  1  0.91440415  0.62377894  0.60753991  1
  O  O230  1  0.32597666  0.27502582  0.07919746  1
  O  O231  1  0.24271916  0.26551444  0.62699315  1
  O  O232  1  0.22803927  0.76354392  0.10438450  1
  O  O233  1  0.24004147  0.72045701  0.63111709  1
  O  O234  1  0.78386586  0.27861554  0.17001450  1
  O  O235  1  0.71840974  0.24310730  0.65415878  1
  O  O236  1  0.83028258  0.72481093  0.15204652  1
  O  O237  1  0.69931000  0.69562598  0.49122561  1
  O  O238  1  0.28303105  0.20821432  0.37710324  1
  O  O239  1  0.26090851  0.25526740  0.85460235  1
  O  O240  1  0.31269976  0.78836626  0.37353779  1
  O  O241  1  0.18255546  0.75599052  0.90343663  1
  O  O242  1  0.71056844  0.28078286  0.32906001  1
  O  O243  1  0.71332989  0.25719659  0.87461834  1
  O  O244  1  0.77724370  0.63130612  0.32745156  1
  O  O245  1  0.80833374  0.74214281  0.90367441  1
  O  O246  1  0.00440081  0.14455545  0.01092888  1
  O  O247  1  -0.01856785  0.15737780  0.52621248  1
  O  O248  1  -0.01686699  0.61100600  0.04665964  1
  O  O249  1  0.02049934  0.59433932  0.49745365  1
  O  O250  1  0.48561368  0.08830993  0.01122775  1
  O  O251  1  0.45645715  0.01712542  0.54229920  1
  O  O252  1  0.60029866  0.67135055  -0.00791044  1
  O  O253  1  0.48995728  0.59484065  0.52605473  1
  O  O254  1  0.48743430  0.37799730  0.52598495  1
  O  O255  1  0.42606831  0.41550279  1.04982991  1
  O  O256  1  0.59759701  0.82789915  0.33406174  1
  O  O257  1  0.46926482  0.86942766  0.96922672  1
  O  O258  1  1.01155600  0.32278883  0.51158483  1
  O  O259  1  0.98902966  0.41085666  0.97663870  1
  O  O260  1  0.93914258  0.89470333  0.47124312  1
  O  O261  1  0.98037732  0.88554892  0.98480730  1
  O  O262  1  0.50408440  0.48332581  0.41657739  1
  O  O263  1  0.48256997  0.51844477  0.85997628  1
  O  O264  1  0.52171004  1.00274476  0.35285079  1
  O  O265  1  0.45841392  0.99849734  0.89303639  1
  O  O266  1  1.05387763  0.38165243  0.35181508  1
  O  O267  1  0.96785248  0.48488720  0.84341781  1
  O  O268  1  1.01723283  1.01534806  0.38962109  1
  O  O269  1  0.97953477  1.00644290  0.86978583  1
  O  O270  1  0.09116996  -0.01225046  0.06271726  1
  O  O271  1  0.00225358  0.05723019  0.64511597  1
  O  O272  1  -0.00796969  0.47887168  0.11951972  1
  O  O273  1  0.01940066  0.45622155  0.62720375  1
  O  O274  1  0.47871660  -0.03648260  0.08953079  1
  O  O275  1  0.50863775  -0.04261780  0.68243805  1
  O  O276  1  0.56523488  0.54615552  0.14091269  1
  O  O277  1  0.51002741  0.50389880  0.62974442  1
  O  O278  1  0.28250867  0.37626478  0.24514377  1
  O  O279  1  0.23766341  0.38062012  0.74410835  1
  O  O280  1  0.22792674  0.91556690  0.30184902  1
  O  O281  1  0.16857050  0.84932817  0.76855467  1
  O  O282  1  0.83055857  0.42235380  0.26155476  1
  O  O283  1  0.71167131  0.40671186  0.79070806  1
  O  O284  1  0.75989163  0.80434186  0.26946476  1
  O  O285  1  0.73908766  0.85893943  0.80047461  1
  O  O286  1  0.25780070  0.08311585  0.26981974  1
  O  O287  1  0.25725400  0.11412526  0.68672625  1
  O  O288  1  0.28120484  0.56808340  0.28689098  1
  O  O289  1  0.24461116  0.59557631  0.73134816  1
  O  O290  1  0.76352064  0.13912781  0.26943165  1
  O  O291  1  0.74630087  0.12632673  0.77843719  1
  O  O292  1  0.77279548  0.63996219  0.26022158  1
  O  O293  1  0.79390659  0.64118710  0.69814854  1
  O  O294  1  0.41423881  0.09318213  0.39384066  1
  O  O295  1  0.34150666  0.09444118  0.85937370  1
  O  O296  1  0.33065803  0.58844904  0.43478452  1
  O  O297  1  0.35312254  0.60753330  0.84166986  1
  O  O298  1  0.87095215  0.15084354  0.37188881  1
  O  O299  1  0.86080303  0.10401030  0.87708527  1
  O  O300  1  0.84562197  0.51659827  0.44287172  1
  O  O301  1  0.92743336  0.62319103  0.78032366  1
  O  O302  1  0.10541306  0.32854368  0.10732640  1
  O  O303  1  0.13265442  0.36205363  0.65082028  1
  O  O304  1  0.10989386  0.91620335  0.08761330  1
  O  O305  1  0.10181396  0.88263058  0.63158858  1
  O  O306  1  0.61877688  0.37459061  0.07953919  1
  O  O307  1  0.62842513  0.39582988  0.64209206  1
  O  O308  1  0.70094597  0.91709212  0.08752769  1
  O  O309  1  0.64107857  0.86735308  0.67828653  1
  O  O310  1  0.10632676  0.31331359  0.17413248  1
  O  O311  1  0.11348299  0.26728809  0.78917460  1
  O  O312  1  0.16728692  0.74795337  0.29413754  1
  O  O313  1  0.10897459  0.68354601  0.77920999  1
  O  O314  1  0.59502235  0.24080042  0.21680758  1
  O  O315  1  0.58256982  0.23474497  0.78202056  1
  O  O316  1  0.71684853  0.80419539  0.21544658  1
  O  O317  1  0.64418667  0.74492771  0.75800113  1
  O  O318  1  0.43439736  0.25053573  0.26953311  1
  O  O319  1  0.40768679  0.26224887  0.78501143  1
  O  O320  1  0.32986966  0.76357744  0.20662239  1
  O  O321  1  0.34661567  0.71516923  0.73840447  1
  O  O322  1  0.88298210  0.21714366  0.25743991  1
  O  O323  1  0.88589168  0.22697149  0.79515220  1
  O  O324  1  0.96810044  0.68657775  0.24750842  1
  O  O325  1  0.87137066  0.76865753  0.73276199  1
  O  O326  1  0.39199354  0.47499996  0.53037188  1
  O  O327  1  0.37163412  0.54073217  0.97370008  1
  O  O328  1  0.32693026  0.96265509  0.41729489  1
  O  O329  1  0.34596584  0.96142906  0.97421939  1
  O  O330  1  0.85704610  0.43141149  0.50295952  1
  O  O331  1  0.88425885  0.50501836  0.99910932  1
  O  O332  1  0.82455713  0.97225969  0.58901665  1
  O  O333  1  0.87498354  1.01043577  0.99657980  1
  O  O334  1  0.15363327  0.02306117  0.03476968  1
  O  O335  1  0.30694126  0.05017078  0.55914178  1
  O  O336  1  0.08357831  0.52921919  -0.00683537  1
  O  O337  1  0.13473348  0.46886398  0.51881784  1
  O  O338  1  0.59203987  -0.01426176  -0.03201263  1
  O  O339  1  0.60823473  -0.05560228  0.55730357  1
  O  O340  1  0.73459212  0.59657953  0.05108483  1
  O  O341  1  0.60775956  0.48790695  0.52617545  1
  O  O342  1  0.45345622  0.40076683  0.11112356  1
  O  O343  1  0.35782261  0.36832087  0.63539062  1
  O  O344  1  0.35738674  0.84880447  0.07689788  1
  O  O345  1  0.35519749  0.82955543  0.64179405  1
  O  O346  1  0.85256093  0.39665412  0.09095222  1
  O  O347  1  0.86905727  0.31807517  0.64973339  1
  O  O348  1  0.92915877  0.88607088  0.16959959  1
  O  O349  1  0.81235939  0.91642735  0.63010859  1
  O  O350  1  0.12680312  0.15385031  0.32975313  1
  O  O351  1  0.15585308  0.12871561  0.86885721  1
  O  O352  1  0.10862338  0.60356381  0.32214216  1
  O  O353  1  0.06399768  0.65055374  0.92464699  1
  O  O354  1  0.59346579  0.18096100  0.39159250  1
  O  O355  1  0.62573596  0.11970981  0.87900229  1
  O  O356  1  0.61401833  0.65890974  0.29256826  1
  O  O357  1  0.63748067  0.67169806  0.93200137  1
