# generated using pymatgen
data_V51Zn51O256
_symmetry_space_group_name_H-M   'P 1'
_cell_length_a   18.01926336
_cell_length_b   17.49946214
_cell_length_c   17.31680470
_cell_angle_alpha   89.74700281
_cell_angle_beta   88.70789456
_cell_angle_gamma   91.33037412
_symmetry_Int_Tables_number   1
_chemical_formula_structural   V51Zn51O256
_chemical_formula_sum   'V51 Zn51 O256'
_cell_volume   5457.53666227
_cell_formula_units_Z   1
loop_
 _symmetry_equiv_pos_site_id
 _symmetry_equiv_pos_as_xyz
  1  'x, y, z'
loop_
 _atom_site_type_symbol
 _atom_site_label
 _atom_site_symmetry_multiplicity
 _atom_site_fract_x
 _atom_site_fract_y
 _atom_site_fract_z
 _atom_site_occupancy
  V  V0  1  0.73384449  0.92332744  0.62289639  1
  V  V1  1  -0.00296865  0.39645783  0.37218191  1
  V  V2  1  0.90582073  0.25909052  0.16560617  1
  V  V3  1  -0.02979589  0.23505170  0.70996657  1
  V  V4  1  0.86151113  0.75516975  0.64212294  1
  V  V5  1  0.44476618  0.26722225  0.66616203  1
  V  V6  1  0.50247494  0.76205282  0.22385777  1
  V  V7  1  0.59878402  0.57744794  0.02476995  1
  V  V8  1  0.26076434  0.24529253  0.49718256  1
  V  V9  1  0.71344179  0.24525510  0.45209946  1
  V  V10  1  0.29350536  0.25765509  -0.08633413  1
  V  V11  1  0.44706534  0.21688722  0.22555712  1
  V  V12  1  0.41973080  0.02966336  0.83908000  1
  V  V13  1  0.11530231  0.32193956  0.76086563  1
  V  V14  1  0.36669299  0.57557078  0.24659849  1
  V  V15  1  0.37738751  0.39830273  0.47950949  1
  V  V16  1  0.23427523  0.07516162  0.83327514  1
  V  V17  1  0.59771973  0.75565326  0.40577626  1
  V  V18  1  0.36520393  0.70538874  0.11020565  1
  V  V19  1  0.90072713  0.93153319  0.55362774  1
  V  V20  1  0.14689737  0.12812807  -0.02423912  1
  V  V21  1  0.65739315  0.24935567  0.90272568  1
  V  V22  1  0.53703065  0.09876546  0.12584834  1
  V  V23  1  0.08929612  0.25178878  0.39426785  1
  V  V24  1  0.88624377  0.41877778  0.50161270  1
  V  V25  1  0.30199782  0.58097184  0.89098794  1
  V  V26  1  0.39751342  -0.00421870  0.38958274  1
  V  V27  1  0.88042002  0.44753876  0.88129040  1
  V  V28  1  0.21932594  0.53754280  0.72676067  1
  V  V29  1  0.37567646  0.76132862  0.56473199  1
  V  V30  1  0.70854040  0.54053933  0.29355814  1
  V  V31  1  0.19400909  0.50210164  0.25660949  1
  V  V32  1  0.00907401  0.03120079  0.09423342  1
  V  V33  1  0.24611809  0.62991914  0.37037851  1
  V  V34  1  0.49216617  0.78922707  0.82864827  1
  V  V35  1  0.74214081  0.39074261  0.58869070  1
  V  V36  1  0.65381218  0.91157996  0.78233923  1
  V  V37  1  0.62764591  0.64156663  0.55407462  1
  V  V38  1  0.21109389  0.00004002  0.09890989  1
  V  V39  1  0.88546219  -0.00431948  0.39292190  1
  V  V40  1  0.39153280  0.87224562  -0.04536757  1
  V  V41  1  0.15965917  0.86667282  0.23353364  1
  V  V42  1  0.85964171  0.24421465  0.55739264  1
  V  V43  1  0.24082285  0.33741590  0.04913551  1
  V  V44  1  0.12816011  0.52972778  0.08760308  1
  V  V45  1  0.68955530  0.71858217  0.89749689  1
  V  V46  1  0.12778189  0.75822047  0.38638076  1
  V  V47  1  0.70777324  0.39238367  0.17117392  1
  V  V48  1  0.07030558  0.74105221  0.88523072  1
  V  V49  1  0.08988163  0.51029138  0.61961750  1
  V  V50  1  0.07962557  0.67940921  0.55120343  1
  Zn  Zn51  1  0.68016094  0.55250843  0.80293358  1
  Zn  Zn52  1  0.68119235  0.71859919  0.25202174  1
  Zn  Zn53  1  0.59206076  0.09856350  0.78674432  1
  Zn  Zn54  1  0.80011505  0.31466731  0.75829612  1
  Zn  Zn55  1  0.20633209  0.38982890  0.39244635  1
  Zn  Zn56  1  0.46793539  0.20734568  0.86370651  1
  Zn  Zn57  1  0.97487378  0.43063271  0.17037845  1
  Zn  Zn58  1  0.78402503  0.58108577  0.63273807  1
  Zn  Zn59  1  0.96131137  0.79982172  0.46714665  1
  Zn  Zn60  1  0.31216054  0.37704920  0.21542968  1
  Zn  Zn61  1  0.04048769  0.56873753  0.80044196  1
  Zn  Zn62  1  0.77653826  0.08125811  0.53110876  1
  Zn  Zn63  1  0.07216520  0.14996639  0.80192768  1
  Zn  Zn64  1  0.17625400  0.44142434  0.90440654  1
  Zn  Zn65  1  0.69582867  0.44226796  0.96800893  1
  Zn  Zn66  1  0.63114420  0.27332059  0.69494284  1
  Zn  Zn67  1  0.18840895  0.68016423  0.18499375  1
  Zn  Zn68  1  0.03888974  0.31953942  0.56303689  1
  Zn  Zn69  1  0.10200868  0.55712303  0.41410895  1
  Zn  Zn70  1  0.06237784  0.28197743  0.07015932  1
  Zn  Zn71  1  0.85702689  0.91721141  0.75310288  1
  Zn  Zn72  1  0.30902055  0.77447499  0.81891240  1
  Zn  Zn73  1  0.56160278  0.58778310  0.21894671  1
  Zn  Zn74  1  0.29379019  0.36875060  0.73562457  1
  Zn  Zn75  1  0.52052453  0.73537880  0.01228152  1
  Zn  Zn76  1  0.21203328  0.18886035  0.68007406  1
  Zn  Zn77  1  0.75607504  0.61888254  0.11796756  1
  Zn  Zn78  1  0.78387518  0.40364035  0.36874498  1
  Zn  Zn79  1  0.30919433  0.50913291  0.08088588  1
  Zn  Zn80  1  0.87237297  0.13297154  0.03189607  1
  Zn  Zn81  1  0.16689598  0.73069870  0.72420658  1
  Zn  Zn82  1  0.91537322  0.19386857  0.35589252  1
  Zn  Zn83  1  0.65955600  0.86960721  0.97757425  1
  Zn  Zn84  1  0.75759134  0.23559743  0.26729573  1
  Zn  Zn85  1  0.39523868  0.46398607  0.64756423  1
  Zn  Zn86  1  1.00697512  0.97351835  0.26513553  1
  Zn  Zn87  1  0.26373386  0.51389596  0.53033210  1
  Zn  Zn88  1  0.87692562  0.75674510  0.87332316  1
  Zn  Zn89  1  0.43545143  0.89228126  0.69229043  1
  Zn  Zn90  1  0.11847388  0.11013235  0.24466208  1
  Zn  Zn91  1  0.48751036  0.59922425  0.87416316  1
  Zn  Zn92  1  0.68829447  0.71647497  0.70584225  1
  Zn  Zn93  1  0.41432531  0.71097793  0.36703145  1
  Zn  Zn94  1  0.20569708  0.89079468  0.91893076  1
  Zn  Zn95  1  0.23802876  0.92717633  0.37417479  1
  Zn  Zn96  1  0.56229050  0.33668919  0.53075902  1
  Zn  Zn97  1  0.96177098  0.26746596  0.90709702  1
  Zn  Zn98  1  0.39423549  0.13412072  0.51458626  1
  Zn  Zn99  1  0.09975066  0.87605822  0.03640207  1
  Zn  Zn100  1  0.57992133  0.82396442  0.59014911  1
  Zn  Zn101  1  0.30204915  0.78893570  0.25965310  1
  O  O102  1  0.21047073  0.09643227  0.04097305  1
  O  O103  1  0.17985149  -0.05520658  0.63552755  1
  O  O104  1  0.13371432  0.62837580  0.10569393  1
  O  O105  1  0.10281943  0.69643601  0.64444569  1
  O  O106  1  0.61290934  0.16221140  0.12425034  1
  O  O107  1  0.55302727  0.15020498  0.45783136  1
  O  O108  1  0.56578948  0.55569436  0.11511234  1
  O  O109  1  0.61789615  0.72224681  0.61996119  1
  O  O110  1  0.38595144  0.42094081  0.38732422  1
  O  O111  1  0.47970382  0.39545080  0.90590620  1
  O  O112  1  0.34110319  0.91074809  0.41357069  1
  O  O113  1  0.41196170  0.81334189  0.77817963  1
  O  O114  1  0.89143652  0.41328232  0.38959681  1
  O  O115  1  0.88559819  0.34141612  0.87905126  1
  O  O116  1  0.92197178  0.90362511  0.45030007  1
  O  O117  1  0.80681047  0.85887397  1.02020024  1
  O  O118  1  0.30103647  0.01968956  0.36418497  1
  O  O119  1  0.22326164  -0.02001724  0.84525411  1
  O  O120  1  0.20000871  0.52071882  0.36560236  1
  O  O121  1  0.22990240  0.52147571  0.84114891  1
  O  O122  1  0.79590546  -0.00249028  0.37981538  1
  O  O123  1  0.84368799  -0.08954386  1.04989568  1
  O  O124  1  0.74354177  0.55225254  0.37904293  1
  O  O125  1  0.80471297  0.43896798  0.95067244  1
  O  O126  1  0.20834408  0.50015578  0.14385231  1
  O  O127  1  0.20048253  0.52918729  0.62156501  1
  O  O128  1  0.29780063  0.98521402  0.10994068  1
  O  O129  1  0.14409756  0.89533122  0.60138406  1
  O  O130  1  0.83914382  0.52659508  0.12590348  1
  O  O131  1  0.76951812  0.47139353  0.63611265  1
  O  O132  1  0.76044521  0.96782151  0.19002007  1
  O  O133  1  0.71495550  1.01679323  0.60042974  1
  O  O134  1  -0.00701114  0.39810357  0.27440044  1
  O  O135  1  0.04012991  0.31764407  0.68983698  1
  O  O136  1  0.09847682  0.92525447  0.28070572  1
  O  O137  1  -0.13084586  0.87460967  0.86196660  1
  O  O138  1  0.39130384  0.29099806  0.19959842  1
  O  O139  1  0.47996751  0.38279639  0.83592420  1
  O  O140  1  0.53284228  0.84851830  0.21116231  1
  O  O141  1  0.56094468  0.84734947  0.79127952  1
  O  O142  1  0.50709282  0.13348994  0.23436960  1
  O  O143  1  0.49442032  0.07239282  0.63388347  1
  O  O144  1  0.45875315  0.59372084  0.24932249  1
  O  O145  1  0.53356839  0.50404058  0.73254113  1
  O  O146  1  1.02789798  0.05827370  0.19230987  1
  O  O147  1  1.00297187  0.14309248  0.71401726  1
  O  O148  1  0.90651229  0.59991979  0.32695583  1
  O  O149  1  0.95099702  0.61751769  0.78322476  1
  O  O150  1  0.38512556  0.23852457  -0.07453937  1
  O  O151  1  0.34576286  0.29544632  0.48946272  1
  O  O152  1  0.35445576  0.70753626  0.01807941  1
  O  O153  1  0.41145141  0.76951931  0.46496916  1
  O  O154  1  0.85546106  0.21827251  0.09112234  1
  O  O155  1  0.87628873  0.22781103  0.46276240  1
  O  O156  1  0.85269211  0.83858813  0.20403184  1
  O  O157  1  0.89300316  0.81534131  0.56059132  1
  O  O158  1  0.07561116  0.23501756  0.49121846  1
  O  O159  1  0.11991544  0.21737580  0.99031538  1
  O  O160  1  0.13958532  0.73450804  0.48985630  1
  O  O161  1  0.00591631  0.63365582  1.02364837  1
  O  O162  1  0.62315394  0.27076353  0.46394337  1
  O  O163  1  0.70550402  0.21797026  0.98248258  1
  O  O164  1  0.59936152  0.66746155  0.45517655  1
  O  O165  1  0.62590349  0.76371655  0.96977869  1
  O  O166  1  0.47039681  0.18159847  0.11881908  1
  O  O167  1  0.53908964  0.29112788  0.63747072  1
  O  O168  1  0.46416580  0.73931041  0.11788550  1
  O  O169  1  0.47147017  0.76950313  0.59346146  1
  O  O170  1  0.99884344  0.23704490  0.15325107  1
  O  O171  1  0.95380535  0.24397012  0.60342539  1
  O  O172  1  0.94400605  0.70985628  0.18178216  1
  O  O173  1  0.92368498  0.81352486  0.71519119  1
  O  O174  1  -0.00346182  0.27023057  0.36435426  1
  O  O175  1  0.01522911  0.24956523  0.81444978  1
  O  O176  1  0.03525267  0.77443415  0.38553004  1
  O  O177  1  -0.02341792  0.74800138  0.90633175  1
  O  O178  1  0.44559877  0.22623146  0.31919083  1
  O  O179  1  0.56065256  0.23211814  0.92996984  1
  O  O180  1  0.51950012  0.74816359  0.34246663  1
  O  O181  1  0.50966140  0.69579332  0.81670162  1
  O  O182  1  0.29256764  0.15447700  0.48598254  1
  O  O183  1  0.24133250  0.16735089  0.90408116  1
  O  O184  1  0.25622784  0.60939727  0.46591705  1
  O  O185  1  0.28700523  0.56315345  0.98751286  1
  O  O186  1  0.72629848  0.14805675  0.45730012  1
  O  O187  1  0.76089180  0.04970169  1.04106880  1
  O  O188  1  0.71721956  0.61365750  0.55238391  1
  O  O189  1  0.68922702  0.61559280  1.03789760  1
  O  O190  1  0.24607048  0.36094667  -0.05176234  1
  O  O191  1  0.26351506  0.41348397  0.48116220  1
  O  O192  1  0.30615794  0.84823244  -0.08892244  1
  O  O193  1  0.16714691  0.98865064  0.45534019  1
  O  O194  1  0.71945633  0.43379984  0.07837622  1
  O  O195  1  0.78135847  0.42051719  0.48576410  1
  O  O196  1  0.66808487  0.88826056  0.08793494  1
  O  O197  1  0.74158651  0.88060085  0.53888706  1
  O  O198  1  0.10477519  0.51140415  0.25279012  1
  O  O199  1  0.11581224  0.51858964  0.73489780  1
  O  O200  1  0.18019575  1.04372251  0.18594919  1
  O  O201  1  0.07251379  0.98217520  0.75576903  1
  O  O202  1  0.61337044  0.54040679  0.30161189  1
  O  O203  1  0.69642653  0.46057558  0.85530567  1
  O  O204  1  0.65557259  0.97957702  0.32708159  1
  O  O205  1  0.61087300  0.99507643  0.77004669  1
  O  O206  1  0.41812007  -0.01233740  0.29303514  1
  O  O207  1  0.42139182  -0.01950965  0.75569466  1
  O  O208  1  0.35417550  0.48037091  0.24009158  1
  O  O209  1  0.30467243  0.48235450  0.71565867  1
  O  O210  1  0.91614481  -0.05138604  0.30625238  1
  O  O211  1  0.82333759  0.07452285  0.87599157  1
  O  O212  1  0.89196669  0.53163457  0.17266026  1
  O  O213  1  0.83190634  0.41615254  0.79199506  1
  O  O214  1  0.09901669  0.35808682  0.38331926  1
  O  O215  1  0.11111637  0.37360931  0.84565656  1
  O  O216  1  0.17015652  0.84646630  0.39540189  1
  O  O217  1  0.12302223  0.81084195  0.94867647  1
  O  O218  1  0.56410943  0.37420987  0.34917639  1
  O  O219  1  0.65164245  0.33784739  0.94894431  1
  O  O220  1  0.59092354  0.82322184  0.47557313  1
  O  O221  1  0.66894516  0.91243460  0.88129854  1
  O  O222  1  0.46560968  0.03176425  0.12712359  1
  O  O223  1  0.40475443  0.19544952  0.61198444  1
  O  O224  1  0.35504408  0.60512034  0.14108409  1
  O  O225  1  0.38280617  0.66292509  0.55294235  1
  O  O226  1  0.91751172  0.04724396  0.07549642  1
  O  O227  1  0.82383967  0.16316351  0.59815642  1
  O  O228  1  0.83885612  0.69705411  0.11374874  1
  O  O229  1  0.86236255  0.66054793  0.62241367  1
  O  O230  1  0.27669692  0.24947476  0.03209602  1
  O  O231  1  0.22023553  0.24580840  0.59096971  1
  O  O232  1  0.28363990  0.74262167  0.15650706  1
  O  O233  1  0.29158271  0.77973249  0.52355809  1
  O  O234  1  0.74372945  0.30280633  0.17948809  1
  O  O235  1  0.75297599  0.27835233  0.53842225  1
  O  O236  1  0.70776444  0.81821536  0.18773381  1
  O  O237  1  0.77227908  0.77946495  0.65882429  1
  O  O238  1  0.20506970  0.26893837  0.41658675  1
  O  O239  1  0.29403937  0.29564798  0.82197740  1
  O  O240  1  0.26214453  0.72932030  0.35394127  1
  O  O241  1  0.29920831  0.67598249  0.86860584  1
  O  O242  1  0.75277100  0.29498155  0.36797584  1
  O  O243  1  0.74240746  0.26587977  0.84862883  1
  O  O244  1  0.67640610  0.76925991  0.34891125  1
  O  O245  1  0.78382453  0.72627989  0.91973356  1
  O  O246  1  0.06348120  0.08100872  0.02465826  1
  O  O247  1  0.07116711  0.08369161  0.55637946  1
  O  O248  1  -0.05739935  0.61271105  0.04213129  1
  O  O249  1  -0.00566640  0.70995777  0.52866590  1
  O  O250  1  0.54901059  0.08370065  0.03181302  1
  O  O251  1  0.50004921  0.17572685  0.50822532  1
  O  O252  1  0.52544667  0.62972496  -0.02307731  1
  O  O253  1  0.47709697  0.55686019  0.41886612  1
  O  O254  1  0.46879715  0.37728732  0.50615395  1
  O  O255  1  0.45257497  0.42843313  1.05817354  1
  O  O256  1  0.51801803  0.90615103  0.62489159  1
  O  O257  1  0.46964825  0.80528812  0.93341097  1
  O  O258  1  0.97427185  0.36896114  0.48691842  1
  O  O259  1  0.98940433  0.30828367  0.99980055  1
  O  O260  1  0.98234063  0.95068042  0.58900874  1
  O  O261  1  0.93759095  0.90722175  0.90292216  1
  O  O262  1  0.51663435  0.41260468  0.31927567  1
  O  O263  1  0.56259524  0.54120331  0.79546071  1
  O  O264  1  0.47891351  0.95039759  0.40255972  1
  O  O265  1  0.49352927  1.09880891  0.84193289  1
  O  O266  1  1.02401075  0.48809341  0.39378043  1
  O  O267  1  0.96379417  0.47037520  0.82615816  1
  O  O268  1  1.03639331  1.07468027  0.49738124  1
  O  O269  1  0.87549589  1.12116445  0.85974128  1
  O  O270  1  0.02007439  -0.06541349  0.08324358  1
  O  O271  1  -0.05116124  -0.00905755  0.75967425  1
  O  O272  1  0.04175580  0.49220084  0.11354368  1
  O  O273  1  0.00565513  0.53481635  0.64710132  1
  O  O274  1  0.59146404  0.03497895  0.16784944  1
  O  O275  1  0.55985867  0.06103018  0.61906468  1
  O  O276  1  0.47134196  0.43763199  0.12800767  1
  O  O277  1  0.46071082  0.51215942  0.72943851  1
  O  O278  1  0.22333335  0.40492332  0.27593120  1
  O  O279  1  0.18725300  0.36551022  0.71050806  1
  O  O280  1  0.25160165  0.88679701  0.26515706  1
  O  O281  1  0.24532123  0.80121713  0.73921259  1
  O  O282  1  0.74182254  0.44679811  0.26170229  1
  O  O283  1  0.72699206  0.32621258  0.68110301  1
  O  O284  1  0.64623446  0.91962301  0.29213111  1
  O  O285  1  0.74807468  0.92688627  0.75129268  1
  O  O286  1  0.21018539  0.21091574  0.19212515  1
  O  O287  1  0.22660753  0.09541472  0.73720720  1
  O  O288  1  0.24667765  0.60078441  0.25307707  1
  O  O289  1  0.23202210  0.63204852  0.73113396  1
  O  O290  1  0.77689850  0.03236182  0.21150992  1
  O  O291  1  0.62945124  0.16640141  0.71270730  1
  O  O292  1  0.73283601  0.62266177  0.22932354  1
  O  O293  1  0.72194746  0.61230314  0.72362068  1
  O  O294  1  0.42138681  0.09351205  0.39606484  1
  O  O295  1  0.33705401  0.08025585  0.84500709  1
  O  O296  1  0.35246737  0.61595900  0.34526269  1
  O  O297  1  0.39125827  0.55223945  0.86902812  1
  O  O298  1  0.92702847  0.08707306  0.37664578  1
  O  O299  1  0.90373934  0.16633434  0.92737233  1
  O  O300  1  0.88519418  0.66282505  0.34680384  1
  O  O301  1  0.85147107  0.54029638  0.86839164  1
  O  O302  1  0.15399269  0.33528737  0.09184583  1
  O  O303  1  0.08765486  0.42141929  0.58224393  1
  O  O304  1  0.16358280  0.88885629  0.13564229  1
  O  O305  1  0.01047771  0.94779611  0.74753403  1
  O  O306  1  0.61724864  0.38155393  0.18029897  1
  O  O307  1  0.65088741  0.39606285  0.56707371  1
  O  O308  1  0.67530337  0.81565017  0.12115567  1
  O  O309  1  0.64870934  0.87747915  0.66856143  1
  O  O310  1  0.22914846  0.26150485  0.23820873  1
  O  O311  1  0.15168903  0.22723087  0.76486496  1
  O  O312  1  0.14306126  0.76727337  0.25267278  1
  O  O313  1  0.09049468  0.77549068  0.79552517  1
  O  O314  1  0.51809996  0.28267832  0.21376475  1
  O  O315  1  0.62418775  0.29071841  0.81272735  1
  O  O316  1  0.58181670  0.70116087  0.20939638  1
  O  O317  1  0.68288045  0.76342871  0.80920149  1
  O  O318  1  0.36526480  0.16351006  0.22185085  1
  O  O319  1  0.45534933  0.23461170  0.75791046  1
  O  O320  1  0.40443703  0.76024533  0.26226900  1
  O  O321  1  0.33510239  0.73215115  0.65283116  1
  O  O322  1  0.86631880  0.22230510  0.25769128  1
  O  O323  1  0.88000670  0.24705334  0.74179672  1
  O  O324  1  0.87625708  0.68909351  0.18379685  1
  O  O325  1  0.88920692  0.74949039  0.75241882  1
  O  O326  1  0.36998811  0.48546332  0.54414668  1
  O  O327  1  0.41362005  0.48314679  1.02506010  1
  O  O328  1  0.39269485  1.01888348  0.49657485  1
  O  O329  1  0.42392207  0.96632658  0.92116778  1
  O  O330  1  0.90456121  0.50463666  0.53217770  1
  O  O331  1  0.93858947  0.45279598  0.95902888  1
  O  O332  1  0.86723411  1.01819335  0.51077154  1
  O  O333  1  0.93993709  0.97831800  0.90688362  1
  O  O334  1  0.17802422  -0.04427204  0.00705798  1
  O  O335  1  0.19279828  0.02929845  0.50816166  1
  O  O336  1  0.14319455  0.49948932  -0.00508668  1
  O  O337  1  0.09432940  0.57860982  0.52841175  1
  O  O338  1  0.72096049  0.01497120  -0.00649313  1
  O  O339  1  0.58163750  0.08555609  0.46939136  1
  O  O340  1  0.60225000  0.49129429  -0.02147611  1
  O  O341  1  0.57158914  0.57207344  0.58585925  1
  O  O342  1  0.30578984  0.39226964  0.10355210  1
  O  O343  1  0.38684915  0.35012542  0.67371112  1
  O  O344  1  0.38274340  0.87443520  0.04740129  1
  O  O345  1  0.37817867  0.86073152  0.59853038  1
  O  O346  1  0.89797894  0.35703716  0.15386611  1
  O  O347  1  0.85772236  0.35322815  0.58605779  1
  O  O348  1  0.91485032  0.84066938  0.17457220  1
  O  O349  1  0.83940764  0.93261366  0.64107499  1
  O  O350  1  0.10835276  0.17339273  0.33196340  1
  O  O351  1  0.13089255  0.09153487  0.87459541  1
  O  O352  1  0.14066035  0.65308550  0.36395764  1
  O  O353  1  0.08674690  0.64287780  0.87674656  1
  O  O354  1  0.67179580  0.18007539  0.29521740  1
  O  O355  1  0.65120821  0.15195618  0.87154466  1
  O  O356  1  0.52636689  0.52377705  0.45101411  1
  O  O357  1  0.66052038  0.62575314  0.88633996  1
