# generated using pymatgen
data_V51Zn51O256
_symmetry_space_group_name_H-M   'P 1'
_cell_length_a   17.50715622
_cell_length_b   17.32780149
_cell_length_c   17.52956372
_cell_angle_alpha   90.22028824
_cell_angle_beta   89.87937542
_cell_angle_gamma   90.08608618
_symmetry_Int_Tables_number   1
_chemical_formula_structural   V51Zn51O256
_chemical_formula_sum   'V51 Zn51 O256'
_cell_volume   5317.72067323
_cell_formula_units_Z   1
loop_
 _symmetry_equiv_pos_site_id
 _symmetry_equiv_pos_as_xyz
  1  'x, y, z'
loop_
 _atom_site_type_symbol
 _atom_site_label
 _atom_site_symmetry_multiplicity
 _atom_site_fract_x
 _atom_site_fract_y
 _atom_site_fract_z
 _atom_site_occupancy
  V  V0  1  0.76529730  0.12344757  0.37747920  1
  V  V1  1  -0.02195366  0.11115981  0.66230852  1
  V  V2  1  0.44226628  0.37829726  0.91492284  1
  V  V3  1  0.50983933  0.51186338  0.50662860  1
  V  V4  1  0.36685369  0.60547339  0.74999551  1
  V  V5  1  0.36418543  0.65383245  0.26858160  1
  V  V6  1  0.04547610  0.43414079  0.51178314  1
  V  V7  1  0.36043062  -0.03459737  0.88764401  1
  V  V8  1  0.37392656  0.36767682  0.49097126  1
  V  V9  1  -0.01185575  0.01257276  -0.00919174  1
  V  V10  1  0.06548379  0.24539375  0.23839225  1
  V  V11  1  0.88278920  0.77777578  0.61200944  1
  V  V12  1  0.34202378  0.50688811  0.91846340  1
  V  V13  1  0.68981809  0.37887632  0.17285426  1
  V  V14  1  0.20290151  0.72222937  0.00775162  1
  V  V15  1  0.47463021  0.74225858  0.78414452  1
  V  V16  1  0.70275395  0.23360238  0.48947921  1
  V  V17  1  0.00882489  0.12601509  0.12488626  1
  V  V18  1  0.25166595  0.86576632  0.10020095  1
  V  V19  1  0.97223365  0.43175564  -0.00029776  1
  V  V20  1  0.09333722  0.12746010  0.52762500  1
  V  V21  1  0.25466528  0.49592166  0.26090673  1
  V  V22  1  0.23807642  -0.03313800  0.77968875  1
  V  V23  1  0.39723186  0.74409484  0.09738122  1
  V  V24  1  0.51732548  0.38112545  0.37510817  1
  V  V25  1  0.12629593  0.26705651  0.85218883  1
  V  V26  1  0.71581792  0.53714683  0.26552596  1
  V  V27  1  0.49044755  0.64129548  0.61955824  1
  V  V28  1  0.87745997  0.49364122  0.34633816  1
  V  V29  1  0.26851721  0.15360918  0.86272755  1
  V  V30  1  0.63247172  0.26029702  0.87087842  1
  V  V31  1  -0.04854251  0.26256854  0.76858482  1
  V  V32  1  0.51457949  0.00167488  0.52489501  1
  V  V33  1  0.50678973  0.19580616  0.20751083  1
  V  V34  1  0.84840269  0.86035495  0.45533704  1
  V  V35  1  0.15071087  0.86941256  0.23659261  1
  V  V36  1  0.73503515  0.69719879  -0.05058019  1
  V  V37  1  0.86978976  0.26576933  0.58128504  1
  V  V38  1  0.50869748  0.76658640  0.30675381  1
  V  V39  1  0.14067349  0.13068356  -0.01055352  1
  V  V40  1  0.62051806  0.84675476  0.74015373  1
  V  V41  1  0.77965061  0.56821165  0.83373775  1
  V  V42  1  0.00679541  0.89419714  0.86599857  1
  V  V43  1  0.51164035  0.13876542  0.62765611  1
  V  V44  1  0.38366019  0.03691289  0.38215665  1
  V  V45  1  0.74790640  0.89449567  0.15484351  1
  V  V46  1  0.38322349  0.52312348  0.38179052  1
  V  V47  1  0.29873420  0.38211693  0.14209117  1
  V  V48  1  0.36026940  0.25001148  0.62447702  1
  V  V49  1  -0.00988975  0.91456834  0.33849059  1
  V  V50  1  0.73459300  0.37490489  0.58944257  1
  Zn  Zn51  1  0.30863019  0.06528710  0.04718635  1
  Zn  Zn52  1  0.54535297  0.31672540  0.56095958  1
  Zn  Zn53  1  0.95788672  0.94699507  0.17618530  1
  Zn  Zn54  1  0.09038173  0.37683185  0.69783569  1
  Zn  Zn55  1  0.59318636  0.78234916  0.06412479  1
  Zn  Zn56  1  0.06703753  0.07613443  0.81278963  1
  Zn  Zn57  1  0.00485671  0.82330970  0.49530176  1
  Zn  Zn58  1  0.51568324  0.56014694  0.28865107  1
  Zn  Zn59  1  0.29944553  0.79381512  0.84343074  1
  Zn  Zn60  1  0.28709143  1.01985313  0.21220637  1
  Zn  Zn61  1  0.99963019  0.91845868  0.66663836  1
  Zn  Zn62  1  0.76124232  0.33722063  0.35947439  1
  Zn  Zn63  1  0.36751084  1.08560497  0.72411007  1
  Zn  Zn64  1  0.32921022  0.59127680  0.54941028  1
  Zn  Zn65  1  0.07701917  0.50668724  0.34097332  1
  Zn  Zn66  1  0.88602390  0.71391535  0.92769973  1
  Zn  Zn67  1  0.68791532  0.72413511  0.23768089  1
  Zn  Zn68  1  0.31873583  0.32534409  0.81407780  1
  Zn  Zn69  1  0.44206245  0.65681216  0.93562943  1
  Zn  Zn70  1  0.46699684  0.19288857  0.44226463  1
  Zn  Zn71  1  0.00015795  0.25307840  0.44033015  1
  Zn  Zn72  1  0.49941986  0.41856566  0.16557865  1
  Zn  Zn73  1  0.66227219  0.91743253  0.41511678  1
  Zn  Zn74  1  0.35874731  0.86685276  0.25872068  1
  Zn  Zn75  1  0.05967332  0.83491887  0.05269713  1
  Zn  Zn76  1  0.23594800  0.18765527  0.16573178  1
  Zn  Zn77  1  0.19178999  0.68512192  0.31088792  1
  Zn  Zn78  1  0.99388329  0.23245691  0.96325668  1
  Zn  Zn79  1  0.69072191  0.45908231  0.45083821  1
  Zn  Zn80  1  0.16643749  0.93456810  0.94412527  1
  Zn  Zn81  1  0.45496360  0.20733526  0.80892762  1
  Zn  Zn82  1  0.13692724  0.46966969  0.90946026  1
  Zn  Zn83  1  0.29234227  0.58801773  0.09334259  1
  Zn  Zn84  1  0.79174890  0.37033955  0.78799020  1
  Zn  Zn85  1  0.89362761  0.12897380  0.25342452  1
  Zn  Zn86  1  0.91481311  0.05529399  0.49691732  1
  Zn  Zn87  1  0.55269400  0.29592042  0.05668781  1
  Zn  Zn88  1  0.84396907  0.48296169  0.14825433  1
  Zn  Zn89  1  0.80950556  0.81788348  0.79563350  1
  Zn  Zn90  1  0.42084054  0.44727893  0.66269976  1
  Zn  Zn91  1  0.22359268  0.62379623  0.85718381  1
  Zn  Zn92  1  0.29062803  0.10002036  0.54622603  1
  Zn  Zn93  1  0.21890723  0.46998928  0.46261532  1
  Zn  Zn94  1  0.09306441  0.30898341  0.06359872  1
  Zn  Zn95  1  0.55328445  0.01309876  0.32896130  1
  Zn  Zn96  1  0.89070514  0.65972419  0.47024885  1
  Zn  Zn97  1  0.64373643  0.65818041  0.72709888  1
  Zn  Zn98  1  0.39023336  0.33830010  0.28459678  1
  Zn  Zn99  1  0.86759234  0.47394618  0.51920501  1
  Zn  Zn100  1  0.43863165  0.71635403  0.47668284  1
  Zn  Zn101  1  0.49127411  0.84783033  0.62382512  1
  O  O102  1  0.15906106  0.13723226  0.08395917  1
  O  O103  1  0.05118123  0.16506461  0.61558025  1
  O  O104  1  0.06532893  0.59243365  0.11557547  1
  O  O105  1  0.16189333  0.59388115  0.56299268  1
  O  O106  1  0.55228732  0.09028412  0.19032414  1
  O  O107  1  0.60052987  0.16307391  0.63843640  1
  O  O108  1  0.63624834  0.67511660  0.13322027  1
  O  O109  1  0.58581182  0.63737422  0.63569039  1
  O  O110  1  0.39674574  0.39661228  0.38601698  1
  O  O111  1  0.33740748  0.39869465  0.91046101  1
  O  O112  1  0.23015512  0.88853591  0.45571959  1
  O  O113  1  0.37116953  0.86910115  0.89574931  1
  O  O114  1  0.85364245  0.40162921  0.37532743  1
  O  O115  1  0.92506438  0.43620405  0.91905185  1
  O  O116  1  0.90109381  0.87683044  0.35033966  1
  O  O117  1  0.89415375  0.85896309  0.87068219  1
  O  O118  1  0.18683831  -0.06027544  0.47711299  1
  O  O119  1  0.25389689  -0.02364583  0.88494281  1
  O  O120  1  0.28035134  0.49916959  0.36794538  1
  O  O121  1  0.24184113  0.51635204  0.89483904  1
  O  O122  1  0.70994025  0.02818916  0.37808887  1
  O  O123  1  0.69518208  0.00570441  0.88596398  1
  O  O124  1  0.73609142  0.50752580  0.35864089  1
  O  O125  1  0.78597263  0.47112639  0.83231983  1
  O  O126  1  0.27021491  0.50092116  0.15962681  1
  O  O127  1  0.23138079  0.53725052  0.55589989  1
  O  O128  1  0.27132562  0.96435393  0.10319419  1
  O  O129  1  0.25602628  0.96915008  0.65535706  1
  O  O130  1  0.73100466  0.47934296  0.16864570  1
  O  O131  1  0.76073942  0.46801647  0.54531375  1
  O  O132  1  0.70146122  0.97837635  0.13586455  1
  O  O133  1  0.71997505  1.05194153  0.73816396  1
  O  O134  1  0.06631514  0.33901839  0.24844870  1
  O  O135  1  -0.01281949  0.34466032  0.73143264  1
  O  O136  1  0.03321520  0.89322380  0.24640939  1
  O  O137  1  0.00491121  0.88654451  0.76937952  1
  O  O138  1  0.49523904  0.40066458  0.27589949  1
  O  O139  1  0.52817125  0.39846370  0.71638258  1
  O  O140  1  0.46409902  0.83728770  0.25372078  1
  O  O141  1  0.47998892  0.83170147  0.73839620  1
  O  O142  1  0.50515144  0.08235318  0.25351090  1
  O  O143  1  0.46980644  0.13579483  0.72670919  1
  O  O144  1  0.47465062  0.67105091  0.27371828  1
  O  O145  1  0.48033705  0.64749470  0.73506445  1
  O  O146  1  1.05098300  0.10635811  0.20763148  1
  O  O147  1  0.97890676  0.14438838  0.76089742  1
  O  O148  1  1.09567736  0.62349458  0.32507426  1
  O  O149  1  1.02059158  0.66681700  0.70910713  1
  O  O150  1  0.43337585  0.31484295  -0.16557634  1
  O  O151  1  0.38658156  0.27048176  0.48008762  1
  O  O152  1  0.37632016  0.71131362  0.00848652  1
  O  O153  1  0.27822540  0.72753338  0.44966495  1
  O  O154  1  0.99154036  0.33047955  0.01839884  1
  O  O155  1  0.91019717  0.22535552  0.50178201  1
  O  O156  1  0.81314624  0.69946434  0.00988611  1
  O  O157  1  0.90796427  0.77133020  0.45255230  1
  O  O158  1  0.09707640  0.20566799  0.46916052  1
  O  O159  1  0.11829735  0.23613906  0.97766406  1
  O  O160  1  0.17442286  0.78930965  0.53394428  1
  O  O161  1  0.10698151  0.74221741  1.01258903  1
  O  O162  1  0.60652237  0.24175232  0.49723732  1
  O  O163  1  0.62376955  0.26828729  0.97560506  1
  O  O164  1  0.61684829  0.73221114  0.49429224  1
  O  O165  1  0.65519427  0.74075314  0.98533755  1
  O  O166  1  0.51035018  0.21101279  0.10857338  1
  O  O167  1  0.47353895  0.24094733  0.60550746  1
  O  O168  1  0.49424445  0.75457988  0.10059413  1
  O  O169  1  0.47056960  0.73852564  0.59253412  1
  O  O170  1  1.04139404  0.23350939  0.13462890  1
  O  O171  1  0.91362293  0.22996566  0.66584898  1
  O  O172  1  0.98272661  0.80186545  0.13324845  1
  O  O173  1  0.96994949  0.83746681  0.60137898  1
  O  O174  1  0.01807783  0.20999554  0.33558306  1
  O  O175  1  0.01421408  0.25427284  0.85556652  1
  O  O176  1  -0.03041762  0.67104896  0.32915437  1
  O  O177  1  -0.05210672  0.79404070  0.88349394  1
  O  O178  1  0.50914008  0.28379967  0.38662657  1
  O  O179  1  0.55233722  0.19386257  0.86866814  1
  O  O180  1  0.48393722  0.77697449  0.40144631  1
  O  O181  1  0.49480712  0.73649896  0.87965499  1
  O  O182  1  0.18358287  0.09007137  0.54171528  1
  O  O183  1  0.24605344  0.12201210  0.96282736  1
  O  O184  1  0.32701415  0.70550280  0.51135539  1
  O  O185  1  0.21029706  0.62489618  1.02652960  1
  O  O186  1  0.72216922  0.13735426  0.49155097  1
  O  O187  1  0.80821622  0.19267778  1.01267866  1
  O  O188  1  0.74034466  0.62715726  0.58444069  1
  O  O189  1  0.68191228  0.63168777  1.09710412  1
  O  O190  1  0.23302762  0.39697638  0.05329864  1
  O  O191  1  0.27765169  0.38083703  0.48664150  1
  O  O192  1  0.22516355  0.85778715  0.00288966  1
  O  O193  1  0.12319298  0.82818171  0.56476190  1
  O  O194  1  0.74006857  0.42802244  -0.01344069  1
  O  O195  1  0.73002147  0.34396218  0.47352250  1
  O  O196  1  0.78974500  0.87482525  0.06461793  1
  O  O197  1  0.75858642  0.86797644  0.42045248  1
  O  O198  1  0.16050300  0.48320814  0.27055495  1
  O  O199  1  0.12313527  0.58427529  0.62149903  1
  O  O200  1  0.17371226  0.98544344  0.24297481  1
  O  O201  1  0.14661332  0.99883996  0.77459217  1
  O  O202  1  0.61704125  0.53765907  0.25790443  1
  O  O203  1  0.58157753  0.44048054  0.73836027  1
  O  O204  1  0.59794417  0.91534939  0.32800828  1
  O  O205  1  0.58910794  0.95286896  0.77491613  1
  O  O206  1  0.34797105  -0.01901918  0.29880174  1
  O  O207  1  0.35267521  -0.01082955  0.78317378  1
  O  O208  1  0.39924578  0.53569562  0.27452842  1
  O  O209  1  0.38541191  0.50633132  0.74755141  1
  O  O210  1  0.93258572  0.02010058  0.27428590  1
  O  O211  1  0.74910853  0.03809158  0.91793878  1
  O  O212  1  0.84088561  0.51579300  0.25415836  1
  O  O213  1  0.87179147  0.60993201  0.79634762  1
  O  O214  1  0.20282754  0.28871728  0.37871127  1
  O  O215  1  0.13759674  0.35657971  0.89032956  1
  O  O216  1  0.16548693  0.94590328  0.31186496  1
  O  O217  1  0.09823570  0.86673808  0.88598308  1
  O  O218  1  0.60983268  0.40311780  0.38825665  1
  O  O219  1  0.57604139  0.34832852  0.89063093  1
  O  O220  1  0.64958654  0.79454639  0.50164980  1
  O  O221  1  0.58457534  0.90727308  0.83460699  1
  O  O222  1  0.50292300  0.01553486  0.08252123  1
  O  O223  1  0.36052383  0.13583309  0.62177518  1
  O  O224  1  0.36678458  0.65973025  0.15962253  1
  O  O225  1  0.37929553  0.61937563  0.64351116  1
  O  O226  1  0.91384381  0.13788177  0.14369212  1
  O  O227  1  0.90106397  0.08631409  0.60697199  1
  O  O228  1  0.92461359  0.68884729  0.16181002  1
  O  O229  1  0.89613039  0.68428893  0.58033770  1
  O  O230  1  0.28747337  0.28546705  0.14118517  1
  O  O231  1  0.27536092  0.25289383  0.58402225  1
  O  O232  1  0.24692218  0.75163994  0.09502272  1
  O  O233  1  0.22966858  0.73714118  0.64671701  1
  O  O234  1  0.74738069  0.32777174  0.11962919  1
  O  O235  1  0.76274207  0.25952332  0.58110179  1
  O  O236  1  0.75677514  0.79104453  0.18328449  1
  O  O237  1  0.73350198  0.68876958  0.61924273  1
  O  O238  1  0.25611742  0.24370122  0.38368992  1
  O  O239  1  0.24160017  0.25261189  0.85369688  1
  O  O240  1  0.23731363  0.66987192  0.42275048  1
  O  O241  1  0.23623298  0.72330358  0.90589132  1
  O  O242  1  0.73999925  0.22882656  0.38801066  1
  O  O243  1  0.70885638  0.32142411  0.84973238  1
  O  O244  1  0.75520220  0.69150695  0.42078474  1
  O  O245  1  0.77407506  0.74273822  0.86946254  1
  O  O246  1  0.01718288  0.12837520  0.00804783  1
  O  O247  1  0.02751157  0.06163462  0.49465360  1
  O  O248  1  -0.05601027  0.73472127  0.10929711  1
  O  O249  1  0.05122953  0.71215173  0.51224050  1
  O  O250  1  0.51393789  0.04236808  -0.08082794  1
  O  O251  1  0.49321083  0.11217045  0.51666955  1
  O  O252  1  0.51865040  0.59726220  0.00634320  1
  O  O253  1  0.48562193  0.61901440  0.51254360  1
  O  O254  1  0.49307917  0.40108853  0.49455644  1
  O  O255  1  0.46526546  0.34320181  1.00163506  1
  O  O256  1  0.46016091  0.91959972  0.54611742  1
  O  O257  1  0.55806782  0.88188077  0.99284305  1
  O  O258  1  1.00774448  0.36057778  0.46003468  1
  O  O259  1  1.06185150  0.47672506  0.98788913  1
  O  O260  1  1.04510006  0.88067985  0.41192441  1
  O  O261  1  1.00084278  0.90800575  0.99167467  1
  O  O262  1  0.49302145  0.51207370  0.39335103  1
  O  O263  1  0.45747104  0.47505441  0.90415356  1
  O  O264  1  0.47374697  0.99972093  0.41072483  1
  O  O265  1  0.47737688  1.01111318  0.86642851  1
  O  O266  1  0.97218473  0.49071047  0.32506811  1
  O  O267  1  1.10387391  0.46573217  0.78681884  1
  O  O268  1  0.98025036  1.02031696  0.34027149  1
  O  O269  1  1.00486658  1.00083373  0.87720175  1
  O  O270  1  0.00203612  0.01419836  0.09864410  1
  O  O271  1  0.02357441  0.02300464  0.67534274  1
  O  O272  1  0.02680193  0.55757183  0.16256957  1
  O  O273  1  0.09224237  0.40517685  0.59324158  1
  O  O274  1  0.48057170  -0.04453968  0.11182015  1
  O  O275  1  0.52497221  0.03019189  0.62292310  1
  O  O276  1  0.53432876  0.52098185  0.10801534  1
  O  O277  1  0.48955576  0.51718971  0.60793240  1
  O  O278  1  0.29275210  0.39452467  0.25099661  1
  O  O279  1  0.25818053  0.41402578  0.75522995  1
  O  O280  1  0.25521838  0.86270385  0.21600221  1
  O  O281  1  0.24117469  0.86835895  0.77764162  1
  O  O282  1  0.70600336  0.35722376  0.26696141  1
  O  O283  1  0.76366091  0.38088968  0.68231522  1
  O  O284  1  0.74541628  0.91023029  0.25462350  1
  O  O285  1  0.71607983  0.85760668  0.75290462  1
  O  O286  1  0.30884286  0.10709382  0.14895163  1
  O  O287  1  0.26049196  0.10233910  0.77779565  1
  O  O288  1  0.26509922  0.60953173  0.26606097  1
  O  O289  1  0.27023114  0.61240361  0.75393519  1
  O  O290  1  0.78916668  0.12812935  0.28251123  1
  O  O291  1  0.78557524  0.07466172  0.74870137  1
  O  O292  1  0.74073517  0.63242974  0.26044930  1
  O  O293  1  0.72057136  0.59360751  0.75988204  1
  O  O294  1  0.40317161  0.13105522  0.36547462  1
  O  O295  1  0.36577693  0.16268804  0.86790477  1
  O  O296  1  0.37931318  0.62405500  0.38259626  1
  O  O297  1  0.37548603  0.59446797  0.86768713  1
  O  O298  1  0.85045141  0.09848857  0.41776072  1
  O  O299  1  0.85041833  0.19924241  0.95664936  1
  O  O300  1  0.87044071  0.55930344  0.42895293  1
  O  O301  1  0.88051202  0.60726577  0.87724439  1
  O  O302  1  0.17288353  0.38314814  0.10208510  1
  O  O303  1  0.22666114  0.39951792  0.69197357  1
  O  O304  1  0.14164964  0.86562418  0.13155998  1
  O  O305  1  0.17152026  0.73697000  0.68600507  1
  O  O306  1  0.59465834  0.37197649  0.12968774  1
  O  O307  1  0.63760812  0.37169436  0.59642637  1
  O  O308  1  0.65345043  0.85242193  0.13276872  1
  O  O309  1  0.60321417  0.85528693  0.64514731  1
  O  O310  1  0.16093264  0.21646792  0.24075231  1
  O  O311  1  0.12720418  0.28465911  0.75667104  1
  O  O312  1  0.14724486  0.78303155  0.28361206  1
  O  O313  1  0.03298109  0.71191189  0.76163273  1
  O  O314  1  0.58141191  0.23886734  0.24324880  1
  O  O315  1  0.61472973  0.25340508  0.77387849  1
  O  O316  1  0.60589460  0.75727985  0.29626480  1
  O  O317  1  0.59823028  0.74801011  0.76703031  1
  O  O318  1  0.42332565  0.24365688  0.24231199  1
  O  O319  1  0.34817118  0.26651462  0.71985155  1
  O  O320  1  0.33763394  0.74408813  0.29130815  1
  O  O321  1  0.37185744  0.72579302  0.78480835  1
  O  O322  1  0.95785975  0.22191374  0.27969486  1
  O  O323  1  0.86601963  0.28829811  0.80532370  1
  O  O324  1  1.03186293  0.67488008  0.29421899  1
  O  O325  1  0.86132255  0.77884767  0.70639255  1
  O  O326  1  0.37965395  0.50663203  0.48856039  1
  O  O327  1  0.34958096  0.53142328  1.01061054  1
  O  O328  1  0.32587562  1.03496618  0.46108587  1
  O  O329  1  0.37203183  1.01403074  0.97265141  1
  O  O330  1  0.97267152  0.49709448  0.53525164  1
  O  O331  1  0.91709490  0.47308635  1.07542170  1
  O  O332  1  0.88913357  0.94318990  0.48790515  1
  O  O333  1  0.89682161  1.02668351  0.98358088  1
  O  O334  1  0.11681685  0.02981090  -0.02401705  1
  O  O335  1  0.14369389  0.08190371  0.36971854  1
  O  O336  1  0.10386175  0.54288559  -0.22951151  1
  O  O337  1  0.11167328  0.48112174  0.44433223  1
  O  O338  1  0.59609154  -0.05740357  -0.01035634  1
  O  O339  1  0.60264781  -0.02800913  0.49539501  1
  O  O340  1  0.48717681  0.56573130  0.06876051  1
  O  O341  1  0.60467114  0.51683983  0.50158660  1
  O  O342  1  0.39340311  0.40115548  0.13024812  1
  O  O343  1  0.38575989  0.36584717  0.59895815  1
  O  O344  1  0.35980751  0.83847213  0.11323013  1
  O  O345  1  0.28286158  0.90867734  0.62521628  1
  O  O346  1  0.79322411  0.38215815  -0.01722932  1
  O  O347  1  0.87758157  0.36219193  0.57443825  1
  O  O348  1  0.84651599  0.92764067  0.16634212  1
  O  O349  1  0.81490411  0.82501304  0.55655798  1
  O  O350  1  0.20684412  0.10723975  0.35321953  1
  O  O351  1  0.13548084  0.15084741  0.86590739  1
  O  O352  1  0.11649881  0.70571165  0.48222104  1
  O  O353  1  0.11060374  0.58547917  0.83589249  1
  O  O354  1  0.65410295  0.08043973  0.35452864  1
  O  O355  1  0.69775214  0.18947858  0.88910240  1
  O  O356  1  0.69610711  0.65307530  0.42829251  1
  O  O357  1  0.72559726  0.59848087  0.91797958  1
