# generated using pymatgen
data_V51Zn51O256
_symmetry_space_group_name_H-M   'P 1'
_cell_length_a   17.52827769
_cell_length_b   17.45277495
_cell_length_c   17.75031765
_cell_angle_alpha   90.43163065
_cell_angle_beta   90.50055373
_cell_angle_gamma   90.28162742
_symmetry_Int_Tables_number   1
_chemical_formula_structural   V51Zn51O256
_chemical_formula_sum   'V51 Zn51 O256'
_cell_volume   5429.69677828
_cell_formula_units_Z   1
loop_
 _symmetry_equiv_pos_site_id
 _symmetry_equiv_pos_as_xyz
  1  'x, y, z'
loop_
 _atom_site_type_symbol
 _atom_site_label
 _atom_site_symmetry_multiplicity
 _atom_site_fract_x
 _atom_site_fract_y
 _atom_site_fract_z
 _atom_site_occupancy
  V  V0  1  0.57840346  0.60290001  0.46355527  1
  V  V1  1  0.32945019  0.71452700  0.77789246  1
  V  V2  1  0.76161663  -0.04052407  0.26497474  1
  V  V3  1  0.01274341  0.23671355  0.26241847  1
  V  V4  1  0.77687639  0.72276335  0.48699963  1
  V  V5  1  0.49614842  0.66273854  0.07375876  1
  V  V6  1  -0.06473220  0.13165233  0.59321654  1
  V  V7  1  0.64899124  -0.05281732  0.60569758  1
  V  V8  1  0.72717819  0.23424200  0.02587738  1
  V  V9  1  0.24369038  0.50758610  0.23326197  1
  V  V10  1  0.24614593  0.15933336  0.36137416  1
  V  V11  1  0.58317973  0.73062658  0.35691660  1
  V  V12  1  0.37432805  0.87551686  0.49868090  1
  V  V13  1  0.38459694  0.50430987  0.36542026  1
  V  V14  1  0.58392194  0.52554292  0.11382295  1
  V  V15  1  0.14822622  0.27446782  0.86356875  1
  V  V16  1  0.75557297  0.60961211  0.35548144  1
  V  V17  1  -0.00980049  0.77020870  0.25775190  1
  V  V18  1  0.56106378  0.10397060  0.62197600  1
  V  V19  1  0.59073838  0.26825763  0.33730065  1
  V  V20  1  0.16231619  0.88512096  0.92522889  1
  V  V21  1  0.12546675  0.78664658  0.40844268  1
  V  V22  1  0.23448538  0.38573248  0.11977262  1
  V  V23  1  0.35589126  0.48387911  0.84373106  1
  V  V24  1  0.11246916  0.93410173  0.73496366  1
  V  V25  1  0.09603388  0.37881284  0.23184967  1
  V  V26  1  0.29267421  0.02747261  0.71955691  1
  V  V27  1  0.17358556  0.14870683  0.52657540  1
  V  V28  1  0.61247489  0.86466532  0.24880835  1
  V  V29  1  0.86806839  0.13373712  0.78712700  1
  V  V30  1  0.76635150  0.84910761  0.12769399  1
  V  V31  1  0.61618746  0.51194914  0.64422063  1
  V  V32  1  0.89035822  0.87900542  0.00512054  1
  V  V33  1  0.74723975  0.48559500  0.22264416  1
  V  V34  1  0.37100878  0.17282463  0.25134022  1
  V  V35  1  0.76664265  0.73680940  -0.01350789  1
  V  V36  1  -0.02278357  0.79381591  0.74108054  1
  V  V37  1  0.13060595  0.64269817  -0.02312864  1
  V  V38  1  0.48639110  0.09917298  0.15137108  1
  V  V39  1  0.64704258  0.09936829  0.44775625  1
  V  V40  1  0.50789845  0.90383442  0.92805492  1
  V  V41  1  0.50998952  0.44635225  0.49949359  1
  V  V42  1  0.74718187  0.25801211  0.47356068  1
  V  V43  1  0.85701391  0.38517794  0.45369401  1
  V  V44  1  0.87378709  0.89192810  0.52606363  1
  V  V45  1  0.54419089  0.77247365  0.73277265  1
  V  V46  1  -0.04518208  0.11202999  0.12584221  1
  V  V47  1  0.88815474  0.61340646  0.24069001  1
  V  V48  1  0.50938541  0.89399780  0.39184757  1
  V  V49  1  0.83177992  0.12840824  0.25643356  1
  V  V50  1  0.35577735  0.01836955  0.37903829  1
  Zn  Zn51  1  0.26156059  0.65232097  0.34195959  1
  Zn  Zn52  1  0.40275139  0.54547411  0.14564032  1
  Zn  Zn53  1  0.95144494  0.70841670  0.93974972  1
  Zn  Zn54  1  0.92455893  0.96953703  0.69615452  1
  Zn  Zn55  1  0.98848220  0.27078097  0.72842815  1
  Zn  Zn56  1  0.04695152  0.82983217  0.57431779  1
  Zn  Zn57  1  0.54547378  0.57236712  0.26623726  1
  Zn  Zn58  1  0.53885002  -0.03149012  0.75329229  1
  Zn  Zn59  1  0.47457644  0.15732996  0.43871473  1
  Zn  Zn60  1  0.56313574  0.79226273  0.53860505  1
  Zn  Zn61  1  0.01647653  0.25350073  0.53169492  1
  Zn  Zn62  1  0.19485615  0.97299551  0.45125716  1
  Zn  Zn63  1  0.14592796  0.28841000  0.40654926  1
  Zn  Zn64  1  0.48179705  0.41553454  0.69499070  1
  Zn  Zn65  1  0.04184132  0.78460618  0.06836207  1
  Zn  Zn66  1  0.41694626  0.91345017  0.23542096  1
  Zn  Zn67  1  0.93944558  0.92474457  0.16738481  1
  Zn  Zn68  1  0.72738935  0.44126809  1.03307907  1
  Zn  Zn69  1  0.78700677  0.76072848  0.28356394  1
  Zn  Zn70  1  0.04882985  0.11036426  0.80691516  1
  Zn  Zn71  1  0.33161523  0.06792154  0.52764623  1
  Zn  Zn72  1  0.66865345  0.67776324  0.17780338  1
  Zn  Zn73  1  0.21269330  1.03726162  1.03856106  1
  Zn  Zn74  1  0.65109254  0.67382347  0.63227958  1
  Zn  Zn75  1  0.88819181  0.37708742  0.97920587  1
  Zn  Zn76  1  0.58995059  0.82110001  0.05059816  1
  Zn  Zn77  1  0.34195444  0.63837072  -0.02917600  1
  Zn  Zn78  1  0.38563513  0.87966488  0.70357223  1
  Zn  Zn79  1  0.34908184  0.29064027  0.91968867  1
  Zn  Zn80  1  0.63995624  0.11481659  0.25007956  1
  Zn  Zn81  1  0.18651035  0.18449159  0.17079033  1
  Zn  Zn82  1  0.24628841  0.19921638  0.70354793  1
  Zn  Zn83  1  0.65391802  0.79162711  0.88213391  1
  Zn  Zn84  1  0.48209127  0.71124691  0.89229600  1
  Zn  Zn85  1  0.93261873  0.42327938  0.26889043  1
  Zn  Zn86  1  0.30892986  0.20375261  0.07469585  1
  Zn  Zn87  1  0.91184158  0.17766773  0.40987306  1
  Zn  Zn88  1  0.69913122  0.89391263  0.44000696  1
  Zn  Zn89  1  0.29257052  0.33863602  0.29824472  1
  Zn  Zn90  1  0.78999264  0.03349949  0.08630476  1
  Zn  Zn91  1  0.66888206  0.42763114  0.38733950  1
  Zn  Zn92  1  0.20075150  0.46651287  0.93804633  1
  Zn  Zn93  1  0.83700935  0.55846063  0.05747645  1
  Zn  Zn94  1  0.34544175  0.83240259  0.89160531  1
  Zn  Zn95  1  0.04725664  0.31612398  0.04496544  1
  Zn  Zn96  1  0.89910543  0.19932279  0.96303597  1
  Zn  Zn97  1  0.78466223  0.04953444  0.52766808  1
  Zn  Zn98  1  0.75723974  0.52304344  0.52543386  1
  Zn  Zn99  1  0.75110971  0.18844976  0.64869976  1
  Zn  Zn100  1  0.07735371  0.56342556  0.30174105  1
  Zn  Zn101  1  0.15018900  0.75674140  0.81196160  1
  O  O102  1  0.05707445  0.15177072  0.09240673  1
  O  O103  1  0.18169394  0.16416551  0.62118846  1
  O  O104  1  0.19210191  0.64405414  0.06835250  1
  O  O105  1  0.09604254  0.47084006  0.67024531  1
  O  O106  1  0.58214659  0.08951183  0.15739244  1
  O  O107  1  0.64562025  0.14799373  0.64169223  1
  O  O108  1  0.60560564  0.62679042  0.09429778  1
  O  O109  1  0.60551808  0.59226103  0.55826366  1
  O  O110  1  0.49276398  0.34816126  0.19261302  1
  O  O111  1  0.35182185  0.38595414  0.87422831  1
  O  O112  1  0.40406967  0.91546015  0.39140369  1
  O  O113  1  0.41101789  0.89791722  0.94686315  1
  O  O114  1  0.89689969  0.39180403  0.36715316  1
  O  O115  1  0.91576825  0.38976692  0.83660075  1
  O  O116  1  0.99233419  0.96651153  0.38047171  1
  O  O117  1  0.91794655  0.88762737  0.91737186  1
  O  O118  1  0.25636163  0.03912710  0.37446160  1
  O  O119  1  0.34923454  0.09122387  0.94587097  1
  O  O120  1  0.31323447  0.44857897  0.31627928  1
  O  O121  1  0.24831027  0.47500868  0.83332429  1
  O  O122  1  0.76138496  -0.06162407  0.35822441  1
  O  O123  1  0.78217375  -0.10941616  0.76515584  1
  O  O124  1  0.72172062  0.51177428  0.33022606  1
  O  O125  1  0.82455142  0.46061396  0.99334187  1
  O  O126  1  0.19222581  0.49974966  0.15181431  1
  O  O127  1  0.21514555  0.43362235  0.56854367  1
  O  O128  1  0.23354222  0.96188893  0.12449448  1
  O  O129  1  0.31069351  1.05157558  0.62819444  1
  O  O130  1  0.75718905  0.50633242  0.12602215  1
  O  O131  1  0.70149381  0.48121925  0.60455238  1
  O  O132  1  0.73892238  0.94992501  0.14162859  1
  O  O133  1  0.73295735  0.99589262  0.61248042  1
  O  O134  1  -0.01194608  0.33093261  0.22247539  1
  O  O135  1  -0.10063262  0.33958427  0.78770929  1
  O  O136  1  -0.02158117  0.86540641  0.25625763  1
  O  O137  1  -0.00475315  0.89692657  0.74569126  1
  O  O138  1  0.45210326  0.34406436  0.13676679  1
  O  O139  1  0.48351791  0.36786304  0.79032019  1
  O  O140  1  0.51051116  0.87986095  0.28403948  1
  O  O141  1  0.49386835  0.86047309  0.73211555  1
  O  O142  1  0.46816718  0.13078680  0.24707265  1
  O  O143  1  0.52803653  0.07161314  0.70643807  1
  O  O144  1  0.49306147  0.61631148  0.17680385  1
  O  O145  1  0.49434954  0.70446937  0.78195588  1
  O  O146  1  0.94429540  0.17008410  0.22213585  1
  O  O147  1  0.96469245  0.17157679  0.77537902  1
  O  O148  1  0.98324474  0.60506512  0.25961593  1
  O  O149  1  1.03584140  0.71976157  0.79825103  1
  O  O150  1  0.37426647  0.25550025  0.01056209  1
  O  O151  1  0.44324869  0.20397852  0.55431659  1
  O  O152  1  0.36553435  0.71121318  -0.11014309  1
  O  O153  1  0.32577759  0.80021030  0.47486072  1
  O  O154  1  0.80229103  0.24740514  0.09387498  1
  O  O155  1  0.84398346  0.26046341  0.44857231  1
  O  O156  1  0.87556361  0.76193088  -0.00423793  1
  O  O157  1  0.86236336  0.69042566  0.49907197  1
  O  O158  1  0.11574052  0.23135330  0.49584452  1
  O  O159  1  0.11082081  0.26909670  0.95707359  1
  O  O160  1  0.09915838  0.76677791  0.49831137  1
  O  O161  1  0.10526514  0.84234296  0.98873908  1
  O  O162  1  0.64058526  0.23951034  0.43501414  1
  O  O163  1  0.68654149  0.20446701  0.94085775  1
  O  O164  1  0.59512793  0.71137597  0.46343149  1
  O  O165  1  0.66191828  0.76368829  0.99026418  1
  O  O166  1  0.49640215  0.20567944  0.09614447  1
  O  O167  1  0.57365466  0.26905240  0.75245241  1
  O  O168  1  0.49906098  0.75841415  0.08462859  1
  O  O169  1  0.56118668  0.74255087  0.63654583  1
  O  O170  1  1.01897002  0.21808950  0.10082100  1
  O  O171  1  0.97581662  0.22011141  0.63026574  1
  O  O172  1  1.03573526  0.74969943  0.17540924  1
  O  O173  1  1.02480178  0.76515459  0.65990955  1
  O  O174  1  -0.00560063  0.22924282  0.35654605  1
  O  O175  1  0.05924691  0.29005378  0.81807570  1
  O  O176  1  0.00447446  0.64595281  0.54740745  1
  O  O177  1  -0.00355808  0.76787218  0.85081833  1
  O  O178  1  0.50376053  0.23665064  0.37303889  1
  O  O179  1  0.40480131  0.22327148  0.77559785  1
  O  O180  1  0.49147785  0.73718755  0.34647964  1
  O  O181  1  0.53703954  0.81027740  0.89887007  1
  O  O182  1  0.26486651  0.15437123  0.48254076  1
  O  O183  1  0.22118320  0.13511363  1.07812105  1
  O  O184  1  0.16596516  0.59146794  0.59530193  1
  O  O185  1  0.23366229  0.67317762  1.00861929  1
  O  O186  1  0.73887575  0.14626593  0.47306101  1
  O  O187  1  0.75425324  0.13549337  1.03755338  1
  O  O188  1  0.73132413  0.60494472  0.45697972  1
  O  O189  1  0.77859455  0.64199551  1.01006554  1
  O  O190  1  0.22020814  0.40379737  0.02499648  1
  O  O191  1  0.16445226  0.39405802  0.45839126  1
  O  O192  1  0.24153952  0.88458455  0.10805226  1
  O  O193  1  0.30732796  0.96032378  0.47888006  1
  O  O194  1  0.69783379  0.33153373  0.02188227  1
  O  O195  1  0.74920208  0.36749661  0.44654581  1
  O  O196  1  0.77814698  0.85017989  0.02489861  1
  O  O197  1  0.79406117  0.82982498  0.48334256  1
  O  O198  1  0.04757526  0.46340602  0.25483452  1
  O  O199  1  0.06575418  0.41676625  0.70743159  1
  O  O200  1  0.12303190  1.00058348  0.26022879  1
  O  O201  1  0.07823801  1.02295542  0.75596327  1
  O  O202  1  0.62897943  0.51187059  0.20544695  1
  O  O203  1  0.63591255  0.59014080  0.70155907  1
  O  O204  1  0.64196958  0.95689348  0.26420288  1
  O  O205  1  0.62622810  0.92272545  0.69539760  1
  O  O206  1  0.37437308  0.00172546  0.28541154  1
  O  O207  1  0.37136603  -0.01957078  0.75408099  1
  O  O208  1  0.32140972  0.56347368  0.21512748  1
  O  O209  1  0.37379237  0.45559904  0.75157339  1
  O  O210  1  0.85558528  -0.03651631  0.24351300  1
  O  O211  1  0.86654924  0.04015438  0.75765112  1
  O  O212  1  0.85623034  0.50409982  0.24167222  1
  O  O213  1  0.92956202  0.51193800  0.71641911  1
  O  O214  1  0.10071681  0.32432715  0.31348888  1
  O  O215  1  0.14968611  0.37634863  0.87908354  1
  O  O216  1  0.15020189  0.88304706  0.40601257  1
  O  O217  1  0.18424826  0.97852079  0.95371129  1
  O  O218  1  0.59520345  0.36690208  0.33177215  1
  O  O219  1  0.66989827  0.42823714  0.88629915  1
  O  O220  1  0.60874952  0.83814653  0.37955477  1
  O  O221  1  0.67083997  0.91262126  0.87232186  1
  O  O222  1  0.37099845  0.14893045  0.15257541  1
  O  O223  1  0.47198032  0.17514386  0.61529480  1
  O  O224  1  0.39531578  0.62982769  0.06512663  1
  O  O225  1  0.36583717  0.68671037  0.69821901  1
  O  O226  1  0.85268888  0.09340140  0.15689038  1
  O  O227  1  0.83547923  0.12881276  0.59636317  1
  O  O228  1  0.87590271  0.62219374  0.14737628  1
  O  O229  1  0.90691043  0.47393366  0.66216039  1
  O  O230  1  0.24661441  0.28428268  0.13259373  1
  O  O231  1  0.31541498  0.26141332  0.63780849  1
  O  O232  1  0.30889744  0.71615734  0.24895681  1
  O  O233  1  0.13356710  0.61752785  0.65066572  1
  O  O234  1  0.65007500  0.22587599  0.08349884  1
  O  O235  1  0.73981832  0.26723943  0.56822697  1
  O  O236  1  0.72465673  0.75628314  0.12483103  1
  O  O237  1  0.73035579  0.71332564  0.57202133  1
  O  O238  1  0.25117611  0.26366436  0.37092771  1
  O  O239  1  0.24426587  0.26215886  0.89747644  1
  O  O240  1  0.19966532  0.72824310  0.38562307  1
  O  O241  1  0.24249622  0.83085162  0.92754383  1
  O  O242  1  0.69578133  0.24656227  0.37139216  1
  O  O243  1  0.80800990  0.27568504  0.96246569  1
  O  O244  1  0.74730325  0.71983469  0.38040273  1
  O  O245  1  0.76226148  0.74116958  0.89104440  1
  O  O246  1  -0.07698955  0.12221916  0.03510464  1
  O  O247  1  -0.03428225  0.14485115  0.49982777  1
  O  O248  1  0.04087157  0.68588730  0.00635903  1
  O  O249  1  0.03302652  0.51052443  0.45003860  1
  O  O250  1  0.49539114  0.15075841  0.04680022  1
  O  O251  1  0.56705014  0.12637109  0.50401320  1
  O  O252  1  0.51160970  0.64822747  -0.02336365  1
  O  O253  1  0.48611301  0.59678535  0.46609239  1
  O  O254  1  0.52917875  0.35588539  0.50258431  1
  O  O255  1  0.52644955  0.30988783  0.93692390  1
  O  O256  1  0.48339857  0.84779492  0.48343604  1
  O  O257  1  0.55874563  0.92109143  1.00969328  1
  O  O258  1  0.95799045  0.35029388  0.50659911  1
  O  O259  1  0.99223736  0.41712103  1.02927340  1
  O  O260  1  0.96416769  0.86129096  0.50655686  1
  O  O261  1  0.97334212  0.87267826  1.06779769  1
  O  O262  1  0.46129646  0.51490766  0.30886081  1
  O  O263  1  0.44497739  0.49243587  0.88268936  1
  O  O264  1  0.54326572  0.97791794  0.40905942  1
  O  O265  1  0.52650095  0.97234307  0.86015207  1
  O  O266  1  1.08457359  0.55963016  0.41615597  1
  O  O267  1  0.95199148  0.55830406  0.86672090  1
  O  O268  1  1.01659011  1.02292475  0.34848938  1
  O  O269  1  1.01073626  1.08462446  0.91713562  1
  O  O270  1  -0.01045596  0.02299613  0.14273234  1
  O  O271  1  -0.02776859  0.05189408  0.63172214  1
  O  O272  1  0.01316756  0.48844009  0.05994379  1
  O  O273  1  0.03414148  0.35589543  0.66730169  1
  O  O274  1  0.46537009  -0.01021743  0.16045220  1
  O  O275  1  0.57075985  0.00830714  0.58271898  1
  O  O276  1  0.49185119  0.49016044  0.10356811  1
  O  O277  1  0.51080273  0.47832456  0.59700984  1
  O  O278  1  0.20496280  0.39490766  0.24119977  1
  O  O279  1  0.34914856  0.32474484  0.66635613  1
  O  O280  1  0.13115944  0.93296909  0.24486311  1
  O  O281  1  0.21274550  0.96287092  0.73145264  1
  O  O282  1  0.74278385  0.39346514  0.22778314  1
  O  O283  1  0.66484827  0.37519439  0.84009339  1
  O  O284  1  0.73293722  0.84905293  0.24319252  1
  O  O285  1  0.76450653  0.84066605  0.72066307  1
  O  O286  1  0.26035331  0.15721585  0.25711243  1
  O  O287  1  0.27742336  0.11445724  0.76465305  1
  O  O288  1  0.18905945  0.57169050  0.29143781  1
  O  O289  1  0.23236909  0.70141991  0.76645792  1
  O  O290  1  0.74224489  0.06747390  0.25357095  1
  O  O291  1  0.80319664  0.19462373  0.74334871  1
  O  O292  1  0.75193262  0.64048120  0.25220185  1
  O  O293  1  0.80032831  0.50815941  0.80599698  1
  O  O294  1  0.36062112  0.13537978  0.35132039  1
  O  O295  1  0.41022902  0.08033801  0.91414903  1
  O  O296  1  0.34032983  0.58929655  0.38365069  1
  O  O297  1  0.35284556  0.57970752  0.81118085  1
  O  O298  1  0.86732540  0.10469843  0.34446335  1
  O  O299  1  0.86023672  0.13855359  0.88343253  1
  O  O300  1  0.85046111  0.60123081  0.35308318  1
  O  O301  1  0.91225781  0.62538734  0.86624700  1
  O  O302  1  0.10947847  0.35623189  0.13441145  1
  O  O303  1  0.17297995  0.38500918  0.53551751  1
  O  O304  1  0.19965486  0.83948790  0.14522872  1
  O  O305  1  0.10448516  0.90329192  0.64396128  1
  O  O306  1  0.51350932  0.35658627  -0.01226727  1
  O  O307  1  0.59262302  0.44177319  0.70754623  1
  O  O308  1  0.59744811  0.85879006  0.15641058  1
  O  O309  1  0.64713196  0.86882591  0.54013954  1
  O  O310  1  0.09638300  0.19892753  0.22952720  1
  O  O311  1  0.19434209  0.27933036  0.77276233  1
  O  O312  1  0.04982547  0.75659914  0.33941465  1
  O  O313  1  0.13086212  0.86928535  0.82218153  1
  O  O314  1  0.60676941  0.22437776  0.25248034  1
  O  O315  1  0.57228949  0.21469815  0.79606574  1
  O  O316  1  0.62092560  0.74772013  0.26190115  1
  O  O317  1  0.63251099  0.77683689  0.77514631  1
  O  O318  1  0.37353917  0.26949845  0.25976333  1
  O  O319  1  0.41148451  0.22610807  0.84589708  1
  O  O320  1  0.32328713  0.78834492  0.26239570  1
  O  O321  1  0.33839539  0.81677354  0.78067768  1
  O  O322  1  0.79630875  0.21429133  0.26075900  1
  O  O323  1  0.95442462  0.29180899  0.97551780  1
  O  O324  1  0.89298285  0.72490301  0.26713446  1
  O  O325  1  0.88769025  0.76945125  0.73021743  1
  O  O326  1  0.41881839  0.45580795  0.44939424  1
  O  O327  1  0.31898212  0.52372178  0.93849705  1
  O  O328  1  0.41542456  1.06362879  0.45502362  1
  O  O329  1  0.44155471  1.01762673  1.09153791  1
  O  O330  1  0.84726575  0.47831384  0.48362802  1
  O  O331  1  0.96318383  0.52823728  0.93116540  1
  O  O332  1  0.86128506  0.98144916  0.48796114  1
  O  O333  1  0.85904077  0.97109006  1.03000201  1
  O  O334  1  0.03506492  0.03045106  -0.04414160  1
  O  O335  1  0.14615763  0.05513722  0.50955773  1
  O  O336  1  0.13042611  0.54601664  -0.04201280  1
  O  O337  1  0.04812849  0.49240545  0.51726417  1
  O  O338  1  0.73664878  -0.05804430  -0.09878556  1
  O  O339  1  0.68232095  0.00908572  0.46872798  1
  O  O340  1  0.62645462  0.47383308  0.04380785  1
  O  O341  1  0.59205178  0.48988677  0.44964749  1
  O  O342  1  0.32163979  0.42526680  0.13884409  1
  O  O343  1  0.41255419  0.34705721  0.63046033  1
  O  O344  1  0.35662735  0.82397296  0.20167258  1
  O  O345  1  0.37859601  0.88007295  0.59576051  1
  O  O346  1  0.95946752  0.52678521  0.09036895  1
  O  O347  1  0.89625678  0.35697918  0.55473332  1
  O  O348  1  0.85793026  0.83852678  0.15270421  1
  O  O349  1  0.87039992  0.90241507  0.62167664  1
  O  O350  1  0.15402054  0.14423914  0.37027052  1
  O  O351  1  0.13277150  0.17350545  0.85658202  1
  O  O352  1  -0.01964095  0.59907516  0.59194196  1
  O  O353  1  0.14657381  0.68233435  0.89232596  1
  O  O354  1  0.61954121  0.10209205  0.35717676  1
  O  O355  1  0.75974722  0.00497863  0.87456065  1
  O  O356  1  0.60184375  0.62267017  0.35319193  1
  O  O357  1  0.76190653  0.55757063  0.83630041  1
