# generated using pymatgen
data_V51Zn51O256
_symmetry_space_group_name_H-M   'P 1'
_cell_length_a   17.94665154
_cell_length_b   17.40546556
_cell_length_c   17.80727011
_cell_angle_alpha   89.85958758
_cell_angle_beta   90.02616609
_cell_angle_gamma   88.41537048
_symmetry_Int_Tables_number   1
_chemical_formula_structural   V51Zn51O256
_chemical_formula_sum   'V51 Zn51 O256'
_cell_volume   5560.30913857
_cell_formula_units_Z   1
loop_
 _symmetry_equiv_pos_site_id
 _symmetry_equiv_pos_as_xyz
  1  'x, y, z'
loop_
 _atom_site_type_symbol
 _atom_site_label
 _atom_site_symmetry_multiplicity
 _atom_site_fract_x
 _atom_site_fract_y
 _atom_site_fract_z
 _atom_site_occupancy
  V  V0  1  0.71088441  0.60635202  0.35134104  1
  V  V1  1  0.84520585  0.86668380  0.01084970  1
  V  V2  1  0.49469078  0.12304093  0.62243744  1
  V  V3  1  0.39258403  0.51159342  -0.00602060  1
  V  V4  1  0.49873325  0.88159051  0.37545360  1
  V  V5  1  0.16789007  0.39738901  0.75530167  1
  V  V6  1  0.38305568  0.16564947  0.26819711  1
  V  V7  1  0.34983258  0.87819870  0.02869324  1
  V  V8  1  0.28123098  0.88131718  0.60286327  1
  V  V9  1  0.62239450  0.61710680  0.54326417  1
  V  V10  1  0.52081382  -0.00845502  0.52104889  1
  V  V11  1  0.31090709  0.63041249  0.37795857  1
  V  V12  1  0.79205944  0.27836985  0.44676865  1
  V  V13  1  -0.01896216  0.53737715  0.50751853  1
  V  V14  1  0.60870514  0.23975240  0.89426947  1
  V  V15  1  0.36777959  0.25861025  0.60514753  1
  V  V16  1  0.14533581  0.51346219  0.59189840  1
  V  V17  1  0.06446996  0.71903454  0.38278029  1
  V  V18  1  0.78825535  0.08726558  0.40313766  1
  V  V19  1  0.58514147  0.63040830  0.02797541  1
  V  V20  1  0.13464277  0.27774146  0.37400913  1
  V  V21  1  0.39827677  0.36542194  0.47220612  1
  V  V22  1  0.14455751  0.85362248  0.69386553  1
  V  V23  1  0.27412395  0.21246761  0.85859648  1
  V  V24  1  0.00773251  -0.06891254  0.51202921  1
  V  V25  1  0.74033024  0.29596353  0.61686117  1
  V  V26  1  0.03094715  0.90533660  0.84946383  1
  V  V27  1  0.00629375  0.21371034  0.27140657  1
  V  V28  1  0.29026496  0.56557151  0.81298654  1
  V  V29  1  0.74828804  0.00397071  0.23720383  1
  V  V30  1  0.09776919  0.41827706  0.16736521  1
  V  V31  1  0.24703961  0.37683715  0.59330159  1
  V  V32  1  0.47155618  0.87499459  0.88748241  1
  V  V33  1  0.48690571  0.68768377  0.18713981  1
  V  V34  1  0.20752854  0.77869629  0.04505291  1
  V  V35  1  0.70036101  0.08712972  0.87335794  1
  V  V36  1  0.72900343  0.72644899  0.02943719  1
  V  V37  1  -0.02184299  0.28146127  0.77491006  1
  V  V38  1  0.45748533  0.75641654  0.75169680  1
  V  V39  1  0.42948854  0.30097742  0.14918604  1
  V  V40  1  0.89286334  -0.09856861  0.35619434  1
  V  V41  1  0.01186539  0.18859246  0.63785166  1
  V  V42  1  0.12652618  0.89494069  0.35595550  1
  V  V43  1  0.29925279  0.24390587  0.03752140  1
  V  V44  1  -0.02147990  0.72273147  0.77098432  1
  V  V45  1  0.35824829  0.15361508  0.73629509  1
  V  V46  1  0.23470658  0.00206364  0.76415839  1
  V  V47  1  0.13405200  0.13784838  -0.04154461  1
  V  V48  1  0.32160054  0.73148177  0.53181287  1
  V  V49  1  0.64310975  0.78461753  0.36956201  1
  V  V50  1  -0.01541275  0.42204545  0.85383170  1
  Zn  Zn51  1  0.26368320  0.39777717  0.92052213  1
  Zn  Zn52  1  0.31791527  0.82739630  0.37682949  1
  Zn  Zn53  1  0.80752274  0.75432458  0.86215935  1
  Zn  Zn54  1  0.67368777  0.43973583  0.46084021  1
  Zn  Zn55  1  0.51714820  0.77787513  0.52945724  1
  Zn  Zn56  1  0.05010223  0.08929189  0.80731755  1
  Zn  Zn57  1  0.34594300  0.36584801  0.76727677  1
  Zn  Zn58  1  0.16790384  0.81433855  0.49578206  1
  Zn  Zn59  1  0.06368894  0.54420650  0.32314977  1
  Zn  Zn60  1  0.33943555  0.68960511  0.95445608  1
  Zn  Zn61  1  0.92778672  0.08756314  0.55018646  1
  Zn  Zn62  1  0.27885433  0.73036222  0.22363607  1
  Zn  Zn63  1  0.30427744  0.05988751  -0.05632626  1
  Zn  Zn64  1  0.50408012  0.50851568  0.50974952  1
  Zn  Zn65  1  0.80273160  0.57231442  0.47053735  1
  Zn  Zn66  1  0.86990848  0.71771578  0.33820144  1
  Zn  Zn67  1  0.01730813  0.84097741  0.02720859  1
  Zn  Zn68  1  0.26193686  0.31679507  0.22832817  1
  Zn  Zn69  1  0.48198881  0.89351067  0.65614222  1
  Zn  Zn70  1  1.01212318  0.39952959  0.65121249  1
  Zn  Zn71  1  0.41051472  0.85116969  0.21041796  1
  Zn  Zn72  1  0.60284907  0.71488948  0.67013549  1
  Zn  Zn73  1  0.42242348  0.15983807  0.45683123  1
  Zn  Zn74  1  0.21816343  0.45437259  0.42972319  1
  Zn  Zn75  1  0.85955626  0.57901947  0.04559320  1
  Zn  Zn76  1  0.53437606  0.81642370  0.05556612  1
  Zn  Zn77  1  1.06829353  0.50458689  -0.00682544  1
  Zn  Zn78  1  0.32529287  0.53100271  0.53311509  1
  Zn  Zn79  1  0.62802658  -0.00318787  0.37759844  1
  Zn  Zn80  1  0.69468318  0.49090823  0.99935244  1
  Zn  Zn81  1  0.53709460  0.43016311  0.06428550  1
  Zn  Zn82  1  0.34419283  0.04317615  0.58859191  1
  Zn  Zn83  1  0.77444776  0.04404568  0.05644221  1
  Zn  Zn84  1  0.39847335  0.47118316  0.17787156  1
  Zn  Zn85  1  0.61145294  0.74119968  0.89776410  1
  Zn  Zn86  1  0.92167765  0.80897110  0.18632790  1
  Zn  Zn87  1  0.99055030  0.98784234  0.68428611  1
  Zn  Zn88  1  0.18052693  0.23262706  0.68185444  1
  Zn  Zn89  1  0.65183767  0.67901756  0.20400238  1
  Zn  Zn90  1  0.46587953  0.60231736  0.87735943  1
  Zn  Zn91  1  0.19301276  0.94328728  0.93608168  1
  Zn  Zn92  1  0.48355291  0.01172536  0.77692598  1
  Zn  Zn93  1  0.75589014  0.80132736  0.20960516  1
  Zn  Zn94  1  0.14039571  0.23854157  0.13280206  1
  Zn  Zn95  1  0.01895534  0.72864268  0.56984141  1
  Zn  Zn96  1  0.54793026  0.29863358  0.56749699  1
  Zn  Zn97  1  0.22037698  0.68097579  0.67324789  1
  Zn  Zn98  1  0.50855904  0.66492636  0.38957482  1
  Zn  Zn99  1  0.10338050  0.56119083  0.81050532  1
  Zn  Zn100  1  0.82518489  0.18539567  0.27113556  1
  Zn  Zn101  1  0.10553172  0.08980596  0.33827885  1
  O  O102  1  0.16825190  0.02316752  0.14364318  1
  O  O103  1  0.10638814  0.17795292  0.62962816  1
  O  O104  1  0.03207128  0.66499326  0.18125237  1
  O  O105  1  0.14613898  0.60581373  0.62182582  1
  O  O106  1  0.80815890  0.21025775  0.06415117  1
  O  O107  1  0.58008238  0.11359319  0.64923718  1
  O  O108  1  0.56777048  0.65398005  0.13583145  1
  O  O109  1  0.61118301  0.60589979  0.63927231  1
  O  O110  1  0.38800426  0.36339583  0.38193477  1
  O  O111  1  0.46210727  0.38570661  0.77471209  1
  O  O112  1  0.41090952  0.87342205  0.40978479  1
  O  O113  1  0.37550714  0.82123298  0.87754608  1
  O  O114  1  0.83407482  0.39805782  0.28935127  1
  O  O115  1  0.90573383  0.43843109  0.89768194  1
  O  O116  1  0.87237185  0.81724428  0.39385100  1
  O  O117  1  0.85900692  0.83351876  0.92222494  1
  O  O118  1  0.26853257  0.02896874  0.39016807  1
  O  O119  1  0.26433694  -0.00922604  0.85589278  1
  O  O120  1  0.27978439  0.54422252  0.41953596  1
  O  O121  1  0.32710680  0.47160263  0.80757713  1
  O  O122  1  0.79183653  -0.06368002  0.33001605  1
  O  O123  1  0.66659964  -0.00256796  0.87198141  1
  O  O124  1  0.71915120  0.51579401  0.39277598  1
  O  O125  1  0.72453610  0.51266878  0.89137518  1
  O  O126  1  0.28034382  0.50992344  0.18767638  1
  O  O127  1  0.24845498  0.48735411  0.60332673  1
  O  O128  1  0.22923442  1.04964715  0.15778908  1
  O  O129  1  0.26156763  0.97548249  0.57889952  1
  O  O130  1  0.83143142  0.40740974  0.05081541  1
  O  O131  1  0.74943146  0.40542106  0.64457800  1
  O  O132  1  0.75438117  1.06032630  0.15702328  1
  O  O133  1  0.78508229  0.96415515  0.70075437  1
  O  O134  1  0.01937076  0.37233579  0.16373014  1
  O  O135  1  -0.02850640  0.40884266  0.75513256  1
  O  O136  1  0.05590839  0.90825130  0.15258695  1
  O  O137  1  0.06046089  0.90019747  0.70433618  1
  O  O138  1  0.66798037  0.44404319  0.18135857  1
  O  O139  1  0.50250987  0.35780235  0.72401456  1
  O  O140  1  0.48575123  0.88903682  0.28181430  1
  O  O141  1  0.46338797  0.85962573  0.77780551  1
  O  O142  1  0.38300892  0.07834524  0.20005475  1
  O  O143  1  0.45118685  0.11025006  0.73180771  1
  O  O144  1  0.51667675  0.68553126  0.27652477  1
  O  O145  1  0.50209492  0.65625259  0.78074316  1
  O  O146  1  1.00487652  0.13281212  0.32656877  1
  O  O147  1  1.02240462  0.18913858  0.76373847  1
  O  O148  1  0.98620987  0.62978159  0.22455906  1
  O  O149  1  1.03158400  0.64483710  0.80032975  1
  O  O150  1  0.39453652  0.27056244  0.06028145  1
  O  O151  1  0.37527725  0.25541209  0.50386132  1
  O  O152  1  0.32453700  0.77357552  0.02338493  1
  O  O153  1  0.41335033  0.74643939  0.52880150  1
  O  O154  1  0.88403168  0.27714033  -0.03335553  1
  O  O155  1  0.86936661  0.32180939  0.43017966  1
  O  O156  1  0.81386114  0.67551021  0.02518989  1
  O  O157  1  0.82380986  0.74562058  0.62235486  1
  O  O158  1  0.12545827  0.28654797  0.46437341  1
  O  O159  1  0.11536745  0.18778539  1.03855339  1
  O  O160  1  0.09812116  0.73232948  0.47746172  1
  O  O161  1  0.11342798  0.79823829  1.03195738  1
  O  O162  1  0.61823346  0.28488728  0.33596827  1
  O  O163  1  0.61009715  0.22219760  0.99052393  1
  O  O164  1  0.60948112  0.72248328  0.54900391  1
  O  O165  1  0.61322160  0.74291928  1.02362515  1
  O  O166  1  0.51123526  0.34633721  0.14028588  1
  O  O167  1  0.47515825  0.22941921  0.61501711  1
  O  O168  1  0.48376318  0.78332133  0.15075030  1
  O  O169  1  0.50515990  0.77431230  0.66222944  1
  O  O170  1  1.06894819  0.19369647  0.20001357  1
  O  O171  1  0.98358227  0.29088342  0.66586492  1
  O  O172  1  1.00722166  0.73158638  0.14906066  1
  O  O173  1  0.98495673  0.73288867  0.67515961  1
  O  O174  1  0.04413084  0.29034862  0.32711463  1
  O  O175  1  0.01193835  0.32280364  0.86597077  1
  O  O176  1  -0.02731115  0.69948404  0.37778143  1
  O  O177  1  0.00373497  0.81313560  0.81755660  1
  O  O178  1  0.57021889  0.27247328  0.28905681  1
  O  O179  1  0.51712745  0.25486162  0.89903832  1
  O  O180  1  0.53531252  0.78118047  0.40690971  1
  O  O181  1  0.43107084  0.76265564  0.86962718  1
  O  O182  1  0.28017395  0.08030586  0.43686558  1
  O  O183  1  0.30463372  0.17151351  0.96541034  1
  O  O184  1  0.30814603  0.63669195  0.55035164  1
  O  O185  1  0.20280501  0.66765450  1.02540007  1
  O  O186  1  0.84660083  0.08760974  0.47891329  1
  O  O187  1  0.70653816  0.07578993  0.97402009  1
  O  O188  1  0.71734229  0.61153616  0.52323214  1
  O  O189  1  0.67973015  0.60624297  1.01990991  1
  O  O190  1  0.25181068  0.32083831  0.00363271  1
  O  O191  1  0.28107661  0.38416575  0.49795905  1
  O  O192  1  0.23541866  0.87830138  0.01447853  1
  O  O193  1  0.27740183  0.83979174  0.50471146  1
  O  O194  1  0.63183747  0.41023593  0.02374257  1
  O  O195  1  0.71817922  0.34520797  0.43870880  1
  O  O196  1  0.75989781  0.82683647  0.03739458  1
  O  O197  1  0.74249258  0.91385331  0.55896320  1
  O  O198  1  0.09500840  0.48331883  0.24213911  1
  O  O199  1  0.12157574  0.48258635  0.72188792  1
  O  O200  1  0.10840723  0.98398112  0.31575028  1
  O  O201  1  0.15197578  1.05126225  0.76342310  1
  O  O202  1  0.65473666  0.41721122  0.24351485  1
  O  O203  1  0.57749854  0.47953008  0.81196770  1
  O  O204  1  0.66192604  1.01826898  0.27464281  1
  O  O205  1  0.54844206  0.95320856  0.71723744  1
  O  O206  1  0.34628429  0.06242887  0.26487711  1
  O  O207  1  0.30443412  0.05464343  0.72085497  1
  O  O208  1  0.46642297  0.49387795  0.26161047  1
  O  O209  1  0.41658232  0.56451751  0.63644938  1
  O  O210  1  0.93159813  -0.11133814  0.26921831  1
  O  O211  1  0.83307208  -0.05939126  0.74595416  1
  O  O212  1  0.85719932  0.53690919  0.21723775  1
  O  O213  1  0.76995729  0.44823810  0.79167359  1
  O  O214  1  0.17168912  0.38964493  0.35318377  1
  O  O215  1  0.18187401  0.39994526  0.84937138  1
  O  O216  1  0.10803710  0.90233761  0.45160064  1
  O  O217  1  0.12721414  0.90777293  0.85615008  1
  O  O218  1  0.54192101  0.44271360  0.35059489  1
  O  O219  1  0.64194311  0.32673165  0.90661376  1
  O  O220  1  0.61446862  0.88532114  0.36589658  1
  O  O221  1  0.56270084  0.84412908  0.89383608  1
  O  O222  1  0.47746453  0.10717329  0.07349857  1
  O  O223  1  0.35268587  0.15055072  0.62742292  1
  O  O224  1  0.38331301  0.67169786  0.17977154  1
  O  O225  1  0.45659318  0.51241343  0.67104735  1
  O  O226  1  0.97226541  0.09343858  0.10475027  1
  O  O227  1  0.97010792  0.09657392  0.66169937  1
  O  O228  1  0.84629843  0.59326835  0.17557321  1
  O  O229  1  0.81096760  0.68262623  0.64941814  1
  O  O230  1  0.25415363  0.21515295  0.11608964  1
  O  O231  1  0.25967453  0.27007125  0.60861272  1
  O  O232  1  0.22099408  0.76570193  0.13973318  1
  O  O233  1  0.27646819  0.76176001  0.61923211  1
  O  O234  1  0.84144504  0.14825530  0.04688775  1
  O  O235  1  0.78997178  0.24379823  0.54120732  1
  O  O236  1  0.71572173  0.72659791  0.13007136  1
  O  O237  1  0.71941844  0.77716695  0.78507734  1
  O  O238  1  0.22577597  0.32625295  0.34063164  1
  O  O239  1  0.31104609  0.30350723  0.86013435  1
  O  O240  1  0.28865422  0.72108026  0.42767860  1
  O  O241  1  0.21613109  0.70403072  0.95849272  1
  O  O242  1  0.78607255  0.19493513  0.38144986  1
  O  O243  1  0.71033861  0.19405822  0.88773991  1
  O  O244  1  0.71556585  0.78922375  0.42348565  1
  O  O245  1  0.71881825  0.73051868  0.92346060  1
  O  O246  1  0.05443724  0.11174208  -0.08462403  1
  O  O247  1  -0.02418547  0.18916888  0.54894882  1
  O  O248  1  -0.00203275  0.64272262  0.00518368  1
  O  O249  1  -0.01320743  0.63130101  0.53205023  1
  O  O250  1  0.47126808  0.05939352  0.02296364  1
  O  O251  1  0.50186565  0.11165955  0.51730603  1
  O  O252  1  0.38724502  0.60832022  0.01525202  1
  O  O253  1  0.53115036  0.61591736  0.48672613  1
  O  O254  1  0.49385018  0.34488911  0.48828639  1
  O  O255  1  0.42846993  0.45663827  1.07373542  1
  O  O256  1  0.50472219  0.89282487  0.54238089  1
  O  O257  1  0.44990758  0.86045907  0.99339024  1
  O  O258  1  0.88529145  0.39021312  0.24477417  1
  O  O259  1  0.91658551  0.21622138  0.95262214  1
  O  O260  1  1.00744448  0.84004285  0.54494429  1
  O  O261  1  1.00272366  0.90962534  0.94123847  1
  O  O262  1  0.49776504  0.42770100  0.29754510  1
  O  O263  1  0.45262183  0.49869384  0.91886864  1
  O  O264  1  0.52045484  0.98254142  0.41584182  1
  O  O265  1  0.46462389  0.97409832  0.87469992  1
  O  O266  1  1.01285905  0.52321316  0.41698344  1
  O  O267  1  1.05028242  0.49179872  0.88803752  1
  O  O268  1  0.96236987  0.93818057  0.42221199  1
  O  O269  1  0.99529677  0.99074716  0.80087540  1
  O  O270  1  0.00810458  0.04152139  0.07361878  1
  O  O271  1  0.08481296  -0.00447081  0.55678478  1
  O  O272  1  -0.03264986  0.56891811  0.03037066  1
  O  O273  1  0.03318298  0.48317120  0.58447240  1
  O  O274  1  0.59101893  0.02271055  0.13302124  1
  O  O275  1  0.45491340  0.02024247  0.60743736  1
  O  O276  1  0.42450036  0.60212198  0.16689996  1
  O  O277  1  0.50904079  0.47690264  0.63096019  1
  O  O278  1  0.25162973  0.55099578  0.13733313  1
  O  O279  1  0.25435821  0.38056543  0.70713193  1
  O  O280  1  0.21827265  0.87171702  0.35256131  1
  O  O281  1  0.23144572  0.90648761  0.71621547  1
  O  O282  1  0.77453778  0.32308129  0.16197462  1
  O  O283  1  0.75706773  0.24898806  0.69351151  1
  O  O284  1  0.75799028  0.91208555  0.20060292  1
  O  O285  1  0.72059874  0.82352739  0.72472264  1
  O  O286  1  0.30470886  0.22042304  0.27046362  1
  O  O287  1  0.25030449  0.19825832  0.76188218  1
  O  O288  1  0.27258404  0.64218589  0.29081410  1
  O  O289  1  0.27795314  0.60340740  0.72502184  1
  O  O290  1  0.80730901  0.07679788  0.29826449  1
  O  O291  1  0.70441536  0.08979157  0.77792726  1
  O  O292  1  0.69937577  0.59393350  0.25718598  1
  O  O293  1  0.61421346  0.45951133  0.75699201  1
  O  O294  1  0.43019829  0.16604007  0.35083557  1
  O  O295  1  0.34977676  0.14081704  0.83991931  1
  O  O296  1  0.40559867  0.62738858  0.37428081  1
  O  O297  1  0.35438216  0.62574174  0.86463687  1
  O  O298  1  0.81676791  -0.02553588  0.39769762  1
  O  O299  1  0.79338945  0.07058230  0.87244592  1
  O  O300  1  0.80066019  0.64159076  0.37584394  1
  O  O301  1  0.74862037  0.44470793  0.85914044  1
  O  O302  1  0.10897642  0.46655257  0.08041128  1
  O  O303  1  0.15246867  0.38754240  0.59377682  1
  O  O304  1  0.11476061  0.88576284  0.18263933  1
  O  O305  1  0.16188378  0.85733448  0.59883208  1
  O  O306  1  0.71894675  0.28125223  0.17497054  1
  O  O307  1  0.64526523  0.29862615  0.59733093  1
  O  O308  1  0.56575475  0.95618807  0.12621321  1
  O  O309  1  0.67680944  0.80441715  0.66847893  1
  O  O310  1  0.16968595  0.33965965  0.17571547  1
  O  O311  1  0.11873118  0.31670177  0.73413118  1
  O  O312  1  0.07869190  0.80690099  0.32881004  1
  O  O313  1  0.14937192  0.75942443  0.71942089  1
  O  O314  1  0.72790800  0.21961233  0.22084343  1
  O  O315  1  0.60686024  0.25466532  0.79947266  1
  O  O316  1  0.67100213  0.76848175  0.27406790  1
  O  O317  1  0.56582875  0.70777671  0.78721453  1
  O  O318  1  0.44507936  0.21844739  0.20380312  1
  O  O319  1  0.37649178  0.25283153  0.72333870  1
  O  O320  1  0.34235465  0.79916061  0.27325977  1
  O  O321  1  0.37266239  0.73599189  0.73119388  1
  O  O322  1  0.91446004  0.23009552  0.24093848  1
  O  O323  1  0.89194993  0.26513926  0.79371892  1
  O  O324  1  0.84879285  0.75030890  0.23672211  1
  O  O325  1  0.88612277  0.71272957  0.79777898  1
  O  O326  1  0.40721373  0.46843598  0.49718885  1
  O  O327  1  0.30476108  0.47932368  0.97392095  1
  O  O328  1  0.35528538  1.07054638  0.47663956  1
  O  O329  1  0.34422747  0.96905381  0.98800550  1
  O  O330  1  0.88679950  0.51813788  0.50795568  1
  O  O331  1  0.79648547  0.48950181  1.04595534  1
  O  O332  1  0.94309933  0.97439116  0.57791487  1
  O  O333  1  0.83332235  0.96448475  1.01272547  1
  O  O334  1  0.18989913  0.05372544  -0.02680299  1
  O  O335  1  0.05308415  0.03976626  0.50238249  1
  O  O336  1  0.06677367  0.63099160  -0.01460033  1
  O  O337  1  0.14879613  0.51638139  0.49696167  1
  O  O338  1  0.59500237  -0.08744754  0.06858275  1
  O  O339  1  0.60768911  -0.00093668  0.54217739  1
  O  O340  1  0.54830028  0.54414362  0.04543938  1
  O  O341  1  0.61157227  0.50084588  0.51898509  1
  O  O342  1  0.36072868  0.36084789  0.19346423  1
  O  O343  1  0.37082497  0.35747221  0.61485415  1
  O  O344  1  0.36287190  0.89532950  0.12105970  1
  O  O345  1  0.36996806  0.88319354  0.63206172  1
  O  O346  1  0.89402314  0.40438839  0.08011742  1
  O  O347  1  0.81549363  0.37921354  0.61815223  1
  O  O348  1  0.92156008  0.83837917  0.07600449  1
  O  O349  1  0.80397730  0.88242408  0.55428993  1
  O  O350  1  0.15829125  0.18105950  0.35542028  1
  O  O351  1  0.18148327  0.20099520  0.89270660  1
  O  O352  1  0.11030090  0.64294379  0.34156403  1
  O  O353  1  0.20255499  0.56867800  0.85314086  1
  O  O354  1  0.69910516  0.06604677  0.42458977  1
  O  O355  1  0.60096097  0.12811728  0.87637127  1
  O  O356  1  0.63591517  0.66583679  0.38217833  1
  O  O357  1  0.54527170  0.65108742  0.93690882  1
