# generated using pymatgen
data_V51Zn51O256
_symmetry_space_group_name_H-M   'P 1'
_cell_length_a   17.47218070
_cell_length_b   17.96790150
_cell_length_c   17.79100327
_cell_angle_alpha   90.77660768
_cell_angle_beta   90.69807774
_cell_angle_gamma   88.79989908
_symmetry_Int_Tables_number   1
_chemical_formula_structural   V51Zn51O256
_chemical_formula_sum   'V51 Zn51 O256'
_cell_volume   5583.14581659
_cell_formula_units_Z   1
loop_
 _symmetry_equiv_pos_site_id
 _symmetry_equiv_pos_as_xyz
  1  'x, y, z'
loop_
 _atom_site_type_symbol
 _atom_site_label
 _atom_site_symmetry_multiplicity
 _atom_site_fract_x
 _atom_site_fract_y
 _atom_site_fract_z
 _atom_site_occupancy
  V  V0  1  0.13761622  -0.00362294  0.11463690  1
  V  V1  1  0.60778634  0.00140555  0.17474479  1
  V  V2  1  0.75736162  -0.02786553  0.25567819  1
  V  V3  1  0.53617879  0.48568334  0.46619195  1
  V  V4  1  -0.03368338  0.22579327  0.21682248  1
  V  V5  1  -0.01408363  0.33763877  0.36547945  1
  V  V6  1  0.15182705  -0.00194584  0.63286103  1
  V  V7  1  0.81705248  -0.04237006  0.88988771  1
  V  V8  1  0.53205451  0.42011544  0.90773501  1
  V  V9  1  0.62236511  0.20949402  0.87443748  1
  V  V10  1  0.86061458  0.23548203  0.60256707  1
  V  V11  1  0.60689016  0.63627673  0.50559819  1
  V  V12  1  0.47143652  0.06086954  0.66015502  1
  V  V13  1  0.90636933  0.52634169  0.33688732  1
  V  V14  1  0.74012154  0.85294537  0.58658490  1
  V  V15  1  0.83309391  0.12847188  0.22605325  1
  V  V16  1  0.37303589  0.80900717  0.48760908  1
  V  V17  1  0.73774416  0.00788154  0.70279036  1
  V  V18  1  0.54750309  -0.02321526  0.00045224  1
  V  V19  1  0.85035239  0.67850492  0.58730098  1
  V  V20  1  0.41177675  0.38058326  0.52596199  1
  V  V21  1  0.59039961  0.76815423  0.81639831  1
  V  V22  1  0.28279204  0.14446249  0.90695378  1
  V  V23  1  0.74840830  0.15178508  0.37411476  1
  V  V24  1  0.38482252  0.62470495  0.23950338  1
  V  V25  1  0.26789792  -0.00629432  0.30530229  1
  V  V26  1  0.17404888  0.18783614  0.47758868  1
  V  V27  1  0.74896377  0.37313349  0.65684737  1
  V  V28  1  0.87764212  0.01722976  0.38210844  1
  V  V29  1  0.83635334  0.36526066  0.48887011  1
  V  V30  1  -0.00270575  0.88893664  0.94377656  1
  V  V31  1  0.85797079  0.09875820  0.78259429  1
  V  V32  1  0.74863503  0.22051396  0.02771198  1
  V  V33  1  0.23929668  0.69102150  0.53082933  1
  V  V34  1  0.13029614  0.55800147  0.48513943  1
  V  V35  1  0.60214725  0.86928382  0.29089658  1
  V  V36  1  0.73366049  0.49338794  0.26302152  1
  V  V37  1  0.37979084  0.12551416  0.27796135  1
  V  V38  1  0.51618967  0.27332405  0.71575106  1
  V  V39  1  -0.02624824  0.45554704  0.54070845  1
  V  V40  1  0.64791186  0.53206271  0.65072807  1
  V  V41  1  0.60145623  0.13166986  0.46832209  1
  V  V42  1  0.31009860  0.67150362  0.87734138  1
  V  V43  1  0.05618088  0.69510896  0.61094521  1
  V  V44  1  0.76579127  0.70870357  0.05680290  1
  V  V45  1  0.83645321  0.38181469  0.00956556  1
  V  V46  1  0.11907439  0.90535635  0.79289580  1
  V  V47  1  -0.03278043  0.38210509  0.88663265  1
  V  V48  1  -0.02182791  0.21607269  0.81572378  1
  V  V49  1  0.26978476  0.89899531  0.11607952  1
  V  V50  1  0.93589471  0.86371151  0.48308465  1
  Zn  Zn51  1  0.31555983  0.51104447  0.49472314  1
  Zn  Zn52  1  0.57721057  0.83423125  0.48495660  1
  Zn  Zn53  1  0.28697924  0.10451668  0.61282170  1
  Zn  Zn54  1  0.12810041  0.12439606  0.23634703  1
  Zn  Zn55  1  0.28117862  0.11512824  0.11231810  1
  Zn  Zn56  1  0.43234272  0.93753244  0.22759710  1
  Zn  Zn57  1  0.74669418  0.85076453  0.77954690  1
  Zn  Zn58  1  0.81042293  0.07363975  0.54076947  1
  Zn  Zn59  1  0.19423396  0.73830080  0.72143606  1
  Zn  Zn60  1  0.61351585  0.83358026  0.09173835  1
  Zn  Zn61  1  0.42189246  0.64673300  0.44014461  1
  Zn  Zn62  1  0.32409699  0.22796918  0.44337874  1
  Zn  Zn63  1  0.80478384  0.29442827  0.83195862  1
  Zn  Zn64  1  0.95461412  0.25903558  1.01502025  1
  Zn  Zn65  1  0.42858520  0.50558574  0.14186964  1
  Zn  Zn66  1  0.11596043  0.84685946  0.51957993  1
  Zn  Zn67  1  0.70418606  0.20322282  0.72381699  1
  Zn  Zn68  1  0.93415741  0.36201106  0.69527467  1
  Zn  Zn69  1  0.76564552  0.53373186  0.07233422  1
  Zn  Zn70  1  0.63784690  0.34721641  -0.01549368  1
  Zn  Zn71  1  0.68952429  0.96225943  0.43740246  1
  Zn  Zn72  1  0.08465437  0.46937585  0.37496452  1
  Zn  Zn73  1  0.45603212  0.18697614  0.55632932  1
  Zn  Zn74  1  0.48027625  0.45366437  0.68733181  1
  Zn  Zn75  1  0.59139012  0.30713112  0.54981267  1
  Zn  Zn76  1  0.70041159  0.69044081  0.32632970  1
  Zn  Zn77  1  0.43208069  0.78443984  0.94243765  1
  Zn  Zn78  1  0.46067936  0.14609777  0.81673858  1
  Zn  Zn79  1  0.86687176  0.77364394  0.91647343  1
  Zn  Zn80  1  0.58882332  0.02994382  0.81326171  1
  Zn  Zn81  1  0.75472581  0.56386311  0.44588726  1
  Zn  Zn82  1  0.88757776  0.40704684  0.20436022  1
  Zn  Zn83  1  0.03901984  0.28595937  0.56869650  1
  Zn  Zn84  1  0.54756194  0.57062230  0.80364957  1
  Zn  Zn85  1  0.73677655  0.03575423  0.05873681  1
  Zn  Zn86  1  0.34953750  0.92420857  0.64491491  1
  Zn  Zn87  1  0.57907828  0.54044369  0.29076070  1
  Zn  Zn88  1  0.42896627  0.28817072  0.86799336  1
  Zn  Zn89  1  -0.02128879  0.01822668  0.23628006  1
  Zn  Zn90  1  0.30930555  0.85251529  0.82454443  1
  Zn  Zn91  1  0.83125935  0.82882405  0.33739484  1
  Zn  Zn92  1  0.00377581  0.01415863  0.83527515  1
  Zn  Zn93  1  0.20500379  0.36655390  0.50407371  1
  Zn  Zn94  1  0.87470416  0.68938465  0.41666720  1
  Zn  Zn95  1  0.58212271  0.15917183  0.27652969  1
  Zn  Zn96  1  0.25836261  0.95119918  0.50225813  1
  Zn  Zn97  1  0.80918991  0.30879409  0.30745001  1
  Zn  Zn98  1  0.96017605  0.96045792  0.66403060  1
  Zn  Zn99  1  0.18808048  0.95510878  0.94782425  1
  Zn  Zn100  1  0.22932610  0.73231917  0.18807797  1
  Zn  Zn101  1  0.13664076  0.11791951  0.76153485  1
  O  O102  1  0.17301494  0.15432125  0.13098229  1
  O  O103  1  0.10514890  0.20429667  0.54154674  1
  O  O104  1  0.18232247  0.65952281  0.09178340  1
  O  O105  1  0.10233683  0.67721936  0.69364377  1
  O  O106  1  0.61301476  0.09347266  0.19565011  1
  O  O107  1  0.54640694  0.09379433  0.61641104  1
  O  O108  1  0.57450565  0.67637074  0.12656892  1
  O  O109  1  0.64947266  0.61677156  0.59652946  1
  O  O110  1  0.42727547  0.34697102  0.29774952  1
  O  O111  1  0.43991644  0.39081566  0.87974630  1
  O  O112  1  0.35258766  0.83258951  0.40138283  1
  O  O113  1  0.38085917  0.87448721  0.90663552  1
  O  O114  1  0.87690486  0.35296287  0.39636234  1
  O  O115  1  0.85006340  0.35867474  0.90314126  1
  O  O116  1  0.88264396  0.90146797  0.40084948  1
  O  O117  1  0.81269618  0.85584584  0.87260167  1
  O  O118  1  0.26275477  -0.02477203  0.39984174  1
  O  O119  1  0.24304854  0.05624709  0.92098632  1
  O  O120  1  0.36900907  0.32801978  0.26366779  1
  O  O121  1  0.37087249  0.60928092  0.83507200  1
  O  O122  1  0.76810804  -0.00765102  0.36246670  1
  O  O123  1  0.75199617  -0.03484783  0.81138650  1
  O  O124  1  0.80372970  0.51956982  0.35792237  1
  O  O125  1  0.76799498  0.49987100  0.84377229  1
  O  O126  1  0.19656953  0.37675136  -0.02228716  1
  O  O127  1  0.17331058  0.45318123  0.64891960  1
  O  O128  1  0.23713041  1.01760907  0.12637238  1
  O  O129  1  0.18388760  1.09282448  0.66438751  1
  O  O130  1  0.76376540  0.52239823  0.17769350  1
  O  O131  1  0.73103028  0.47250770  0.64304596  1
  O  O132  1  0.72738244  0.99017706  0.15998294  1
  O  O133  1  0.74466353  1.02797091  0.61052158  1
  O  O134  1  -0.04484696  0.32673010  0.26489760  1
  O  O135  1  -0.04786359  0.31926757  0.79319819  1
  O  O136  1  -0.00732022  0.85859037  0.25199451  1
  O  O137  1  0.02233396  0.92854373  0.76050712  1
  O  O138  1  0.45675862  0.39856856  0.15003596  1
  O  O139  1  0.52363044  0.36546980  0.73546332  1
  O  O140  1  0.50379544  0.87680722  0.28873025  1
  O  O141  1  0.36340199  0.90549488  0.74959863  1
  O  O142  1  0.47375540  0.14429071  0.27922613  1
  O  O143  1  0.49077026  0.05975459  0.76192629  1
  O  O144  1  0.48274571  0.57235520  0.23718072  1
  O  O145  1  0.46644480  0.54369424  0.74056483  1
  O  O146  1  0.94357886  0.12590363  0.22644000  1
  O  O147  1  0.96361454  0.10906470  0.80072051  1
  O  O148  1  1.10573876  0.67281221  0.27445609  1
  O  O149  1  0.95519138  0.67657426  0.60900458  1
  O  O150  1  0.34007796  0.30819383  0.05703815  1
  O  O151  1  0.39920567  0.28172115  0.50306556  1
  O  O152  1  0.40547894  0.81333977  0.04029939  1
  O  O153  1  0.34257559  0.70455420  0.49362195  1
  O  O154  1  0.84609968  0.23905067  0.01104211  1
  O  O155  1  0.84986144  0.26245733  0.50793301  1
  O  O156  1  0.81965458  0.70550382  -0.02320632  1
  O  O157  1  0.91295111  0.76989534  0.48268986  1
  O  O158  1  0.21270635  0.27430709  0.44625898  1
  O  O159  1  0.13423382  0.21775749  1.09462020  1
  O  O160  1  0.12264206  0.65000520  0.53967652  1
  O  O161  1  0.03800983  0.74390550  1.06811821  1
  O  O162  1  0.62969031  0.20927573  0.52083343  1
  O  O163  1  0.64838020  0.23642372  0.96891213  1
  O  O164  1  0.57800467  0.72418835  0.51205315  1
  O  O165  1  0.64411138  0.74556788  0.89878464  1
  O  O166  1  0.40357123  0.31003375  0.02790697  1
  O  O167  1  0.50999652  0.26147425  0.61788602  1
  O  O168  1  0.55239992  0.74028581  0.14315054  1
  O  O169  1  0.41803568  0.68030473  0.63871838  1
  O  O170  1  0.96964788  0.24306802  0.12453992  1
  O  O171  1  0.95416180  0.26770517  0.63576507  1
  O  O172  1  1.01289510  0.76985554  0.12690919  1
  O  O173  1  1.06919072  0.78668491  0.59915742  1
  O  O174  1  -0.00301219  0.25238560  0.39357673  1
  O  O175  1  -0.01238162  0.22266462  0.91049040  1
  O  O176  1  -0.04565742  0.80091916  0.27051048  1
  O  O177  1  -0.02875645  0.79765894  0.92727514  1
  O  O178  1  0.61178629  0.26263789  0.24090190  1
  O  O179  1  0.51729578  0.21619052  0.88433560  1
  O  O180  1  0.49361787  0.72528536  0.37621808  1
  O  O181  1  0.51844371  0.81916649  0.86249776  1
  O  O182  1  0.26225753  0.15467631  0.51615812  1
  O  O183  1  0.30181673  0.13945554  1.00538803  1
  O  O184  1  0.23947666  0.58683473  0.49558428  1
  O  O185  1  0.34957365  0.68239122  0.97001369  1
  O  O186  1  0.74503987  0.12453092  0.46699200  1
  O  O187  1  0.74163081  0.12650774  1.00606067  1
  O  O188  1  0.67738668  0.64305830  0.43673524  1
  O  O189  1  0.71615139  0.62673864  1.05793209  1
  O  O190  1  0.25809271  0.41219240  -0.03643617  1
  O  O191  1  0.30989350  0.40346451  0.50113232  1
  O  O192  1  0.26340530  0.91186061  0.02037708  1
  O  O193  1  0.19792359  0.77060241  0.49696381  1
  O  O194  1  0.74223752  0.34177832  0.01110673  1
  O  O195  1  0.74612461  0.38139318  0.47372660  1
  O  O196  1  0.69833771  0.77908099  0.05571842  1
  O  O197  1  0.76017667  0.90513327  0.51085791  1
  O  O198  1  0.19810756  0.59205942  0.08033577  1
  O  O199  1  0.13298386  0.39677885  0.65617456  1
  O  O200  1  0.21099970  1.07017765  0.28198990  1
  O  O201  1  0.11184783  1.03339144  0.82212998  1
  O  O202  1  0.64574728  0.45542732  0.25397608  1
  O  O203  1  0.64020702  0.55670712  0.74289044  1
  O  O204  1  0.64748652  0.97279351  0.27882616  1
  O  O205  1  0.64304655  1.00599656  0.72039278  1
  O  O206  1  0.37003180  0.02192122  0.28459011  1
  O  O207  1  0.27476640  -0.00151992  0.60270895  1
  O  O208  1  0.36299139  0.51758188  0.23281088  1
  O  O209  1  0.29771169  0.48958482  0.73188729  1
  O  O210  1  0.85045780  0.01793568  0.24938052  1
  O  O211  1  0.87329287  0.01915163  0.72051574  1
  O  O212  1  0.92099292  0.50555739  0.24373051  1
  O  O213  1  0.81948166  0.52818517  0.80938974  1
  O  O214  1  0.08053160  0.36811324  0.35294959  1
  O  O215  1  0.06109765  0.36586034  0.89129335  1
  O  O216  1  0.22499036  0.77772045  0.30389876  1
  O  O217  1  0.08816063  0.90610802  0.90081898  1
  O  O218  1  0.55985030  0.29614939  0.35069994  1
  O  O219  1  0.60488301  0.36424144  0.87239980  1
  O  O220  1  0.61971856  0.88482715  0.39741015  1
  O  O221  1  0.62169690  0.86303402  0.79917365  1
  O  O222  1  0.34391257  0.15158409  0.19106419  1
  O  O223  1  0.39482202  0.12726190  0.62976848  1
  O  O224  1  0.38596093  0.60901038  0.13310693  1
  O  O225  1  0.30145209  0.53040583  0.67669776  1
  O  O226  1  0.81802481  0.11017520  0.13647918  1
  O  O227  1  0.87368061  0.14247903  0.59868238  1
  O  O228  1  1.02861697  0.59875093  0.14953224  1
  O  O229  1  0.83084159  0.62785683  0.50218204  1
  O  O230  1  0.29172508  0.41274522  0.14802714  1
  O  O231  1  0.27687037  0.31585972  0.72037419  1
  O  O232  1  0.26424723  0.80242571  0.12534461  1
  O  O233  1  0.24713818  0.69902176  0.62373101  1
  O  O234  1  0.72463133  0.23234468  0.11575477  1
  O  O235  1  0.77506043  0.24793267  0.65448253  1
  O  O236  1  0.84048919  0.67799041  0.13900521  1
  O  O237  1  0.79280945  0.76487662  0.59041542  1
  O  O238  1  0.15733291  0.34127185  0.19082649  1
  O  O239  1  0.33884656  0.22814892  0.89947260  1
  O  O240  1  0.20706432  0.73062790  0.35091545  1
  O  O241  1  0.25872529  0.76550284  0.88186550  1
  O  O242  1  0.75145185  0.24555135  0.37100567  1
  O  O243  1  0.71010724  0.24206135  0.83138016  1
  O  O244  1  0.79939598  0.73115292  0.34876964  1
  O  O245  1  0.68762669  0.75241184  0.77366550  1
  O  O246  1  0.09072973  0.20011130  0.04092885  1
  O  O247  1  0.13816388  0.09799376  0.42969876  1
  O  O248  1  0.00467375  0.60130157  0.08448743  1
  O  O249  1  0.03644182  0.53202909  0.52519600  1
  O  O250  1  0.46978298  0.05893591  0.01925585  1
  O  O251  1  0.50227012  0.14248158  0.46593113  1
  O  O252  1  0.50831251  0.72052600  -0.01843443  1
  O  O253  1  0.51217862  0.59458251  0.47941610  1
  O  O254  1  0.52154822  0.38509341  0.50145494  1
  O  O255  1  0.54485798  0.40113629  1.00470008  1
  O  O256  1  0.46829272  0.82395650  0.50174912  1
  O  O257  1  0.54570731  0.88434996  1.02278048  1
  O  O258  1  1.00231488  0.36920004  0.50116445  1
  O  O259  1  0.94987968  0.36825531  0.99287861  1
  O  O260  1  1.02881820  0.86586725  0.45518119  1
  O  O261  1  0.99953778  0.90371522  1.03477084  1
  O  O262  1  0.53231752  0.48192907  0.37175976  1
  O  O263  1  0.54512197  0.51504920  0.89311266  1
  O  O264  1  0.48278619  0.97281854  0.42066627  1
  O  O265  1  0.57156398  0.98519295  0.90973139  1
  O  O266  1  0.97024757  0.46616591  0.38545302  1
  O  O267  1  0.95508337  0.47082130  0.86414705  1
  O  O268  1  0.96789693  1.01148656  0.34585794  1
  O  O269  1  0.92782792  0.95530873  0.89830201  1
  O  O270  1  0.07388392  0.03775717  0.18333700  1
  O  O271  1  0.05545209  0.01395050  0.63873990  1
  O  O272  1  0.09116636  0.46199413  0.10993981  1
  O  O273  1  -0.02525504  0.44101979  0.63543270  1
  O  O274  1  0.51109425  -0.00919490  0.17281582  1
  O  O275  1  0.45054701  -0.02737969  0.62939962  1
  O  O276  1  0.52733076  0.52639290  0.08026281  1
  O  O277  1  0.56544185  0.48966826  0.62538446  1
  O  O278  1  0.23928041  0.45727530  0.13498483  1
  O  O279  1  0.23683349  0.34024659  0.77207329  1
  O  O280  1  0.25048372  0.91986386  0.24950375  1
  O  O281  1  0.21809267  0.91717792  0.84783884  1
  O  O282  1  0.79107094  0.40487765  0.26517991  1
  O  O283  1  0.77607077  0.36686070  0.74842867  1
  O  O284  1  0.78214508  0.88108325  0.25415348  1
  O  O285  1  0.75616343  0.89783286  0.67895210  1
  O  O286  1  0.22038520  0.31045485  0.19342379  1
  O  O287  1  0.24549998  0.14078385  0.81291654  1
  O  O288  1  0.28858908  0.64959896  0.23001964  1
  O  O289  1  0.24973043  0.67318477  0.79477999  1
  O  O290  1  0.73966189  0.12254931  0.27015798  1
  O  O291  1  0.75776271  0.10564858  0.74050362  1
  O  O292  1  0.67948806  0.58706933  0.29470339  1
  O  O293  1  0.81459657  0.63028694  0.65372345  1
  O  O294  1  0.43495746  0.00664628  0.45780167  1
  O  O295  1  0.37368331  0.10563983  0.87478355  1
  O  O296  1  0.38460848  0.62314733  0.33754072  1
  O  O297  1  0.39147056  0.73842208  0.84657648  1
  O  O298  1  0.84906504  0.11721754  0.36046914  1
  O  O299  1  0.83625568  0.06449065  0.86782218  1
  O  O300  1  0.93302169  0.61467720  0.35801516  1
  O  O301  1  0.85841001  0.71630733  0.79569321  1
  O  O302  1  0.19001770  0.34766013  0.04260577  1
  O  O303  1  0.14223244  0.33813822  0.59596358  1
  O  O304  1  0.15262394  0.90352082  0.12956341  1
  O  O305  1  0.17027055  0.93683343  0.70615492  1
  O  O306  1  0.50403224  0.37743273  0.19986995  1
  O  O307  1  0.66112109  0.34134320  0.62953936  1
  O  O308  1  0.61508609  0.88430679  0.18609523  1
  O  O309  1  0.64522634  0.83889419  0.57715210  1
  O  O310  1  0.06011055  0.21008717  0.24445056  1
  O  O311  1  0.06689625  0.20435781  0.77552785  1
  O  O312  1  0.11726061  0.71244496  0.21830954  1
  O  O313  1  0.12633507  0.81358808  0.77417270  1
  O  O314  1  0.60374030  0.31362349  0.29714836  1
  O  O315  1  0.59461546  0.21895037  0.75069276  1
  O  O316  1  0.63734910  0.77846561  0.29040101  1
  O  O317  1  0.54690209  0.75257726  0.72788131  1
  O  O318  1  0.33633549  0.17460931  0.35101541  1
  O  O319  1  0.43245826  0.24137370  0.76078990  1
  O  O320  1  0.42952445  0.70441459  0.22808731  1
  O  O321  1  0.27985221  0.80651473  0.72975723  1
  O  O322  1  0.85292045  0.22885531  0.24055682  1
  O  O323  1  0.86787636  0.20321881  0.78750017  1
  O  O324  1  0.95796828  0.90547321  0.20397413  1
  O  O325  1  0.84231400  0.76268288  0.74578210  1
  O  O326  1  0.42378226  0.48189687  0.48879942  1
  O  O327  1  0.40156667  0.49187734  0.98277218  1
  O  O328  1  0.32163111  0.86761213  0.55086569  1
  O  O329  1  0.43539953  0.99602592  1.00156644  1
  O  O330  1  0.87722216  0.46203773  0.50978746  1
  O  O331  1  0.81456760  0.47608274  0.99902481  1
  O  O332  1  0.88829853  1.03001750  0.47602113  1
  O  O333  1  0.77497652  0.96805574  0.97376527  1
  O  O334  1  0.12057309  0.01034384  0.02078698  1
  O  O335  1  0.15314897  -0.05544537  0.54389378  1
  O  O336  1  0.09070301  0.48299320  0.04478221  1
  O  O337  1  0.15892295  0.46319753  0.47602238  1
  O  O338  1  0.62038197  0.00907586  0.06559710  1
  O  O339  1  0.62424148  0.03840768  0.48498836  1
  O  O340  1  0.58948421  0.52589329  0.11570804  1
  O  O341  1  0.63022626  0.50988689  0.48518186  1
  O  O342  1  0.36669930  0.48101912  0.04265837  1
  O  O343  1  0.41125352  0.39643290  0.61898201  1
  O  O344  1  0.36281373  0.91609579  0.14686159  1
  O  O345  1  0.40399489  0.74772798  0.63884858  1
  O  O346  1  0.86186757  0.37871226  0.10516133  1
  O  O347  1  0.83755617  0.36338943  0.60445287  1
  O  O348  1  0.83096422  0.75202728  0.13812484  1
  O  O349  1  0.92921574  0.90308951  0.57331769  1
  O  O350  1  0.13052205  0.15760696  0.38269887  1
  O  O351  1  0.20469452  0.20487013  0.92400635  1
  O  O352  1  0.10989836  0.57334180  0.39284775  1
  O  O353  1  0.25147928  0.61317948  0.92286971  1
  O  O354  1  0.63485435  0.14386237  0.37112956  1
  O  O355  1  0.63452737  0.11701916  0.86677765  1
  O  O356  1  0.54391383  0.68696340  0.34236451  1
  O  O357  1  0.55372783  0.67618925  0.82840602  1
