# generated using pymatgen
data_V51Zn51O256
_symmetry_space_group_name_H-M   'P 1'
_cell_length_a   17.29020100
_cell_length_b   17.78548394
_cell_length_c   17.57575545
_cell_angle_alpha   90.61817494
_cell_angle_beta   89.93988835
_cell_angle_gamma   88.63233357
_symmetry_Int_Tables_number   1
_chemical_formula_structural   V51Zn51O256
_chemical_formula_sum   'V51 Zn51 O256'
_cell_volume   5402.94244279
_cell_formula_units_Z   1
loop_
 _symmetry_equiv_pos_site_id
 _symmetry_equiv_pos_as_xyz
  1  'x, y, z'
loop_
 _atom_site_type_symbol
 _atom_site_label
 _atom_site_symmetry_multiplicity
 _atom_site_fract_x
 _atom_site_fract_y
 _atom_site_fract_z
 _atom_site_occupancy
  V  V0  1  0.54723987  0.57796858  0.13127536  1
  V  V1  1  0.58426142  0.35721779  0.73294624  1
  V  V2  1  0.08940346  0.86475111  0.42814149  1
  V  V3  1  0.32911049  0.34663864  -0.02335456  1
  V  V4  1  0.61880046  0.60801654  0.49845555  1
  V  V5  1  0.64990547  -0.01933013  0.60614688  1
  V  V6  1  0.51294671  0.04035967  -0.00424512  1
  V  V7  1  0.58165055  0.86372165  0.81515058  1
  V  V8  1  0.29656648  -0.00143055  0.26824630  1
  V  V9  1  0.10678677  0.95111332  0.74551348  1
  V  V10  1  0.63323087  0.03134013  0.12296513  1
  V  V11  1  0.25305743  0.65321939  0.43142675  1
  V  V12  1  0.22816155  0.53102678  0.77582308  1
  V  V13  1  0.75791020  0.47321598  0.26215916  1
  V  V14  1  0.71909664  0.35126428  0.61343539  1
  V  V15  1  0.09235801  0.17010358  0.49278817  1
  V  V16  1  0.85369724  0.51046088  0.89578934  1
  V  V17  1  0.89387115  0.23791985  0.08323191  1
  V  V18  1  0.00954808  0.47205730  0.01297959  1
  V  V19  1  0.73207390  0.73717213  0.45553590  1
  V  V20  1  0.37443147  0.55603018  0.88509727  1
  V  V21  1  0.22030191  0.44113694  0.60412656  1
  V  V22  1  0.12040917  0.21829509  0.85484501  1
  V  V23  1  0.10074487  0.37728186  0.26118967  1
  V  V24  1  0.69114774  0.25087878  0.36346987  1
  V  V25  1  0.65665863  0.37323124  0.13167354  1
  V  V26  1  0.43792492  0.83681314  0.50552340  1
  V  V27  1  0.19060390  0.84104462  0.22941969  1
  V  V28  1  0.27731082  0.14280820  0.40482276  1
  V  V29  1  0.73966931  0.80310604  0.00350109  1
  V  V30  1  0.90730393  0.10669300  0.26472549  1
  V  V31  1  0.61222316  0.88346561  0.23416052  1
  V  V32  1  0.70561325  0.07121196  0.47075440  1
  V  V33  1  0.43503466  0.57718291  0.28380711  1
  V  V34  1  0.88584424  0.24764195  0.62606453  1
  V  V35  1  0.59760075  0.72995330  0.92918113  1
  V  V36  1  0.35751932  0.11052562  0.73881415  1
  V  V37  1  0.16099678  0.05220382  0.15041688  1
  V  V38  1  0.03351522  0.19939781  0.20236435  1
  V  V39  1  0.53417183  0.33476727  0.38000020  1
  V  V40  1  0.56142217  0.49520775  0.60098945  1
  V  V41  1  0.70004701  0.53796354  0.75458501  1
  V  V42  1  0.40837292  0.12881025  0.24339555  1
  V  V43  1  0.22014348  0.76279629  -0.06248709  1
  V  V44  1  0.49009686  0.64019308  0.65689254  1
  V  V45  1  0.48248687  0.35356817  0.86677295  1
  V  V46  1  0.71592075  0.13504078  0.84192619  1
  V  V47  1  0.37002082  0.91268969  -0.01497934  1
  V  V48  1  0.49660101  0.03937420  0.49181830  1
  V  V49  1  0.08188536  0.41245084  0.73408976  1
  V  V50  1  -0.04928744  0.51316199  0.49274981  1
  Zn  Zn51  1  0.61386989  0.90153437  0.43270135  1
  Zn  Zn52  1  0.47045224  0.94649763  0.65899722  1
  Zn  Zn53  1  0.76822474  0.87000782  0.82877995  1
  Zn  Zn54  1  0.15752721  0.10854926  0.67545315  1
  Zn  Zn55  1  0.40146037  0.45387209  0.70503704  1
  Zn  Zn56  1  0.45860940  0.95156832  0.16827181  1
  Zn  Zn57  1  0.20926451  0.48891409  -0.03309859  1
  Zn  Zn58  1  0.19373414  0.52631405  0.28746499  1
  Zn  Zn59  1  0.82448076  0.29549054  0.22977746  1
  Zn  Zn60  1  0.88696224  0.14810465  0.46136364  1
  Zn  Zn61  1  0.48832643  0.40399365  0.05284318  1
  Zn  Zn62  1  0.39194439  0.13588837  0.54219751  1
  Zn  Zn63  1  0.06289332  0.53737453  0.88049739  1
  Zn  Zn64  1  0.60013422  0.69786112  0.75252591  1
  Zn  Zn65  1  0.00259477  0.10669743  0.82461468  1
  Zn  Zn66  1  0.16437394  0.89729150  0.04896265  1
  Zn  Zn67  1  0.83517965  0.04931769  0.60390500  1
  Zn  Zn68  1  0.07441849  0.79514667  0.61743108  1
  Zn  Zn69  1  0.33316121  0.06732681  0.08044918  1
  Zn  Zn70  1  0.59595912  0.21414377  0.52007151  1
  Zn  Zn71  1  0.54820809  0.03291328  0.79416109  1
  Zn  Zn72  1  0.81871118  0.06846873  0.09859071  1
  Zn  Zn73  1  0.28437947  0.68733133  0.27929421  1
  Zn  Zn74  1  0.93201585  0.71817814  0.50461788  1
  Zn  Zn75  1  0.72878536  0.18217314  0.18143167  1
  Zn  Zn76  1  0.92312192  0.41293458  0.17514317  1
  Zn  Zn77  1  0.65226184  0.37911971  0.93064158  1
  Zn  Zn78  1  0.14514531  0.03759782  0.36565132  1
  Zn  Zn79  1  0.04767077  0.33786520  0.56916766  1
  Zn  Zn80  1  0.79862608  0.34790236  0.79085249  1
  Zn  Zn81  1  0.55295740  0.55529191  0.84409202  1
  Zn  Zn82  1  0.58257697  0.04427187  0.31936770  1
  Zn  Zn83  1  0.07580163  0.30041851  0.04588408  1
  Zn  Zn84  1  0.54018282  0.79766141  0.08222271  1
  Zn  Zn85  1  0.91103248  0.99932262  0.76146908  1
  Zn  Zn86  1  0.77616262  0.51295374  0.57118900  1
  Zn  Zn87  1  0.58943124  0.79228127  0.58010747  1
  Zn  Zn88  1  0.17249460  0.71915663  0.74417972  1
  Zn  Zn89  1  0.61907167  0.14755086  0.67269174  1
  Zn  Zn90  1  0.42501201  0.63789852  0.48304565  1
  Zn  Zn91  1  0.77493242  0.68015692  0.84293182  1
  Zn  Zn92  1  0.59977038  0.52754304  0.32767550  1
  Zn  Zn93  1  0.18519745  0.31951361  0.43600252  1
  Zn  Zn94  1  0.71999693  0.98851284  0.96742140  1
  Zn  Zn95  1  0.35739851  0.26359855  0.33501120  1
  Zn  Zn96  1  0.66776710  0.42856074  0.44010385  1
  Zn  Zn97  1  0.19281764  0.63931540  0.59067581  1
  Zn  Zn98  1  1.04542792  0.96660538  0.26907844  1
  Zn  Zn99  1  0.70458210  0.51351535  0.02220496  1
  Zn  Zn100  1  0.29061118  0.84382209  0.38965410  1
  Zn  Zn101  1  0.40661134  0.74120298  0.94177169  1
  O  O102  1  0.09223335  0.13219070  0.14828373  1
  O  O103  1  0.12439208  0.13557748  0.57863337  1
  O  O104  1  0.05065827  0.71355007  0.13053096  1
  O  O105  1  0.06936449  0.76042905  0.72688280  1
  O  O106  1  0.64188217  0.12344421  0.14874993  1
  O  O107  1  0.65440964  0.10235266  0.55371426  1
  O  O108  1  0.63613709  0.57272230  0.08888091  1
  O  O109  1  0.62247790  0.56262146  0.63203547  1
  O  O110  1  0.43731271  0.33066120  0.36124508  1
  O  O111  1  0.38172570  0.37354785  0.89188596  1
  O  O112  1  0.44285243  0.79469242  0.30174775  1
  O  O113  1  0.42755328  0.89326392  0.91279206  1
  O  O114  1  0.89619732  0.30641449  0.37648372  1
  O  O115  1  0.85664991  0.43536881  0.83425816  1
  O  O116  1  0.96383286  0.77280666  0.40967059  1
  O  O117  1  0.83304375  0.77511978  0.82317180  1
  O  O118  1  0.26163564  0.03663233  0.36879888  1
  O  O119  1  0.27848587  -0.05740580  0.93044549  1
  O  O120  1  0.33765611  0.45356540  0.42874795  1
  O  O121  1  0.18135164  0.53681888  0.86318592  1
  O  O122  1  0.91429183  -0.07509455  0.46966315  1
  O  O123  1  0.70913597  0.03547814  0.85972368  1
  O  O124  1  0.70834310  0.49203804  0.35004101  1
  O  O125  1  0.72714832  0.50629027  0.85505566  1
  O  O126  1  0.27455381  0.51714325  0.18549620  1
  O  O127  1  0.19829225  0.53233988  0.58461884  1
  O  O128  1  0.25911405  0.98793060  0.17681079  1
  O  O129  1  0.25777868  0.90982173  0.55991605  1
  O  O130  1  0.97439840  0.67126595  0.28343899  1
  O  O131  1  0.76332523  0.51084965  0.68481378  1
  O  O132  1  0.72524122  0.99446767  0.11434434  1
  O  O133  1  0.74139524  0.99806435  0.63733420  1
  O  O134  1  0.00246916  0.38665137  0.25060330  1
  O  O135  1  0.00485703  0.36213087  0.73409131  1
  O  O136  1  0.09627404  0.87064323  0.24594798  1
  O  O137  1  0.01001468  0.92288678  0.76213836  1
  O  O138  1  0.55974919  0.36144531  0.13167393  1
  O  O139  1  0.47724868  0.38761960  0.75824502  1
  O  O140  1  0.53070528  0.85683725  0.17410191  1
  O  O141  1  0.52132506  0.92695662  0.75871827  1
  O  O142  1  0.49651198  0.10292411  0.28283844  1
  O  O143  1  0.45430358  0.09522968  0.77116484  1
  O  O144  1  0.53451013  0.56533649  0.24138909  1
  O  O145  1  0.51473801  0.61995780  0.75395050  1
  O  O146  1  1.01608065  0.14008376  0.27980746  1
  O  O147  1  0.92410313  0.11111154  0.75059934  1
  O  O148  1  0.92036751  0.83717350  0.26037504  1
  O  O149  1  1.01379529  0.63215063  0.71218154  1
  O  O150  1  0.32163114  0.25355243  -0.01694000  1
  O  O151  1  0.21315740  0.26524065  0.62821733  1
  O  O152  1  0.31349217  0.80190945  -0.04401943  1
  O  O153  1  0.41600261  0.74466584  0.50299448  1
  O  O154  1  0.89829916  0.25119992  -0.00787195  1
  O  O155  1  0.85585742  0.23271760  0.52725194  1
  O  O156  1  0.83655027  0.73986870  -0.01597185  1
  O  O157  1  0.82225304  0.72940791  0.49244272  1
  O  O158  1  0.10098447  0.27127785  0.49515376  1
  O  O159  1  0.10762966  0.25221131  0.94733522  1
  O  O160  1  0.17550357  0.73779814  0.63384789  1
  O  O161  1  0.15364671  0.83085935  0.96389887  1
  O  O162  1  0.68322459  0.18670285  0.43903188  1
  O  O163  1  0.50932760  0.22808260  1.11757246  1
  O  O164  1  0.65077915  0.71226008  0.51674840  1
  O  O165  1  0.63837523  0.77522546  1.02309341  1
  O  O166  1  0.44928014  0.23562878  0.08317904  1
  O  O167  1  0.54095066  0.19521828  0.61546908  1
  O  O168  1  0.52818202  0.68969835  0.13851450  1
  O  O169  1  0.55154276  0.72577185  0.65665418  1
  O  O170  1  1.00478184  0.24669005  0.10647195  1
  O  O171  1  0.98049398  0.26726455  0.61640844  1
  O  O172  1  1.02631462  0.65162693  0.11235903  1
  O  O173  1  0.99260041  0.73093891  0.58803076  1
  O  O174  1  -0.03496517  0.29335088  0.39043195  1
  O  O175  1  0.01307325  0.21613692  0.83870042  1
  O  O176  1  0.03424904  0.78073341  0.38172075  1
  O  O177  1  -0.01607476  0.69355960  0.87144935  1
  O  O178  1  0.59599952  0.26798725  0.32524391  1
  O  O179  1  0.48382296  0.26286229  0.86434400  1
  O  O180  1  0.49324899  0.74909164  0.32012634  1
  O  O181  1  0.50675475  0.75732643  0.97982743  1
  O  O182  1  0.29044436  0.14842530  0.50029297  1
  O  O183  1  0.22778692  0.09527968  1.09051666  1
  O  O184  1  0.31633579  0.61056848  0.49370059  1
  O  O185  1  0.16904309  0.67582329  0.98007403  1
  O  O186  1  0.80586488  0.07182137  0.49510217  1
  O  O187  1  0.69736489  0.16191503  0.93616347  1
  O  O188  1  0.71489992  0.58068753  0.50704546  1
  O  O189  1  0.78998893  0.69880391  1.02558152  1
  O  O190  1  0.23508033  0.38556864  -0.02247073  1
  O  O191  1  0.21803959  0.39024684  0.52014993  1
  O  O192  1  0.25923452  0.95501441  0.00488664  1
  O  O193  1  0.38135453  0.88055711  0.43619142  1
  O  O194  1  0.74994222  0.34019295  -0.11043372  1
  O  O195  1  0.71541365  0.42437819  0.54314214  1
  O  O196  1  0.74853195  0.88359271  -0.06012981  1
  O  O197  1  0.71498070  0.82615009  0.43310693  1
  O  O198  1  0.12722604  0.47021692  0.23528593  1
  O  O199  1  0.05262143  0.49520039  0.77856040  1
  O  O200  1  0.13945388  1.03285438  0.25155693  1
  O  O201  1  0.06665752  1.05144711  0.72263606  1
  O  O202  1  0.68050832  0.44768629  0.19781094  1
  O  O203  1  0.61236294  0.49611404  0.76162191  1
  O  O204  1  0.61612656  0.98692766  0.22372660  1
  O  O205  1  0.59980696  1.04140387  0.69223576  1
  O  O206  1  0.39253701  -0.02602233  0.25825738  1
  O  O207  1  0.38635219  0.02208377  0.68537006  1
  O  O208  1  0.37760566  0.49275089  0.27284440  1
  O  O209  1  0.33383135  0.52251051  0.79057223  1
  O  O210  1  0.94865247  0.01548664  0.25545127  1
  O  O211  1  0.82410859  -0.04579272  0.79771103  1
  O  O212  1  0.95710762  0.61141384  0.25298287  1
  O  O213  1  0.84542126  0.59605281  0.84901550  1
  O  O214  1  0.12922585  0.37332256  0.35461310  1
  O  O215  1  0.12679088  0.30918196  0.81903912  1
  O  O216  1  0.18373465  0.84214216  0.42508723  1
  O  O217  1  0.11778390  0.97985582  0.84027372  1
  O  O218  1  0.71821467  0.33345694  0.40048893  1
  O  O219  1  0.59753037  0.36012756  0.83148542  1
  O  O220  1  0.59504779  0.87077159  0.32844264  1
  O  O221  1  0.59552818  0.89476665  0.90251482  1
  O  O222  1  0.41428369  0.09547786  0.14947614  1
  O  O223  1  0.38907649  0.15541751  0.64903221  1
  O  O224  1  0.34345453  0.49107611  0.18948469  1
  O  O225  1  0.40065706  0.66918499  0.65516592  1
  O  O226  1  0.93073584  0.11866533  0.08352250  1
  O  O227  1  0.87056228  0.14908086  0.63139521  1
  O  O228  1  0.86580934  0.72260013  0.15635100  1
  O  O229  1  0.78915341  0.70292266  0.65460393  1
  O  O230  1  0.20986843  0.34644538  0.14459067  1
  O  O231  1  0.25028767  0.30250365  0.67494602  1
  O  O232  1  0.23791490  0.68704493  0.01466175  1
  O  O233  1  0.32149735  0.81662011  0.70349072  1
  O  O234  1  0.80392119  0.18564650  0.09533305  1
  O  O235  1  0.68268415  0.27101649  0.58228412  1
  O  O236  1  0.76850581  0.83872387  0.08331583  1
  O  O237  1  0.78037167  0.76964422  0.63817774  1
  O  O238  1  0.25660009  0.24476640  0.38136407  1
  O  O239  1  0.21695369  0.19802547  0.86997164  1
  O  O240  1  0.29724933  0.73054600  0.38681872  1
  O  O241  1  0.21270802  0.73930925  0.84316038  1
  O  O242  1  0.75540862  0.22765470  0.28708282  1
  O  O243  1  0.72001815  0.23425176  0.82690485  1
  O  O244  1  0.75063769  0.68133917  0.35822689  1
  O  O245  1  0.69982607  0.73873361  0.90282633  1
  O  O246  1  -0.02206758  0.09485901  0.02143454  1
  O  O247  1  -0.00016448  0.14459919  0.47690920  1
  O  O248  1  -0.09173544  0.77237874  0.13537346  1
  O  O249  1  -0.05968622  0.61091068  0.46930988  1
  O  O250  1  0.49623120  0.12999562  -0.00063905  1
  O  O251  1  0.49858892  0.14031994  0.49405981  1
  O  O252  1  0.47801634  0.64775602  0.09097682  1
  O  O253  1  0.51825299  0.62655009  0.54714880  1
  O  O254  1  0.55289379  0.30901409  0.47093930  1
  O  O255  1  0.53483165  0.37631792  0.95525408  1
  O  O256  1  0.54069477  0.84051451  0.49120751  1
  O  O257  1  0.41922883  0.84543579  1.05661701  1
  O  O258  1  0.97904184  0.41994391  0.52111930  1
  O  O259  1  1.02247895  0.38029905  0.99200291  1
  O  O260  1  1.06196334  0.85535306  0.51982926  1
  O  O261  1  0.96726606  0.86498489  1.02507450  1
  O  O262  1  0.56865708  0.42587074  0.36612590  1
  O  O263  1  0.46437257  0.51304342  0.89254797  1
  O  O264  1  0.53832549  0.99541457  0.41204604  1
  O  O265  1  0.51961561  1.02055772  0.89908113  1
  O  O266  1  0.98129252  0.50122926  0.40074786  1
  O  O267  1  0.95764585  0.51493106  0.93213897  1
  O  O268  1  1.07335657  0.95622446  0.38737173  1
  O  O269  1  0.95473878  1.02312366  0.86269238  1
  O  O270  1  -0.00854908  0.02500552  0.01902184  1
  O  O271  1  -0.09458113  -0.01480147  0.65626818  1
  O  O272  1  -0.03192558  0.47985317  0.10153243  1
  O  O273  1  -0.11230939  0.54005224  0.57600063  1
  O  O274  1  0.52982609  -0.00083526  0.09919508  1
  O  O275  1  0.53373485  -0.00173047  0.57690347  1
  O  O276  1  0.49671936  0.50499350  0.09914578  1
  O  O277  1  0.46933456  0.52289510  0.64090992  1
  O  O278  1  0.21719845  0.34745037  0.21902933  1
  O  O279  1  0.19837923  0.44853694  0.73155835  1
  O  O280  1  0.25925164  0.89304791  0.29041307  1
  O  O281  1  0.18379953  0.99796020  0.69490690  1
  O  O282  1  0.83395824  0.40473529  0.25782260  1
  O  O283  1  0.69927470  0.36185522  0.71582473  1
  O  O284  1  0.81757897  0.94758412  0.34383170  1
  O  O285  1  0.67172379  0.85504184  0.77401959  1
  O  O286  1  0.30525441  0.09967415  0.25233463  1
  O  O287  1  0.26641418  0.12186177  0.68884257  1
  O  O288  1  0.23758103  0.59816417  0.34460844  1
  O  O289  1  0.20255883  0.60942607  0.72600400  1
  O  O290  1  0.82241116  0.09175714  0.20820091  1
  O  O291  1  0.71547945  0.13179820  0.73771906  1
  O  O292  1  0.79412431  0.55081834  0.23098035  1
  O  O293  1  0.69448347  0.63849297  0.76766133  1
  O  O294  1  0.37115974  0.14663848  0.37144714  1
  O  O295  1  0.31024280  0.06055517  0.80658078  1
  O  O296  1  0.44312978  0.59111185  0.37805361  1
  O  O297  1  0.38317850  0.65170489  0.88615235  1
  O  O298  1  0.87447395  0.12391638  0.35396260  1
  O  O299  1  0.81492260  0.11929828  0.85010380  1
  O  O300  1  0.82034139  0.66309468  0.34173935  1
  O  O301  1  0.94398318  0.63217290  0.72389301  1
  O  O302  1  0.13250938  0.36142438  0.12507022  1
  O  O303  1  0.11158910  0.40334078  0.63367535  1
  O  O304  1  0.20846035  0.84177824  0.13425148  1
  O  O305  1  0.08600652  0.90147659  0.65814002  1
  O  O306  1  0.68223722  0.40370366  0.03963749  1
  O  O307  1  0.58094561  0.40350577  0.63267794  1
  O  O308  1  0.79350804  0.94647823  0.27882738  1
  O  O309  1  0.63433017  0.88762486  0.61944538  1
  O  O310  1  0.09277180  0.26599072  0.23894470  1
  O  O311  1  0.13381581  0.18538748  0.75791190  1
  O  O312  1  0.19752832  0.74694939  0.25345466  1
  O  O313  1  0.16800338  0.87976177  0.77296139  1
  O  O314  1  0.70355908  0.29303334  0.16020514  1
  O  O315  1  0.57874519  0.26513074  0.71577499  1
  O  O316  1  0.69132619  0.83752559  0.20947550  1
  O  O317  1  0.55743929  0.76340872  0.83472610  1
  O  O318  1  0.39957413  0.22474572  0.23863228  1
  O  O319  1  0.35701379  0.19511119  0.78445911  1
  O  O320  1  0.37973600  0.64558373  0.24176892  1
  O  O321  1  0.34398038  0.83439004  0.76750858  1
  O  O322  1  0.91911649  0.20585497  0.21323603  1
  O  O323  1  0.85493078  0.27831770  0.72321231  1
  O  O324  1  0.87020333  0.80064830  0.29118174  1
  O  O325  1  0.89626693  0.77315723  0.76303237  1
  O  O326  1  0.38718513  0.44470609  0.47769394  1
  O  O327  1  0.31439063  0.53239749  0.95726836  1
  O  O328  1  0.40070212  1.02675748  0.50015538  1
  O  O329  1  0.40220710  1.00882571  1.00831546  1
  O  O330  1  0.85518670  0.47845362  0.46720034  1
  O  O331  1  0.80753444  0.50894259  0.98288440  1
  O  O332  1  0.86747860  0.89541184  0.51186442  1
  O  O333  1  0.81550687  1.03307339  0.99669742  1
  O  O334  1  0.11681057  -0.01721639  0.09979444  1
  O  O335  1  0.23609267  -0.02873320  0.53503185  1
  O  O336  1  0.10012844  0.51509695  -0.00623063  1
  O  O337  1  0.03426702  0.53302957  0.54540418  1
  O  O338  1  0.62560049  0.03413542  0.01312844  1
  O  O339  1  0.67704285  -0.02595884  0.49927675  1
  O  O340  1  0.66340638  0.49953050  -0.09291580  1
  O  O341  1  0.58079756  0.50039787  0.50156844  1
  O  O342  1  0.38303058  0.37406927  0.05457655  1
  O  O343  1  0.31597083  0.43693466  0.63625923  1
  O  O344  1  0.37491632  0.89626022  0.10268983  1
  O  O345  1  0.42297708  0.87265092  0.59749498  1
  O  O346  1  0.86846099  0.32628773  0.12943536  1
  O  O347  1  0.82086286  0.33778045  0.61483759  1
  O  O348  1  0.91134379  0.89163728  -0.00885060  1
  O  O349  1  0.88764694  0.82016976  0.71077679  1
  O  O350  1  0.15488353  0.13406510  0.41789926  1
  O  O351  1  0.09658238  0.12171839  0.88802492  1
  O  O352  1  0.17131638  0.67218730  0.48199469  1
  O  O353  1  0.04864991  0.66213623  0.87935103  1
  O  O354  1  0.68010704  0.05803972  0.37605703  1
  O  O355  1  0.60896073  0.12697904  0.82611474  1
  O  O356  1  0.60197829  0.61309025  0.40377611  1
  O  O357  1  0.58751857  0.63663617  0.92034240  1
