# generated using pymatgen
data_V51Zn51O256
_symmetry_space_group_name_H-M   'P 1'
_cell_length_a   17.69432233
_cell_length_b   18.01170075
_cell_length_c   17.58550063
_cell_angle_alpha   90.95990254
_cell_angle_beta   89.24565166
_cell_angle_gamma   89.88770290
_symmetry_Int_Tables_number   1
_chemical_formula_structural   V51Zn51O256
_chemical_formula_sum   'V51 Zn51 O256'
_cell_volume   5603.29861872
_cell_formula_units_Z   1
loop_
 _symmetry_equiv_pos_site_id
 _symmetry_equiv_pos_as_xyz
  1  'x, y, z'
loop_
 _atom_site_type_symbol
 _atom_site_label
 _atom_site_symmetry_multiplicity
 _atom_site_fract_x
 _atom_site_fract_y
 _atom_site_fract_z
 _atom_site_occupancy
  V  V0  1  0.62703410  -0.02432722  0.66175530  1
  V  V1  1  0.14813266  0.64032053  0.52517116  1
  V  V2  1  0.12816430  0.21065481  0.86698622  1
  V  V3  1  0.00500221  0.62617697  0.63303912  1
  V  V4  1  0.15536605  0.85823822  0.73771514  1
  V  V5  1  0.77643035  -0.02728148  0.75620413  1
  V  V6  1  0.15010927  0.50489286  0.64058160  1
  V  V7  1  0.27633719  0.49178949  0.16249225  1
  V  V8  1  0.70678521  0.20744398  -0.02158709  1
  V  V9  1  0.69383637  0.44965987  0.72898194  1
  V  V10  1  0.86518564  0.89182876  0.51693765  1
  V  V11  1  0.76901751  0.51358952  0.22652190  1
  V  V12  1  0.12715710  0.76482781  0.87368515  1
  V  V13  1  0.61424872  0.02266247  0.10200535  1
  V  V14  1  0.50589844  -0.01035494  0.54775821  1
  V  V15  1  0.34763691  0.26062587  0.63319724  1
  V  V16  1  0.18001818  0.00300580  0.63473365  1
  V  V17  1  0.81199546  0.24380013  0.64284812  1
  V  V18  1  0.00224750  0.74835917  0.75376706  1
  V  V19  1  0.82013538  0.38245282  0.50876502  1
  V  V20  1  0.40675350  0.76717299  0.09640305  1
  V  V21  1  0.39643635  0.75995268  0.66098061  1
  V  V22  1  0.75861604  0.95003366  0.18529721  1
  V  V23  1  0.72794090  0.81889314  0.06251400  1
  V  V24  1  0.33192341  0.22460977  0.12757763  1
  V  V25  1  0.13432762  0.63847692  -0.00415259  1
  V  V26  1  0.57509304  0.46786842  0.61450217  1
  V  V27  1  -0.01552179  0.02433559  0.00203396  1
  V  V28  1  0.24427870  0.49820673  0.77827009  1
  V  V29  1  0.75738969  0.11412685  0.84470167  1
  V  V30  1  0.71963090  0.69507903  0.55038440  1
  V  V31  1  0.77208054  0.16243017  0.42389619  1
  V  V32  1  0.61909161  0.24095567  0.34059147  1
  V  V33  1  0.45187184  0.38328076  0.88920762  1
  V  V34  1  0.83122131  0.33145044  -0.02046987  1
  V  V35  1  0.09349986  0.75629229  0.40613814  1
  V  V36  1  0.62558322  0.71663012  0.32120173  1
  V  V37  1  0.14748581  0.27974008  0.37790078  1
  V  V38  1  0.23588036  0.78823070  0.01741285  1
  V  V39  1  0.29828525  0.75185219  0.48292337  1
  V  V40  1  0.49733169  0.38171827  0.30916324  1
  V  V41  1  0.46667191  -0.02796821  -0.02204577  1
  V  V42  1  0.60955992  0.57801248  0.45116916  1
  V  V43  1  -0.00374909  0.56461029  -0.03041583  1
  V  V44  1  0.87913946  0.75207577  0.16048720  1
  V  V45  1  0.67276736  0.52345596  0.09427921  1
  V  V46  1  0.42519016  0.54628877  0.94517309  1
  V  V47  1  0.41325207  0.61726515  0.22137740  1
  V  V48  1  0.61821938  0.13035171  0.55150797  1
  V  V49  1  0.13274282  0.89381951  0.31972892  1
  V  V50  1  0.38414249  0.62035677  0.75189838  1
  Zn  Zn51  1  0.40581850  0.43723439  0.71029913  1
  Zn  Zn52  1  0.57914497  0.54507503  0.26575660  1
  Zn  Zn53  1  0.49227917  0.92462027  0.15082812  1
  Zn  Zn54  1  0.22218366  0.15874619  0.70412711  1
  Zn  Zn55  1  0.71206574  0.67473539  0.15929860  1
  Zn  Zn56  1  0.04925139  0.19860431  0.05768798  1
  Zn  Zn57  1  0.13010913  0.20764584  0.19286011  1
  Zn  Zn58  1  0.78160325  0.08741222  0.05515050  1
  Zn  Zn59  1  0.45688679  0.68274047  0.39655920  1
  Zn  Zn60  1  0.70183090  0.94410823  0.93177251  1
  Zn  Zn61  1  0.18562827  0.02916052  0.81456422  1
  Zn  Zn62  1  0.56249414  0.81514923  0.57730445  1
  Zn  Zn63  1  0.81777632  0.54988184  0.62488550  1
  Zn  Zn64  1  0.43312572  0.19322118  0.87111796  1
  Zn  Zn65  1  0.31641439  0.34265021  0.28257612  1
  Zn  Zn66  1  0.49166515  0.90205589  0.71260971  1
  Zn  Zn67  1  0.93759763  0.26997711  0.40070303  1
  Zn  Zn68  1  0.07317936  0.58342834  0.81397474  1
  Zn  Zn69  1  0.26912976  0.44925104  0.96001944  1
  Zn  Zn70  1  0.59265651  0.19697632  0.74886357  1
  Zn  Zn71  1  0.78428770  0.06267609  0.58983198  1
  Zn  Zn72  1  0.20342983  0.61313436  0.33243520  1
  Zn  Zn73  1  0.22705836  0.69627451  0.69155363  1
  Zn  Zn74  1  0.87773848  0.47329045  0.10350962  1
  Zn  Zn75  1  0.18974260  0.65953109  0.15850567  1
  Zn  Zn76  1  0.56607637  0.07348700  0.83381255  1
  Zn  Zn77  1  0.30310432  0.77150060  0.81461720  1
  Zn  Zn78  1  0.61679031  0.39065494  0.45368576  1
  Zn  Zn79  1  0.54976948  0.79684815  -0.02505740  1
  Zn  Zn80  1  0.34094752  0.11403506  -0.01190251  1
  Zn  Zn81  1  0.26280917  0.63269401  0.89330064  1
  Zn  Zn82  1  0.93295558  0.87904407  0.71888251  1
  Zn  Zn83  1  0.77173733  0.34022793  0.36712260  1
  Zn  Zn84  1  0.48027409  0.14661352  0.43194614  1
  Zn  Zn85  1  0.02764108  0.73847145  0.05882707  1
  Zn  Zn86  1  0.23386135  0.77715309  0.28742531  1
  Zn  Zn87  1  0.61887779  0.30017494  0.60884779  1
  Zn  Zn88  1  0.65670974  0.39108371  0.94765272  1
  Zn  Zn89  1  0.18006904  0.87310133  0.51575723  1
  Zn  Zn90  1  0.52232815  0.17456670  0.04724953  1
  Zn  Zn91  1  0.19969775  0.46800925  0.44634529  1
  Zn  Zn92  1  0.05662671  0.80216336  0.58268239  1
  Zn  Zn93  1  0.53549961  0.52230069  0.80432523  1
  Zn  Zn94  1  0.13690452  0.08843358  0.34498046  1
  Zn  Zn95  1  0.95049874  0.91001835  0.12947211  1
  Zn  Zn96  1  0.34549685  -0.08500094  0.58501634  1
  Zn  Zn97  1  0.81245629  0.85073999  0.32918030  1
  Zn  Zn98  1  0.79803018  0.30291560  0.82127220  1
  Zn  Zn99  1  0.93003643  0.18074490  0.90550876  1
  Zn  Zn100  1  0.19379326  0.34161844  0.56449075  1
  Zn  Zn101  1  0.26148201  0.97371354  0.98521317  1
  O  O102  1  0.10862150  0.13070971  0.11512866  1
  O  O103  1  0.16974850  0.10008280  0.63233574  1
  O  O104  1  0.10146866  0.66326429  0.09228653  1
  O  O105  1  0.15565871  0.65103260  0.62454100  1
  O  O106  1  0.58505818  0.11297037  0.10777952  1
  O  O107  1  0.61387234  0.13739883  0.64678017  1
  O  O108  1  0.66092036  0.61619826  0.08088513  1
  O  O109  1  0.60087348  0.53945495  0.55595460  1
  O  O110  1  0.40358587  0.36409969  0.33670932  1
  O  O111  1  0.38178993  0.44906593  0.93118521  1
  O  O112  1  0.35028482  0.94148096  0.37590124  1
  O  O113  1  0.34867050  0.97101608  0.81004639  1
  O  O114  1  0.87218602  0.35898274  0.42018723  1
  O  O115  1  0.83893812  0.37586880  0.89405153  1
  O  O116  1  0.86670719  0.87252084  0.42134201  1
  O  O117  1  0.84605784  0.73873382  0.93492819  1
  O  O118  1  0.21191002  0.05775765  0.44859704  1
  O  O119  1  0.19803883  -0.02267950  0.90124179  1
  O  O120  1  0.22144846  0.51624325  0.35853759  1
  O  O121  1  0.24134098  0.51803647  0.87857360  1
  O  O122  1  0.86299372  0.19712055  0.43316143  1
  O  O123  1  0.75078625  0.00395543  0.85674452  1
  O  O124  1  0.75478858  0.48502792  0.32695086  1
  O  O125  1  0.67934074  0.42306994  0.83656555  1
  O  O126  1  0.27864875  0.47330857  0.06680840  1
  O  O127  1  0.24448851  0.51606694  0.65862811  1
  O  O128  1  0.24755194  1.03123300  0.22429744  1
  O  O129  1  0.27385083  0.98526989  0.62938473  1
  O  O130  1  0.76926114  0.51003432  0.10681038  1
  O  O131  1  0.67245932  0.40947982  0.64117867  1
  O  O132  1  0.72286123  1.03344096  0.13694272  1
  O  O133  1  0.73160519  0.98863063  0.65769500  1
  O  O134  1  0.07373115  0.43642119  0.17249584  1
  O  O135  1  0.01835939  0.31483602  0.67597081  1
  O  O136  1  0.00662332  0.92071163  0.22771348  1
  O  O137  1  0.03701715  0.84502185  0.73717190  1
  O  O138  1  0.50696409  0.35267847  0.22109066  1
  O  O139  1  0.47296243  0.42055077  0.79842749  1
  O  O140  1  0.48440059  0.90006132  0.31301079  1
  O  O141  1  0.52552492  0.85666514  0.81253345  1
  O  O142  1  0.44444401  0.04512199  0.23890906  1
  O  O143  1  0.50060705  0.15544733  0.79782052  1
  O  O144  1  0.50622975  0.60287596  0.20439504  1
  O  O145  1  0.47669980  0.60782883  0.77336188  1
  O  O146  1  1.09048353  0.14409858  0.26590134  1
  O  O147  1  0.97063859  0.12272906  0.68916938  1
  O  O148  1  0.98777492  0.58418888  0.31385702  1
  O  O149  1  1.01460096  0.64477854  0.74416785  1
  O  O150  1  0.29822684  0.22028344  0.03120644  1
  O  O151  1  0.35704774  0.27708650  0.53608804  1
  O  O152  1  0.33975723  0.77428956  0.02176843  1
  O  O153  1  0.39137093  0.73140011  0.47086875  1
  O  O154  1  0.88666032  0.25191922  -0.02898772  1
  O  O155  1  0.84637543  0.31489571  0.57383959  1
  O  O156  1  0.80837071  0.57147425  -0.10328537  1
  O  O157  1  0.79278334  0.76435794  0.52205193  1
  O  O158  1  0.15601316  0.27902490  0.48499155  1
  O  O159  1  0.10145693  0.22141698  0.96585555  1
  O  O160  1  0.13027630  0.76211703  0.50982923  1
  O  O161  1  0.12490155  0.75825710  0.98493896  1
  O  O162  1  0.60094610  0.22082438  0.52714821  1
  O  O163  1  0.61091154  0.21335714  0.99247987  1
  O  O164  1  0.64419767  0.74462556  0.57955406  1
  O  O165  1  0.64568089  0.78512870  1.03079665  1
  O  O166  1  0.43464759  0.21723175  0.12246344  1
  O  O167  1  0.44076721  0.27697089  0.66679523  1
  O  O168  1  0.48839561  0.74177855  0.05609045  1
  O  O169  1  0.47942309  0.74956185  0.61044721  1
  O  O170  1  0.95783348  0.22722394  0.09948878  1
  O  O171  1  1.01011919  0.26293611  0.63018483  1
  O  O172  1  0.95424125  0.80200314  0.10829536  1
  O  O173  1  1.00755037  0.73171736  0.64528195  1
  O  O174  1  0.04762804  0.27224110  0.38758661  1
  O  O175  1  0.02314496  0.21017667  0.86129465  1
  O  O176  1  0.00217774  0.75546335  0.41644752  1
  O  O177  1  0.02881773  0.74847645  0.85660584  1
  O  O178  1  0.57210822  0.16668111  0.37593244  1
  O  O179  1  0.40921304  0.30098488  0.87362407  1
  O  O180  1  0.53375113  0.74058660  0.34065263  1
  O  O181  1  0.54925657  0.70770292  0.90133421  1
  O  O182  1  0.26400473  0.09685580  0.47313697  1
  O  O183  1  0.24254240  0.07472790  1.01280899  1
  O  O184  1  0.24602695  0.66640141  0.50419821  1
  O  O185  1  0.22852069  0.63116889  1.00846758  1
  O  O186  1  0.71984965  0.12400136  0.50927508  1
  O  O187  1  0.72827757  0.10674736  0.95414734  1
  O  O188  1  0.69244529  0.63611321  0.47323710  1
  O  O189  1  0.75875654  0.60288101  0.93463342  1
  O  O190  1  0.23489648  0.35295412  -0.03847254  1
  O  O191  1  0.25585550  0.40242982  0.50600532  1
  O  O192  1  0.22914225  0.88148296  0.02488408  1
  O  O193  1  0.28754276  0.84884911  0.51662433  1
  O  O194  1  0.72729357  0.31688599  -0.01324249  1
  O  O195  1  0.72812765  0.37142202  0.47400898  1
  O  O196  1  0.76474342  0.87417986  -0.00567445  1
  O  O197  1  0.77584725  0.83917526  0.54069008  1
  O  O198  1  0.20223820  0.55071776  0.17886270  1
  O  O199  1  0.14356177  0.52083136  0.75307175  1
  O  O200  1  0.11550769  0.98695585  0.32994123  1
  O  O201  1  0.14720195  0.96568305  0.72970808  1
  O  O202  1  0.65612190  0.50230928  0.19490254  1
  O  O203  1  0.60790473  0.50391856  0.72066087  1
  O  O204  1  0.58641792  0.96590362  0.17839192  1
  O  O205  1  0.60801079  1.00534488  0.75277171  1
  O  O206  1  0.36980929  0.00616266  0.36985205  1
  O  O207  1  0.41003051  -0.00811759  0.78468997  1
  O  O208  1  0.36176659  0.53523854  0.19648884  1
  O  O209  1  0.34882154  0.52071533  0.75555236  1
  O  O210  1  0.93455705  0.06239957  0.27197007  1
  O  O211  1  0.87304484  -0.03860082  0.74414146  1
  O  O212  1  0.86069964  0.48253474  0.21235338  1
  O  O213  1  0.77398765  0.49863093  0.71430348  1
  O  O214  1  0.13996716  0.38154941  0.39713126  1
  O  O215  1  0.14151109  0.30270122  0.84940728  1
  O  O216  1  0.12344963  0.86581583  0.41782636  1
  O  O217  1  0.12806044  0.85762068  0.85546045  1
  O  O218  1  0.57302425  0.33044447  0.36779896  1
  O  O219  1  0.55295704  0.34936075  0.91823318  1
  O  O220  1  0.66436262  0.78890765  0.38936317  1
  O  O221  1  0.62516781  0.86010057  0.89273661  1
  O  O222  1  0.34757577  0.12550740  0.11848303  1
  O  O223  1  0.37276969  0.16824665  0.61156650  1
  O  O224  1  0.36170306  0.67505779  0.13994755  1
  O  O225  1  0.38755509  0.63710421  0.65871893  1
  O  O226  1  0.89913946  0.11235192  0.24098878  1
  O  O227  1  0.83552359  0.15502896  0.61293687  1
  O  O228  1  0.91050815  0.66851211  0.17377859  1
  O  O229  1  0.91337501  0.60321227  0.62430785  1
  O  O230  1  0.23586190  0.21617188  0.15911175  1
  O  O231  1  0.24312951  0.25927388  0.61654836  1
  O  O232  1  0.21814432  0.75895941  0.10731258  1
  O  O233  1  0.30609787  0.74826226  0.62234703  1
  O  O234  1  0.75577841  0.19402060  0.06226447  1
  O  O235  1  0.71784301  0.25593468  0.64349701  1
  O  O236  1  0.78789987  0.74322066  0.10329493  1
  O  O237  1  0.75318553  0.63893388  0.61848131  1
  O  O238  1  0.24511252  0.30149372  0.35712705  1
  O  O239  1  0.21666752  0.19144302  0.89630728  1
  O  O240  1  0.26589267  0.76348169  0.39387683  1
  O  O241  1  0.24167878  0.75753278  0.90593974  1
  O  O242  1  0.72114301  0.24106355  0.37467890  1
  O  O243  1  0.74952611  0.22128494  0.87775631  1
  O  O244  1  0.73006195  0.76346085  0.35123656  1
  O  O245  1  0.86612150  0.79524944  0.90262925  1
  O  O246  1  -0.01347759  0.12500866  -0.00582681  1
  O  O247  1  0.04829814  0.12055649  0.50067625  1
  O  O248  1  -0.00372369  0.66017575  -0.01639988  1
  O  O249  1  0.04268872  0.63820318  0.53650552  1
  O  O250  1  0.44345497  0.15753347  -0.02406395  1
  O  O251  1  0.52726993  0.08867805  0.50816986  1
  O  O252  1  0.62852105  0.64239042  -0.17379355  1
  O  O253  1  0.52078740  0.61208020  0.45209342  1
  O  O254  1  0.41054841  0.47314034  0.46367831  1
  O  O255  1  0.50528331  0.36812513  0.98144902  1
  O  O256  1  0.53356695  0.90113557  0.51828058  1
  O  O257  1  0.47748729  0.87775764  0.97025841  1
  O  O258  1  0.99736799  0.40383176  0.52922952  1
  O  O259  1  1.01489646  0.36368478  1.00201714  1
  O  O260  1  0.97011274  0.87736861  0.55335862  1
  O  O261  1  0.96457835  0.92580634  1.00804021  1
  O  O262  1  0.51234487  0.47587434  0.31279147  1
  O  O263  1  0.51729284  0.52578297  0.91258128  1
  O  O264  1  0.52451792  0.94187606  0.35077706  1
  O  O265  1  0.51656043  1.01396292  0.90664548  1
  O  O266  1  1.04869741  0.45657291  0.23505470  1
  O  O267  1  0.99044014  0.54123779  0.87528771  1
  O  O268  1  1.03594292  1.09757427  0.43459581  1
  O  O269  1  0.96852537  1.00821402  0.90627354  1
  O  O270  1  -0.00610715  0.01413700  0.10537721  1
  O  O271  1  0.01123625  0.07003596  0.67008586  1
  O  O272  1  0.07346328  0.39795082  0.01483058  1
  O  O273  1  0.04989105  0.53871332  0.64405889  1
  O  O274  1  0.49888479  0.00164654  0.06882663  1
  O  O275  1  0.50703931  -0.00753627  0.64833589  1
  O  O276  1  0.59962367  0.33831847  0.10490644  1
  O  O277  1  0.48219037  0.47265251  0.63956940  1
  O  O278  1  0.26876874  0.41001035  0.21609486  1
  O  O279  1  0.24652389  0.40819421  0.77518004  1
  O  O280  1  0.22418031  0.88415661  0.28741864  1
  O  O281  1  0.24959908  0.85292298  0.75965143  1
  O  O282  1  0.74050860  0.41347955  0.29245429  1
  O  O283  1  0.70200111  0.36066484  0.78526954  1
  O  O284  1  0.75981996  0.93562904  0.28059921  1
  O  O285  1  0.74072352  0.88927264  0.76472021  1
  O  O286  1  0.24988785  0.06963583  0.28452877  1
  O  O287  1  0.26145497  0.08688565  0.76947510  1
  O  O288  1  0.23288389  0.67845969  0.25589242  1
  O  O289  1  0.28016365  0.65472110  0.77906392  1
  O  O290  1  0.77676674  0.09568024  0.36183551  1
  O  O291  1  0.77242979  0.08797871  0.74948832  1
  O  O292  1  0.76731099  0.60737808  0.23288360  1
  O  O293  1  0.74691833  0.74314514  0.78056716  1
  O  O294  1  0.39077328  0.17715493  0.39787410  1
  O  O295  1  0.33937495  0.14132926  0.88202768  1
  O  O296  1  0.40090121  0.63050343  0.31699929  1
  O  O297  1  0.37466774  0.61278772  0.89328437  1
  O  O298  1  0.93237573  0.26665276  0.27458032  1
  O  O299  1  0.85749856  0.12449949  0.85870249  1
  O  O300  1  0.95044017  0.53370949  0.34100013  1
  O  O301  1  0.77060274  0.68263116  0.79945708  1
  O  O302  1  0.09023921  0.27579380  0.12222861  1
  O  O303  1  0.13852966  0.41082254  0.62558242  1
  O  O304  1  0.07350710  0.89016880  0.21997214  1
  O  O305  1  0.15204531  0.83969754  0.64096757  1
  O  O306  1  0.65338271  0.32289076  0.14409436  1
  O  O307  1  0.56858763  0.38630084  0.55250693  1
  O  O308  1  0.70768647  0.87276785  0.14578193  1
  O  O309  1  0.60258556  0.88157514  0.66309809  1
  O  O310  1  0.13453100  0.28381676  0.27733177  1
  O  O311  1  0.14153541  0.20591505  0.76177803  1
  O  O312  1  0.11062578  0.78283487  0.30778733  1
  O  O313  1  0.14844189  0.74930672  0.76642932  1
  O  O314  1  0.61762253  0.23171672  0.24896897  1
  O  O315  1  0.56850382  0.28841512  0.70585478  1
  O  O316  1  0.64202550  0.72790280  0.22626795  1
  O  O317  1  0.60016811  0.86622469  0.82048457  1
  O  O318  1  0.33930742  0.24388535  0.22999354  1
  O  O319  1  0.31071552  0.22701927  0.72440641  1
  O  O320  1  0.39459897  0.72494237  0.19943468  1
  O  O321  1  0.39712014  0.74121413  0.76228824  1
  O  O322  1  0.95968028  0.31672693  0.23406970  1
  O  O323  1  0.84713917  0.26534910  0.73174903  1
  O  O324  1  0.85954850  0.79666223  0.24483456  1
  O  O325  1  0.91038670  0.77162489  0.75957530  1
  O  O326  1  0.36284649  0.52194374  0.47246558  1
  O  O327  1  0.42456810  0.56866759  1.03558684  1
  O  O328  1  0.41121670  0.98774192  0.53090656  1
  O  O329  1  0.36941322  0.99841897  0.97679812  1
  O  O330  1  1.00537091  0.45922733  0.48960867  1
  O  O331  1  0.93471100  0.52040473  1.02782914  1
  O  O332  1  0.84146210  0.98118525  0.53559835  1
  O  O333  1  0.88517270  1.04976174  1.02720533  1
  O  O334  1  0.08091668  0.02205171  -0.00471104  1
  O  O335  1  0.13658407  -0.03468562  0.55673097  1
  O  O336  1  0.09521301  0.54637963  -0.00679957  1
  O  O337  1  0.15796090  0.53780741  0.52887678  1
  O  O338  1  0.64122116  -0.01681004  0.01580153  1
  O  O339  1  0.62389029  0.01431318  0.56694437  1
  O  O340  1  0.64034527  0.46829318  0.02147616  1
  O  O341  1  0.62204122  0.49088051  0.41595590  1
  O  O342  1  0.34525911  0.31752467  0.10284015  1
  O  O343  1  0.34301487  0.35835819  0.65854337  1
  O  O344  1  0.41726392  0.85522256  0.13816406  1
  O  O345  1  0.39977320  0.86225179  0.66694648  1
  O  O346  1  0.86373682  0.37848779  0.05650866  1
  O  O347  1  0.83158635  0.46873443  0.54626833  1
  O  O348  1  0.84769367  0.93899638  0.15175858  1
  O  O349  1  0.91107122  0.84916083  0.60605148  1
  O  O350  1  0.17061407  0.18501628  0.38588106  1
  O  O351  1  0.11744987  0.10752205  0.85102982  1
  O  O352  1  0.12887843  0.65895957  0.40928492  1
  O  O353  1  0.13529228  0.64791389  0.88769845  1
  O  O354  1  0.48285910  0.09675111  0.26483593  1
  O  O355  1  0.65293167  0.14006628  0.82111914  1
  O  O356  1  0.62706266  0.61827075  0.34211046  1
  O  O357  1  0.61005943  0.70597100  0.85302338  1
