# generated using pymatgen
data_V51Zn51O256
_symmetry_space_group_name_H-M   'P 1'
_cell_length_a   17.46310834
_cell_length_b   17.74488724
_cell_length_c   17.50926182
_cell_angle_alpha   90.22118630
_cell_angle_beta   90.96426425
_cell_angle_gamma   88.74664669
_symmetry_Int_Tables_number   1
_chemical_formula_structural   V51Zn51O256
_chemical_formula_sum   'V51 Zn51 O256'
_cell_volume   5423.68619513
_cell_formula_units_Z   1
loop_
 _symmetry_equiv_pos_site_id
 _symmetry_equiv_pos_as_xyz
  1  'x, y, z'
loop_
 _atom_site_type_symbol
 _atom_site_label
 _atom_site_symmetry_multiplicity
 _atom_site_fract_x
 _atom_site_fract_y
 _atom_site_fract_z
 _atom_site_occupancy
  V  V0  1  0.03294410  0.86049594  0.41515585  1
  V  V1  1  0.50270741  -0.00768065  0.01222474  1
  V  V2  1  0.14631596  0.09398481  0.02155289  1
  V  V3  1  0.36287248  0.86416729  0.54130078  1
  V  V4  1  0.88080553  0.11847876  0.30713629  1
  V  V5  1  0.49397989  0.45209499  0.04013325  1
  V  V6  1  0.46700571  0.48483548  0.41975290  1
  V  V7  1  0.66481948  0.50361709  0.09189604  1
  V  V8  1  0.28505806  0.40213091  0.45952195  1
  V  V9  1  0.34528546  0.35980736  0.01672949  1
  V  V10  1  0.50069162  0.66097414  0.09410001  1
  V  V11  1  0.87209853  0.33387759  0.50547723  1
  V  V12  1  0.24081728  0.58251889  0.89562967  1
  V  V13  1  0.68579850  0.84501069  0.78577650  1
  V  V14  1  0.83014779  0.23079661  0.61684854  1
  V  V15  1  0.36266823  0.15071549  0.77864845  1
  V  V16  1  0.68114275  0.29338703  0.35791130  1
  V  V17  1  0.07830213  0.51237263  0.11119297  1
  V  V18  1  0.62258807  0.26584163  0.91070977  1
  V  V19  1  0.14172449  0.08677663  0.51743049  1
  V  V20  1  0.26709085  0.70839183  0.52241956  1
  V  V21  1  0.53329403  0.10910799  0.14000008  1
  V  V22  1  0.58106301  0.03591579  0.63550191  1
  V  V23  1  0.04590542  0.13286102  0.64174687  1
  V  V24  1  0.26415035  0.11013820  0.90116056  1
  V  V25  1  0.82544869  0.13674646  0.74887105  1
  V  V26  1  -0.02502653  0.68212219  0.13517711  1
  V  V27  1  0.47055338  0.91160384  0.37532832  1
  V  V28  1  0.05864688  0.39294603  0.24280790  1
  V  V29  1  0.82694025  0.79432994  0.11175158  1
  V  V30  1  0.77674687  0.34478702  0.15418065  1
  V  V31  1  0.14149525  0.36899424  0.71030273  1
  V  V32  1  0.48087756  0.35310243  0.87986834  1
  V  V33  1  0.14198795  0.90201623  0.23697794  1
  V  V34  1  0.72145855  0.48976331  0.72358809  1
  V  V35  1  0.14557700  0.73947760  0.88370940  1
  V  V36  1  0.12930098  0.26052642  0.90951108  1
  V  V37  1  0.82980941  0.93050779  0.00967982  1
  V  V38  1  0.91492188  0.24328043  0.08229717  1
  V  V39  1  0.32658579  0.24495359  0.14292202  1
  V  V40  1  0.26429505  0.07695983  0.40487978  1
  V  V41  1  0.53059199  0.25137301  0.25698568  1
  V  V42  1  0.90168412  -0.02754337  0.41393562  1
  V  V43  1  0.39618765  0.71192685  0.64514178  1
  V  V44  1  0.46832887  0.75425529  0.25160740  1
  V  V45  1  0.07394146  0.49759625  0.60086517  1
  V  V46  1  0.00278352  0.38510173  0.85917432  1
  V  V47  1  0.26687633  0.48751283  0.73611030  1
  V  V48  1  0.12593174  0.69528484  0.37601985  1
  V  V49  1  0.73124121  0.14315521  0.88531468  1
  V  V50  1  0.65742510  0.69339812  0.52043363  1
  Zn  Zn51  1  0.36959166  0.56965708  0.99875205  1
  Zn  Zn52  1  0.22455619  0.17868425  0.69214445  1
  Zn  Zn53  1  0.31914196  0.05654185  0.59513798  1
  Zn  Zn54  1  0.16381089  0.43139915  0.95692026  1
  Zn  Zn55  1  0.74362449  0.68258609  0.70487754  1
  Zn  Zn56  1  0.79876043  0.31350484  0.80943130  1
  Zn  Zn57  1  1.03371079  0.58241996  0.27717387  1
  Zn  Zn58  1  0.43903830  0.19607645  0.97362033  1
  Zn  Zn59  1  0.85951976  0.85727436  0.30301664  1
  Zn  Zn60  1  0.30204167  0.32011439  0.82668254  1
  Zn  Zn61  1  0.32117967  0.67227646  0.81011516  1
  Zn  Zn62  1  0.48037217  0.96181841  0.21161082  1
  Zn  Zn63  1  0.80737835  0.96986480  0.82408613  1
  Zn  Zn64  1  0.07248097  0.11628937  0.83280005  1
  Zn  Zn65  1  0.05168013  0.53472733  0.76237752  1
  Zn  Zn66  1  0.84543398  0.11450224  0.03305343  1
  Zn  Zn67  1  0.11812344  0.23598867  0.14934924  1
  Zn  Zn68  1  0.13558942  0.79008897  0.08916636  1
  Zn  Zn69  1  0.03986522  0.35165077  0.04496864  1
  Zn  Zn70  1  0.94664505  1.02001986  0.69218652  1
  Zn  Zn71  1  0.44000926  0.10690624  0.32395606  1
  Zn  Zn72  1  0.11126620  0.49748403  0.41603842  1
  Zn  Zn73  1  0.42187357  0.40030263  0.19306044  1
  Zn  Zn74  1  0.55030547  0.08289825  0.83639675  1
  Zn  Zn75  1  0.17363993  0.64403594  0.69146765  1
  Zn  Zn76  1  0.23119877  0.31350040  0.28071304  1
  Zn  Zn77  1  0.39205715  0.30720843  0.34268461  1
  Zn  Zn78  1  0.70675696  0.17047138  0.21817685  1
  Zn  Zn79  1  0.45087481  0.68229600  0.44938189  1
  Zn  Zn80  1  0.93005258  0.23093216  0.88296348  1
  Zn  Zn81  1  0.09304017  0.00713864  0.35431938  1
  Zn  Zn82  1  0.66358200  0.18454092  0.66684264  1
  Zn  Zn83  1  0.21971192  0.62981791  0.09334706  1
  Zn  Zn84  1  0.94074685  0.13103686  0.50062846  1
  Zn  Zn85  1  0.43501437  0.52764138  0.83544838  1
  Zn  Zn86  1  0.25658383  0.76119227  0.22980628  1
  Zn  Zn87  1  0.50830930  0.82177032  0.08535549  1
  Zn  Zn88  1  0.59824273  0.47883611  0.89298442  1
  Zn  Zn89  1  0.97172405  0.85440345  0.17178418  1
  Zn  Zn90  1  0.64585274  0.73618053  0.16246703  1
  Zn  Zn91  1  -0.04404905  0.30848553  0.70733646  1
  Zn  Zn92  1  0.66403572  0.96676844  0.93273669  1
  Zn  Zn93  1  0.88100526  0.31573128  0.31647423  1
  Zn  Zn94  1  0.56675521  0.36374252  0.42781054  1
  Zn  Zn95  1  0.33936705  0.07266689  0.06771738  1
  Zn  Zn96  1  0.23658695  0.87570689  0.39751537  1
  Zn  Zn97  1  0.51850199  0.83310409  0.66701498  1
  Zn  Zn98  1  0.55810811  0.83727582  0.50420890  1
  Zn  Zn99  1  0.35642307  0.54507915  0.55191709  1
  Zn  Zn100  1  0.87973538  0.54536191  0.64850018  1
  Zn  Zn101  1  0.53132023  0.54044468  0.23167176  1
  O  O102  1  0.11666723  0.13513176  0.10500201  1
  O  O103  1  0.15049005  0.12575868  0.62563912  1
  O  O104  1  0.01591635  0.60109359  0.09190239  1
  O  O105  1  0.13421625  0.57078338  0.61017731  1
  O  O106  1  0.62902583  0.11437880  0.15736380  1
  O  O107  1  0.55985581  0.13710062  0.66029460  1
  O  O108  1  0.59325051  0.68529709  0.07608662  1
  O  O109  1  0.66862315  0.70111033  0.62413121  1
  O  O110  1  0.36062139  0.44505883  0.28100029  1
  O  O111  1  0.37717591  0.34453552  0.91236877  1
  O  O112  1  0.40599308  0.87128795  0.43670182  1
  O  O113  1  0.42945946  0.87449978  0.85791024  1
  O  O114  1  0.92001661  0.33754278  0.42104905  1
  O  O115  1  0.91745886  0.32984143  0.82093586  1
  O  O116  1  0.92847345  0.86285729  0.39373054  1
  O  O117  1  0.84848353  0.92040935  0.91344912  1
  O  O118  1  0.27707027  -0.01566926  0.39235720  1
  O  O119  1  0.27808703  0.01977947  0.89181486  1
  O  O120  1  0.28506295  0.46438053  0.27117890  1
  O  O121  1  0.22092337  0.49065573  0.88542175  1
  O  O122  1  0.84114988  -0.03428730  0.33305821  1
  O  O123  1  0.72878909  0.04387539  0.87053372  1
  O  O124  1  0.76369859  0.50789289  0.39675631  1
  O  O125  1  0.68780702  0.48797654  0.81924981  1
  O  O126  1  0.16262254  0.55015022  0.13927780  1
  O  O127  1  0.28423945  0.49937536  0.64351858  1
  O  O128  1  0.31050199  0.97854151  0.14004180  1
  O  O129  1  0.15532455  0.87776695  0.65095693  1
  O  O130  1  0.72798704  0.56061855  0.05927557  1
  O  O131  1  0.76742025  0.50338870  0.62990534  1
  O  O132  1  0.66913289  0.90674800  0.31619685  1
  O  O133  1  0.67288433  1.07491875  0.61239518  1
  O  O134  1  -0.02643807  0.35520477  0.25593970  1
  O  O135  1  0.04645875  0.36012890  0.75129757  1
  O  O136  1  0.04614336  0.87678554  0.24906203  1
  O  O137  1  0.12322352  0.92977588  0.79796131  1
  O  O138  1  0.50567443  0.34316672  0.24571856  1
  O  O139  1  0.47100711  0.36047490  0.78820889  1
  O  O140  1  0.46661674  0.87447279  0.27749950  1
  O  O141  1  0.60261916  0.84915830  0.72846942  1
  O  O142  1  0.48180492  0.07241483  0.22417894  1
  O  O143  1  0.45121316  0.10702856  0.79165811  1
  O  O144  1  0.49121882  0.65410901  0.19926248  1
  O  O145  1  0.53948331  0.55011648  0.83126524  1
  O  O146  1  0.97998462  0.07202773  0.26541812  1
  O  O147  1  1.04308935  0.08392845  0.73410867  1
  O  O148  1  0.97833584  0.66543104  0.23093629  1
  O  O149  1  1.07192148  0.63547686  0.73449986  1
  O  O150  1  0.36270086  0.25533246  0.03240503  1
  O  O151  1  0.28839046  0.33456249  0.37900222  1
  O  O152  1  0.40609841  0.83109785  -0.09400522  1
  O  O153  1  0.37719185  0.72702104  0.52630851  1
  O  O154  1  0.91341034  0.20835301  -0.01130057  1
  O  O155  1  0.87128656  0.22048396  0.52095333  1
  O  O156  1  0.80252959  0.81518138  0.01873794  1
  O  O157  1  0.84755984  0.81121697  0.63982244  1
  O  O158  1  0.37288457  0.27878437  0.61041990  1
  O  O159  1  0.11951221  0.27110511  1.00522908  1
  O  O160  1  0.17828213  0.71677137  0.45858181  1
  O  O161  1  0.14297819  0.75944270  0.98166400  1
  O  O162  1  0.63450466  0.27800478  0.44398322  1
  O  O163  1  0.64320762  0.26712276  1.00061103  1
  O  O164  1  0.66165148  0.79805247  0.53151752  1
  O  O165  1  0.69216021  0.64530141  0.92153975  1
  O  O166  1  0.50873369  0.20924390  0.17024403  1
  O  O167  1  0.50329238  0.22202152  0.51210170  1
  O  O168  1  0.44341030  0.73527275  0.06478361  1
  O  O169  1  0.49131327  0.73032081  0.65502205  1
  O  O170  1  1.00780916  0.26408331  0.11247598  1
  O  O171  1  1.00918019  0.21850431  0.66117661  1
  O  O172  1  1.02815673  0.76291356  0.11593165  1
  O  O173  1  0.99045907  0.69382345  0.55104773  1
  O  O174  1  0.08784468  0.26298523  0.40170300  1
  O  O175  1  0.04253904  0.22410638  0.86019331  1
  O  O176  1  0.05214587  0.76306257  0.37157217  1
  O  O177  1  0.04913834  0.73412854  0.86552786  1
  O  O178  1  0.46960691  0.21565118  0.32686290  1
  O  O179  1  0.50989270  0.25363190  0.90846135  1
  O  O180  1  0.47927470  0.72771345  0.34449952  1
  O  O181  1  0.52221745  0.72224103  0.82697150  1
  O  O182  1  0.25325655  0.09589864  0.51048565  1
  O  O183  1  0.25160320  0.11463983  1.01058671  1
  O  O184  1  0.28138839  0.61777360  0.49757774  1
  O  O185  1  0.25819011  0.58924312  0.99970248  1
  O  O186  1  0.70249731  0.03264115  0.41972273  1
  O  O187  1  0.75232231  0.14809539  0.97946125  1
  O  O188  1  0.75447182  0.67539719  0.51215193  1
  O  O189  1  0.75639950  0.66921687  0.91134791  1
  O  O190  1  0.25152137  0.37669971  0.00278177  1
  O  O191  1  0.21468198  0.46781970  0.43762042  1
  O  O192  1  0.27457344  0.89123400  -0.00560204  1
  O  O193  1  0.27616478  0.82598532  0.49058134  1
  O  O194  1  0.79124445  0.39025786  -0.07115205  1
  O  O195  1  0.78203514  0.35312605  0.49047546  1
  O  O196  1  0.73449159  0.95701567  0.01887201  1
  O  O197  1  0.87754084  0.82571933  0.57888053  1
  O  O198  1  0.02954431  0.50095256  0.20908777  1
  O  O199  1  0.14694389  0.47550777  0.73853829  1
  O  O200  1  0.14395149  0.99762615  0.25672407  1
  O  O201  1  0.15100265  0.95092133  0.85806395  1
  O  O202  1  0.62142532  0.54354084  0.17067292  1
  O  O203  1  0.64318238  0.46146015  0.67433453  1
  O  O204  1  0.69349095  0.83923495  0.31304547  1
  O  O205  1  0.60293109  1.03122985  0.73772159  1
  O  O206  1  0.36179154  -0.06944101  0.16115238  1
  O  O207  1  0.28403760  -0.05294352  0.75045214  1
  O  O208  1  0.34350116  0.56370656  0.18946303  1
  O  O209  1  0.35547343  0.47827363  0.77959228  1
  O  O210  1  0.91753611  0.05345332  0.22400657  1
  O  O211  1  0.86637823  0.04002058  0.76038847  1
  O  O212  1  0.70450442  0.52281784  0.36098896  1
  O  O213  1  0.82455270  0.51618622  0.75105023  1
  O  O214  1  0.08899344  0.43138831  0.32794227  1
  O  O215  1  0.10765993  0.36160555  0.88398395  1
  O  O216  1  0.12585764  0.89714040  0.38899732  1
  O  O217  1  0.14906819  0.83360050  0.86511569  1
  O  O218  1  0.64960194  0.38087909  0.33484848  1
  O  O219  1  0.59575738  0.36192307  0.88225312  1
  O  O220  1  0.56048714  0.89132390  0.41404118  1
  O  O221  1  0.66170475  0.87348686  0.87604424  1
  O  O222  1  0.35764381  0.15083630  0.14138125  1
  O  O223  1  0.33039998  0.12716074  0.67572255  1
  O  O224  1  0.33957906  0.61431385  0.13943213  1
  O  O225  1  0.39224251  0.61607767  0.62987781  1
  O  O226  1  0.87483929  0.17097420  0.12908643  1
  O  O227  1  0.84065940  0.13248775  0.64380402  1
  O  O228  1  0.87995143  0.70248362  0.10068960  1
  O  O229  1  0.97375459  0.69059502  0.61841045  1
  O  O230  1  0.23140936  0.24604556  0.13098909  1
  O  O231  1  0.42208748  0.32652510  0.61191240  1
  O  O232  1  0.21396049  0.72587466  0.13429726  1
  O  O233  1  0.23684342  0.70342307  0.61502240  1
  O  O234  1  0.73322439  0.26145849  0.16463332  1
  O  O235  1  0.73340577  0.24439959  0.61059442  1
  O  O236  1  0.73752350  0.79187706  0.15245493  1
  O  O237  1  0.83535896  0.64557963  0.66753919  1
  O  O238  1  0.21565751  0.18903143  0.32900366  1
  O  O239  1  0.22211878  0.26240256  0.88054244  1
  O  O240  1  0.33530772  0.65772313  0.35152689  1
  O  O241  1  0.25089545  0.71743122  0.88816634  1
  O  O242  1  0.77673438  0.27615061  0.35165365  1
  O  O243  1  0.71977673  0.25866459  0.86257044  1
  O  O244  1  0.76205863  0.67603257  0.26143413  1
  O  O245  1  0.88648701  0.77530844  0.80425795  1
  O  O246  1  0.02761328  0.08267889  -0.01364755  1
  O  O247  1  0.05435937  0.14461376  0.52013417  1
  O  O248  1  -0.08759354  0.65296030  -0.07279971  1
  O  O249  1  -0.11113445  0.56114133  0.52768595  1
  O  O250  1  0.50188686  0.12271557  0.04373717  1
  O  O251  1  0.44455896  0.18483380  0.50772781  1
  O  O252  1  0.47210120  0.58318600  0.03783839  1
  O  O253  1  0.55215243  0.71862375  0.50596139  1
  O  O254  1  0.45850329  0.37790039  0.39542408  1
  O  O255  1  0.49709901  0.35910580  1.03562345  1
  O  O256  1  0.47945758  0.86640416  0.56909586  1
  O  O257  1  0.51415418  0.89468501  1.01071676  1
  O  O258  1  1.08499233  0.30859630  0.45409694  1
  O  O259  1  0.97838903  0.37232217  0.95399473  1
  O  O260  1  1.03590429  0.84364354  0.50630099  1
  O  O261  1  1.00865606  0.91024813  0.91136903  1
  O  O262  1  0.49298092  0.51771272  0.32937253  1
  O  O263  1  0.48236082  0.45203185  0.91819375  1
  O  O264  1  0.46337489  1.00703042  0.36753983  1
  O  O265  1  0.55916986  1.01754657  0.93040262  1
  O  O266  1  0.89102045  0.49561975  0.49394866  1
  O  O267  1  0.99760490  0.47861797  0.84022492  1
  O  O268  1  1.00758836  0.97411210  0.41421307  1
  O  O269  1  1.01063260  1.06045053  0.91785827  1
  O  O270  1  0.01463810  -0.11789470  -0.02478006  1
  O  O271  1  -0.02658952  0.07271641  0.60153924  1
  O  O272  1  -0.06435260  0.58887564  -0.05808245  1
  O  O273  1  -0.00997684  0.51626294  0.65916365  1
  O  O274  1  0.53217227  -0.00048231  0.11406210  1
  O  O275  1  0.49983597  -0.01107791  0.66586822  1
  O  O276  1  0.48929063  0.46990872  0.14160570  1
  O  O277  1  0.54975170  0.46557117  0.46991282  1
  O  O278  1  0.24354393  0.42014016  0.22737254  1
  O  O279  1  0.24483519  0.38302433  0.75260557  1
  O  O280  1  0.22506843  0.85333621  0.28360138  1
  O  O281  1  0.28032942  0.88229803  0.77328870  1
  O  O282  1  0.81645553  0.37260164  0.23726536  1
  O  O283  1  0.75596213  0.39623383  0.74253341  1
  O  O284  1  0.75981703  0.82087902  0.35151565  1
  O  O285  1  0.75501948  0.90454256  0.75309074  1
  O  O286  1  0.22900204  0.12459951  0.29702885  1
  O  O287  1  0.25504425  0.13409967  0.79704102  1
  O  O288  1  0.31527003  0.59487179  0.33099971  1
  O  O289  1  0.24545689  0.58973588  0.77453694  1
  O  O290  1  0.78544419  0.12178159  0.27908374  1
  O  O291  1  0.72754639  0.14038022  0.75251371  1
  O  O292  1  0.68746015  0.66056287  0.24316140  1
  O  O293  1  0.69280793  0.58777245  0.73232930  1
  O  O294  1  0.34841114  0.11976967  0.38563227  1
  O  O295  1  0.35838158  0.15148695  0.89753728  1
  O  O296  1  0.44029459  0.57607416  0.46304883  1
  O  O297  1  0.35348189  0.59420328  0.88709297  1
  O  O298  1  0.90040788  0.08566146  0.40614320  1
  O  O299  1  0.84083011  0.16067758  0.85129461  1
  O  O300  1  0.80131844  0.62554229  0.29582101  1
  O  O301  1  0.92322239  0.72801919  0.76867116  1
  O  O302  1  0.08000568  0.40631620  0.13164544  1
  O  O303  1  0.11765964  0.40052238  0.61647167  1
  O  O304  1  0.15601459  0.88455889  0.14134304  1
  O  O305  1  0.12345302  0.81916126  0.63510419  1
  O  O306  1  0.71315848  0.41540560  0.11601863  1
  O  O307  1  0.57126191  0.31697638  0.64693126  1
  O  O308  1  0.68434093  0.96360019  0.18328834  1
  O  O309  1  0.62660982  0.95503128  0.60224838  1
  O  O310  1  0.12662604  0.30781828  0.23798075  1
  O  O311  1  0.16955275  0.27474492  0.69995669  1
  O  O312  1  0.18403316  0.70134358  0.30057829  1
  O  O313  1  0.16465993  0.73016505  0.78040519  1
  O  O314  1  0.62908118  0.22975664  0.28540985  1
  O  O315  1  0.59730431  0.28021421  0.70321486  1
  O  O316  1  0.54575805  0.79253647  0.18627031  1
  O  O317  1  0.72427179  0.75288204  0.77968657  1
  O  O318  1  0.33640009  0.27115762  0.24324629  1
  O  O319  1  0.36820462  0.24487069  0.77121427  1
  O  O320  1  0.37363055  0.75768489  0.22997860  1
  O  O321  1  0.36802192  0.72716091  0.73962036  1
  O  O322  1  0.91379565  0.20558901  0.30187927  1
  O  O323  1  0.84547914  0.23917154  0.72915415  1
  O  O324  1  0.87993376  0.80559402  0.21202104  1
  O  O325  1  0.99360158  0.85806506  0.71995804  1
  O  O326  1  0.37151881  0.45583414  0.48459584  1
  O  O327  1  0.38431124  0.45810879  1.02334468  1
  O  O328  1  0.34185689  0.95712991  0.56154863  1
  O  O329  1  0.40641483  1.00917061  1.00500326  1
  O  O330  1  0.89806214  0.43673471  0.54649386  1
  O  O331  1  0.83036480  0.44610933  0.94437485  1
  O  O332  1  0.86165890  0.96633174  0.49761469  1
  O  O333  1  0.87692138  1.01477768  1.03019137  1
  O  O334  1  0.14955245  0.00303125  0.03185671  1
  O  O335  1  0.12358260  0.00087311  0.54093634  1
  O  O336  1  0.08942444  0.48702501  0.01485257  1
  O  O337  1  0.04840430  0.49445833  0.50691781  1
  O  O338  1  0.75245192  -0.02348091  0.19105977  1
  O  O339  1  0.53151095  0.05885163  0.55306098  1
  O  O340  1  0.59502152  0.48298670  0.01290324  1
  O  O341  1  0.62827085  0.60249604  0.53330507  1
  O  O342  1  0.35248993  0.35307866  0.12332261  1
  O  O343  1  0.26210249  0.35499395  0.53579565  1
  O  O344  1  0.29893221  0.83550251  0.02932051  1
  O  O345  1  0.35466549  0.82089465  0.62915913  1
  O  O346  1  0.85598429  0.32658707  0.08890241  1
  O  O347  1  0.88409778  0.32138509  0.61955518  1
  O  O348  1  0.88643196  0.88430355  0.09708824  1
  O  O349  1  1.00342021  0.91643660  0.68145024  1
  O  O350  1  0.15037235  0.08398187  0.41180141  1
  O  O351  1  0.15116684  0.13157598  0.91250398  1
  O  O352  1  0.08614303  0.60114615  0.37160855  1
  O  O353  1  0.14460515  0.63102439  0.89780601  1
  O  O354  1  0.63616745  0.04548956  0.39785372  1
  O  O355  1  0.62527522  0.15864747  0.87536489  1
  O  O356  1  0.65948714  0.69496307  0.42108731  1
  O  O357  1  0.55406437  0.73197344  0.88887028  1
