# generated using pymatgen
data_V51Zn51O256
_symmetry_space_group_name_H-M   'P 1'
_cell_length_a   17.60368332
_cell_length_b   17.48795595
_cell_length_c   17.68523891
_cell_angle_alpha   89.38982078
_cell_angle_beta   90.53395874
_cell_angle_gamma   89.18379065
_symmetry_Int_Tables_number   1
_chemical_formula_structural   V51Zn51O256
_chemical_formula_sum   'V51 Zn51 O256'
_cell_volume   5443.33856625
_cell_formula_units_Z   1
loop_
 _symmetry_equiv_pos_site_id
 _symmetry_equiv_pos_as_xyz
  1  'x, y, z'
loop_
 _atom_site_type_symbol
 _atom_site_label
 _atom_site_symmetry_multiplicity
 _atom_site_fract_x
 _atom_site_fract_y
 _atom_site_fract_z
 _atom_site_occupancy
  V  V0  1  0.87130656  0.55521975  0.87323643  1
  V  V1  1  0.21315529  0.60315885  0.82222532  1
  V  V2  1  0.46503492  0.72894102  0.61582748  1
  V  V3  1  0.15176988  0.54040213  0.10963477  1
  V  V4  1  0.77442743  0.17610803  0.90241155  1
  V  V5  1  0.86456757  0.40772833  -0.00912890  1
  V  V6  1  0.18602290  0.36864484  0.59011349  1
  V  V7  1  0.56695086  -0.02196538  0.74224104  1
  V  V8  1  0.10741380  0.35967716  0.17680299  1
  V  V9  1  -0.00372867  0.42369591  0.84897582  1
  V  V10  1  -0.01821287  0.66892750  0.63244304  1
  V  V11  1  0.02905665  0.73261159  0.29136410  1
  V  V12  1  0.63085876  0.16183415  0.00591929  1
  V  V13  1  0.17447132  -0.00713590  0.60451838  1
  V  V14  1  0.50888661  0.77712671  0.77953993  1
  V  V15  1  0.87589803  0.09821083  0.23241856  1
  V  V16  1  0.62032130  0.12794901  0.49263576  1
  V  V17  1  0.89528868  0.50450881  0.32735504  1
  V  V18  1  0.76913726  0.09947619  0.37333625  1
  V  V19  1  0.10141567  0.22114127  0.35366837  1
  V  V20  1  0.36501701  -0.06779727  0.38123053  1
  V  V21  1  0.23239482  0.49645551  0.25593535  1
  V  V22  1  0.51934859  0.46068747  0.49258107  1
  V  V23  1  0.43269424  0.58606895  0.72042167  1
  V  V24  1  0.82400026  0.76185292  0.69864314  1
  V  V25  1  0.78683151  0.24228338  0.47385123  1
  V  V26  1  0.11873598  0.14471492  -0.01538245  1
  V  V27  1  0.89594056  0.37428286  0.47029269  1
  V  V28  1  0.00353243  0.36326534  0.33839986  1
  V  V29  1  0.86081422  0.94530002  0.63025794  1
  V  V30  1  0.27505748  0.15436002  0.35948182  1
  V  V31  1  0.64684144  0.47229033  0.60922857  1
  V  V32  1  0.62706635  0.35118716  0.23100076  1
  V  V33  1  0.69697870  0.62996872  0.36538163  1
  V  V34  1  0.50380329  0.33644071  0.38295265  1
  V  V35  1  0.71971038  0.48711444  0.24572459  1
  V  V36  1  0.32589583  0.01316033  0.89308277  1
  V  V37  1  0.73894120  -0.01936768  0.25168404  1
  V  V38  1  0.27792748  0.34264745  0.09613739  1
  V  V39  1  0.62259952  0.33936402  0.73539669  1
  V  V40  1  0.38207804  0.60417058  0.24269391  1
  V  V41  1  0.48817091  0.23645695  0.22424136  1
  V  V42  1  0.51810531  0.47431185  -0.01235293  1
  V  V43  1  0.85365198  -0.05268418  0.92699121  1
  V  V44  1  -0.00944443  0.63734909  0.08343828  1
  V  V45  1  0.65147180  0.24363760  0.35939634  1
  V  V46  1  0.05090430  0.80482949  0.77938244  1
  V  V47  1  0.78334781  0.35817737  0.61962770  1
  V  V48  1  0.56848782  0.00946582  0.04750211  1
  V  V49  1  0.28978157  0.84474776  0.61444758  1
  V  V50  1  0.07785854  0.52499665  0.56920439  1
  Zn  Zn51  1  0.59108710  0.48300340  0.80403719  1
  Zn  Zn52  1  1.01835030  1.00248897  0.73080572  1
  Zn  Zn53  1  0.34698229  0.01581436  0.56835573  1
  Zn  Zn54  1  0.79562210  0.02964669  0.78063499  1
  Zn  Zn55  1  0.76292574  0.05175971  0.06677849  1
  Zn  Zn56  1  0.54941268  0.52970167  0.31803173  1
  Zn  Zn57  1  0.21934271  0.17150956  0.63692650  1
  Zn  Zn58  1  0.21287996  0.97806205  0.43147535  1
  Zn  Zn59  1  0.68198967  0.34274087  0.93138904  1
  Zn  Zn60  1  0.66573938  0.95851497  0.91122585  1
  Zn  Zn61  1  0.41342802  1.01156366  0.14373469  1
  Zn  Zn62  1  0.94624579  0.24583232  0.91822622  1
  Zn  Zn63  1  0.21440058  0.68921291  0.28838695  1
  Zn  Zn64  1  0.49209762  0.27127630  0.02742332  1
  Zn  Zn65  1  1.02076536  0.63727581  0.88627240  1
  Zn  Zn66  1  0.35498854  0.50058051  0.10276401  1
  Zn  Zn67  1  0.68255136  1.00332722  0.63245862  1
  Zn  Zn68  1  0.74184122  0.46270398  0.46724131  1
  Zn  Zn69  1  0.24550367  0.78669385  0.77472812  1
  Zn  Zn70  1  0.59224639  0.16599854  0.67896428  1
  Zn  Zn71  1  0.52209568  0.65832204  0.44318766  1
  Zn  Zn72  1  0.19654410  0.66568429  0.64506026  1
  Zn  Zn73  1  0.07468106  0.54035577  0.28883645  1
  Zn  Zn74  1  0.63912069  0.80303991  0.69091865  1
  Zn  Zn75  1  0.28041561  0.47599467  0.73949662  1
  Zn  Zn76  1  0.89143599  0.76094532  0.87853488  1
  Zn  Zn77  1  0.84767390  0.30827020  0.80307072  1
  Zn  Zn78  1  0.94616900  0.18891175  0.39229105  1
  Zn  Zn79  1  0.80158768  0.78805158  0.32142559  1
  Zn  Zn80  1  0.40152053  0.58350804  0.51779270  1
  Zn  Zn81  1  0.21079198  0.35005832  0.39974865  1
  Zn  Zn82  1  0.84337133  0.53882166  0.12764587  1
  Zn  Zn83  1  0.71441426  0.17047666  0.18555333  1
  Zn  Zn84  1  0.58138735  0.06995534  0.20669390  1
  Zn  Zn85  1  0.36126178  0.73368769  0.38476493  1
  Zn  Zn86  1  0.97887313  0.45839080  0.15545010  1
  Zn  Zn87  1  0.52802196  0.08182804  0.89088825  1
  Zn  Zn88  1  0.88399543  0.89463165  0.21455506  1
  Zn  Zn89  1  0.06189860  0.16071247  0.18301716  1
  Zn  Zn90  1  0.18903292  0.44042221  0.93236406  1
  Zn  Zn91  1  0.47411124  0.13180144  0.37132776  1
  Zn  Zn92  1  0.17142572  0.10021752  0.80260123  1
  Zn  Zn93  1  0.32604811  0.17216490  0.18110423  1
  Zn  Zn94  1  0.04866866  0.34440719  -0.00161997  1
  Zn  Zn95  1  0.39759730  0.92132832  0.73929641  1
  Zn  Zn96  1  0.46415350  0.42875100  0.67273701  1
  Zn  Zn97  1  0.61591375  0.30832352  0.53918858  1
  Zn  Zn98  1  0.33173843  0.16420123  1.01672137  1
  Zn  Zn99  1  0.37123331  0.70317560  0.84413724  1
  Zn  Zn100  1  0.79240632  0.34555393  0.32878768  1
  Zn  Zn101  1  0.12159163  0.73524802  0.13856266  1
  O  O102  1  0.08824906  0.12732205  0.07791044  1
  O  O103  1  0.24390423  0.06813331  0.59759948  1
  O  O104  1  0.16800028  0.63625250  0.11232780  1
  O  O105  1  0.15148176  0.58128249  0.59014182  1
  O  O106  1  0.64083329  0.12436943  0.11514346  1
  O  O107  1  0.59963279  0.18951490  0.57046325  1
  O  O108  1  0.56091948  0.68693856  0.10378683  1
  O  O109  1  0.64923068  0.56450751  0.60260586  1
  O  O110  1  0.41313389  0.32605833  0.37580438  1
  O  O111  1  0.34209955  0.38360375  0.79901018  1
  O  O112  1  0.39618136  0.83802602  0.38283105  1
  O  O113  1  0.35058002  0.91580338  0.89676106  1
  O  O114  1  0.90126455  0.36689937  0.33557857  1
  O  O115  1  0.88533692  0.43696169  0.89355960  1
  O  O116  1  0.94063748  0.85971597  0.43476035  1
  O  O117  1  0.88225626  0.85347810  0.93629453  1
  O  O118  1  0.27060207  -0.06966773  0.35460362  1
  O  O119  1  0.22995264  0.01418057  0.85774924  1
  O  O120  1  0.23116996  0.42254240  0.31803764  1
  O  O121  1  0.23924359  0.51114497  0.85856010  1
  O  O122  1  0.77187244  0.00496418  0.38003896  1
  O  O123  1  0.77081485  -0.04292211  0.86978156  1
  O  O124  1  0.78986124  0.47120706  0.32041856  1
  O  O125  1  0.77558374  0.54280472  0.92517824  1
  O  O126  1  0.24836845  0.50985106  0.14783259  1
  O  O127  1  0.25004274  0.54246185  0.44101258  1
  O  O128  1  0.19579143  0.98519751  0.15541855  1
  O  O129  1  0.35546062  0.92467464  0.63471858  1
  O  O130  1  0.74426115  0.50524363  0.15487530  1
  O  O131  1  0.75766964  0.45246233  0.59006150  1
  O  O132  1  0.74703672  0.98246684  0.15691539  1
  O  O133  1  0.61545696  1.06146907  0.70413064  1
  O  O134  1  0.02188305  0.38284618  0.23298952  1
  O  O135  1  0.02540782  0.43341514  0.76298143  1
  O  O136  1  -0.04413850  0.81759798  0.25744105  1
  O  O137  1  0.01262880  0.89265509  0.77161580  1
  O  O138  1  0.52446170  0.32928089  0.26383700  1
  O  O139  1  0.52593748  0.34993842  0.72215152  1
  O  O140  1  0.48998955  0.79134888  0.21701267  1
  O  O141  1  0.49989036  0.87886885  0.78040707  1
  O  O142  1  0.51338674  0.13977004  0.25991168  1
  O  O143  1  0.49050351  0.16700328  0.80943260  1
  O  O144  1  0.47406087  0.59438699  0.27223328  1
  O  O145  1  0.51938258  0.54593014  0.74136172  1
  O  O146  1  0.96547558  0.11983121  0.20751499  1
  O  O147  1  1.06253742  0.24342726  0.74639635  1
  O  O148  1  1.02325964  0.63544427  0.28374707  1
  O  O149  1  1.07736800  0.68781682  0.68052388  1
  O  O150  1  0.40906079  0.22832089  -0.02117811  1
  O  O151  1  0.45467991  0.11995484  0.62017347  1
  O  O152  1  0.36047897  0.68388233  -0.01102486  1
  O  O153  1  0.51679947  0.71624839  0.53458680  1
  O  O154  1  0.91582584  0.17933068  0.06717371  1
  O  O155  1  0.88789567  0.25748097  0.45761699  1
  O  O156  1  0.72183981  0.69142498  0.12844803  1
  O  O157  1  0.84479714  0.94771482  0.53916991  1
  O  O158  1  0.05872280  0.17702153  0.42752482  1
  O  O159  1  0.10818947  0.24766299  1.00309651  1
  O  O160  1  0.20465906  0.70962491  0.45783671  1
  O  O161  1  0.12662322  0.80215166  1.04640535  1
  O  O162  1  0.67383904  0.23942126  0.46843166  1
  O  O163  1  0.61027851  0.25907769  1.00297250  1
  O  O164  1  0.61095278  0.83991887  0.35383285  1
  O  O165  1  0.62576213  0.82998854  1.09728469  1
  O  O166  1  0.50460380  0.23781094  0.13069711  1
  O  O167  1  0.47311402  0.18463827  0.65240634  1
  O  O168  1  0.37299208  0.85104316  0.12996488  1
  O  O169  1  0.53062082  0.79240269  0.66069129  1
  O  O170  1  0.95271576  0.22775942  0.10143939  1
  O  O171  1  0.92027446  0.20974892  0.69199262  1
  O  O172  1  1.01203960  0.71705934  0.13679935  1
  O  O173  1  1.03935685  0.76337521  0.67950588  1
  O  O174  1  -0.00009039  0.25793608  0.31962724  1
  O  O175  1  -0.04686700  0.32279049  0.83711395  1
  O  O176  1  0.05076633  0.75137987  0.37831855  1
  O  O177  1  -0.00013797  0.74571277  0.84176959  1
  O  O178  1  0.54722265  0.23146523  0.37624182  1
  O  O179  1  0.43590408  0.21358086  0.81246367  1
  O  O180  1  0.60966867  0.84703228  0.50395873  1
  O  O181  1  0.46580914  0.74716489  0.86282927  1
  O  O182  1  0.22884407  0.08432411  0.40716796  1
  O  O183  1  0.21376899  0.13981303  1.01865852  1
  O  O184  1  0.24871118  0.69293534  0.51313078  1
  O  O185  1  0.30544552  0.64691915  1.01099539  1
  O  O186  1  0.79608012  0.14061976  0.46757469  1
  O  O187  1  0.73835826  0.15293070  0.99948313  1
  O  O188  1  0.72696584  0.56804103  0.43396598  1
  O  O189  1  0.71716900  0.71293689  1.06213055  1
  O  O190  1  0.24325656  0.37686017  0.01165868  1
  O  O191  1  0.22344613  0.38481832  0.50170129  1
  O  O192  1  0.19514438  0.81297601  0.01342215  1
  O  O193  1  0.26527828  0.85023388  0.52597035  1
  O  O194  1  0.77475672  0.37377225  -0.00985113  1
  O  O195  1  0.78556886  0.35527900  0.44696088  1
  O  O196  1  0.64953311  0.83050928  0.16269390  1
  O  O197  1  0.97973741  0.90972053  0.40676269  1
  O  O198  1  0.13046938  0.47931831  0.20853983  1
  O  O199  1  0.27706183  0.54898558  0.50518692  1
  O  O200  1  0.05534845  0.97540554  0.26888809  1
  O  O201  1  0.23168469  1.15699053  0.74241267  1
  O  O202  1  0.61879961  0.46431486  0.25430160  1
  O  O203  1  0.64775579  0.45198191  0.71085647  1
  O  O204  1  0.64338489  0.98722421  0.26366016  1
  O  O205  1  0.58297668  0.99608694  0.84211698  1
  O  O206  1  0.40362403  -0.01938221  0.28720650  1
  O  O207  1  0.34118816  0.01157143  0.79004973  1
  O  O208  1  0.33193380  0.52116022  0.27123635  1
  O  O209  1  0.38247697  0.49608873  0.69504866  1
  O  O210  1  0.87624092  0.00018480  0.23834852  1
  O  O211  1  0.91087474  0.01780540  0.80204097  1
  O  O212  1  0.90222924  0.50681403  0.22588228  1
  O  O213  1  0.83749775  0.55199472  0.78747066  1
  O  O214  1  0.10560812  0.33429788  0.35370811  1
  O  O215  1  0.07858293  0.40381681  0.90943554  1
  O  O216  1  0.09684649  0.92232808  0.29085079  1
  O  O217  1  0.07693027  1.05843675  0.80147864  1
  O  O218  1  0.64032739  0.34051851  0.35941974  1
  O  O219  1  0.64164920  0.37352474  0.82965916  1
  O  O220  1  0.55833191  0.88663327  0.34912745  1
  O  O221  1  0.60094937  0.81303516  0.94619699  1
  O  O222  1  0.35899702  0.09782396  0.10668065  1
  O  O223  1  0.39004936  0.12250990  0.57917014  1
  O  O224  1  0.38282810  0.59758033  0.14599699  1
  O  O225  1  0.42257450  0.62413028  0.61707155  1
  O  O226  1  0.81776627  0.13082985  0.15323164  1
  O  O227  1  0.95655121  0.15212184  0.66775423  1
  O  O228  1  0.89372036  0.62438639  0.08746994  1
  O  O229  1  0.89073281  0.68491825  0.67577455  1
  O  O230  1  0.29617229  0.24332703  0.09409458  1
  O  O231  1  0.18224888  0.27079474  0.60636977  1
  O  O232  1  0.25448259  0.80750620  0.05581714  1
  O  O233  1  0.24461570  0.76070055  0.66378114  1
  O  O234  1  0.79111272  0.28510569  0.12379594  1
  O  O235  1  0.78343825  0.26197105  0.57149315  1
  O  O236  1  0.49618330  0.70730087  0.08619520  1
  O  O237  1  0.73373447  0.75725307  0.66230741  1
  O  O238  1  0.20972396  0.23836896  0.37682072  1
  O  O239  1  0.30433318  0.33685392  0.84437810  1
  O  O240  1  0.24450045  0.73377747  0.39050936  1
  O  O241  1  0.26221445  0.69011896  0.84492266  1
  O  O242  1  0.76061579  0.23777849  0.35836367  1
  O  O243  1  0.76216212  0.27243013  0.87232481  1
  O  O244  1  0.73964878  0.71912589  0.36985974  1
  O  O245  1  0.60114468  0.74298678  0.96288364  1
  O  O246  1  0.02814690  0.17094239  -0.05804606  1
  O  O247  1  -0.05666669  0.07659602  0.49719498  1
  O  O248  1  0.02304581  0.65249388  -0.00530192  1
  O  O249  1  -0.01949891  0.70189053  0.54722633  1
  O  O250  1  0.53575103  0.09997238  0.00778307  1
  O  O251  1  0.53436882  0.09842812  0.46134994  1
  O  O252  1  0.53423328  0.56901774  -0.03941423  1
  O  O253  1  0.54695314  0.55194702  0.48121178  1
  O  O254  1  0.52087702  0.33956586  0.48398074  1
  O  O255  1  0.48418526  0.37811530  1.00228549  1
  O  O256  1  0.55501616  0.89116410  0.50549610  1
  O  O257  1  0.52699491  0.94449120  0.99676163  1
  O  O258  1  0.99386143  0.36373581  0.44702518  1
  O  O259  1  0.93550230  0.33013435  0.99281677  1
  O  O260  1  0.94457492  0.98824527  0.65108937  1
  O  O261  1  0.86552878  0.78775609  1.08343052  1
  O  O262  1  0.51841372  0.44261755  0.38213080  1
  O  O263  1  0.51361185  0.46264876  0.88389350  1
  O  O264  1  0.44896830  1.00181214  0.34777714  1
  O  O265  1  0.42267459  1.03943869  0.90211786  1
  O  O266  1  1.00046611  0.47530934  0.34133771  1
  O  O267  1  0.97828052  0.53041485  0.86869151  1
  O  O268  1  0.99971712  1.03562270  0.50479244  1
  O  O269  1  0.92655746  1.00384785  0.87750233  1
  O  O270  1  -0.02548084  -0.06681168  0.12575230  1
  O  O271  1  0.09978085  0.02773616  0.65280356  1
  O  O272  1  0.03919256  0.55062088  0.12043259  1
  O  O273  1  0.00108568  0.56759786  0.62356383  1
  O  O274  1  0.52396110  0.00032561  0.13991747  1
  O  O275  1  0.47889413  0.00235217  0.71048933  1
  O  O276  1  0.55158393  0.49437937  0.07607584  1
  O  O277  1  0.54094663  0.44879727  0.59837340  1
  O  O278  1  0.21113141  0.35645349  0.17156695  1
  O  O279  1  0.23736392  0.41023585  0.66002887  1
  O  O280  1  0.15048551  0.93945489  0.12821499  1
  O  O281  1  0.34314844  0.83036053  0.77733529  1
  O  O282  1  0.72935395  0.37465413  0.23967861  1
  O  O283  1  0.80987055  0.35632586  0.71093655  1
  O  O284  1  0.78332462  0.88383418  0.27337044  1
  O  O285  1  0.67078807  0.84365984  0.93541801  1
  O  O286  1  0.27127446  0.13365840  0.26506914  1
  O  O287  1  0.23051707  0.34702586  0.84817585  1
  O  O288  1  0.18823845  0.57707695  0.29883106  1
  O  O289  1  0.22714377  0.58704916  0.72513171  1
  O  O290  1  0.75074497  0.09065680  0.26736842  1
  O  O291  1  0.75385854  0.11562266  0.83039202  1
  O  O292  1  0.71026667  0.58858282  0.27569201  1
  O  O293  1  0.69363636  0.61883152  0.79866455  1
  O  O294  1  0.36852908  0.15950646  0.38818043  1
  O  O295  1  0.32108967  0.11714342  0.91102840  1
  O  O296  1  0.41289037  0.64755876  0.42971932  1
  O  O297  1  0.38294166  0.59874699  0.80284375  1
  O  O298  1  0.87187642  0.12792692  0.33441325  1
  O  O299  1  0.87001493  0.16829140  0.91494722  1
  O  O300  1  0.88373748  0.59279031  0.35084469  1
  O  O301  1  0.89128776  0.65085461  0.89614563  1
  O  O302  1  0.07109248  0.39436220  0.09156441  1
  O  O303  1  0.09575007  0.42714474  0.58991676  1
  O  O304  1  -0.00229709  0.89263989  0.07312924  1
  O  O305  1  0.21136801  0.91104604  0.65308464  1
  O  O306  1  0.61798483  0.35080888  0.14044154  1
  O  O307  1  0.67478087  0.33825205  0.63379943  1
  O  O308  1  0.42616575  0.85444815  0.08176267  1
  O  O309  1  0.62842059  0.91581922  0.68780178  1
  O  O310  1  0.09494607  0.26459668  0.17323177  1
  O  O311  1  0.11571771  0.28416630  0.76420473  1
  O  O312  1  0.12775140  0.74803152  0.24716176  1
  O  O313  1  0.14423390  0.81131501  0.80202825  1
  O  O314  1  0.65276147  0.24109851  0.25135651  1
  O  O315  1  0.63333652  0.24197986  0.74317211  1
  O  O316  1  0.53981140  0.75033521  0.24546610  1
  O  O317  1  0.60358517  0.76142250  0.79286014  1
  O  O318  1  0.39399691  0.24290956  0.23424772  1
  O  O319  1  0.35136249  0.27159640  0.67505107  1
  O  O320  1  0.33031360  0.68653291  0.27577673  1
  O  O321  1  0.45900286  0.69685615  0.72354349  1
  O  O322  1  0.84453382  0.31163964  0.15994255  1
  O  O323  1  0.87475135  0.19838191  0.75306122  1
  O  O324  1  0.91106774  0.75791499  0.29483149  1
  O  O325  1  0.81907126  0.77118757  0.79314208  1
  O  O326  1  0.42357199  0.47298791  0.50947257  1
  O  O327  1  0.42063628  0.49554194  1.00521498  1
  O  O328  1  0.36024226  0.97405408  0.46956194  1
  O  O329  1  0.29807701  0.99348565  0.98547866  1
  O  O330  1  0.87728311  0.46845058  0.44223405  1
  O  O331  1  0.82246717  0.52555133  0.98508998  1
  O  O332  1  0.78383337  0.99725896  0.67755841  1
  O  O333  1  0.84073477  0.99047598  1.01174479  1
  O  O334  1  0.09994086  0.05050336  -0.03379326  1
  O  O335  1  0.14786595  -0.03194829  0.51307616  1
  O  O336  1  0.15981843  0.51376340  0.01938882  1
  O  O337  1  0.09629175  0.52162130  0.46101695  1
  O  O338  1  0.66559902  0.00254173  0.01597739  1
  O  O339  1  0.66113108  0.04973969  0.53585502  1
  O  O340  1  0.61039427  0.42941943  -0.02590699  1
  O  O341  1  0.64030341  0.42899621  0.50734828  1
  O  O342  1  0.35883411  0.39148432  0.11850613  1
  O  O343  1  0.37531466  0.32044500  0.63108836  1
  O  O344  1  0.35292602  0.91665993  0.16584106  1
  O  O345  1  0.38390648  0.78152257  0.59914455  1
  O  O346  1  0.89707030  0.44923502  0.07751716  1
  O  O347  1  0.87989214  0.37112857  0.56800477  1
  O  O348  1  0.82982705  0.83508766  0.12235423  1
  O  O349  1  0.86637122  0.84502910  0.66288230  1
  O  O350  1  0.11018451  0.15574993  0.28342289  1
  O  O351  1  0.16442523  0.16263710  0.89534444  1
  O  O352  1  0.02793510  0.55427418  0.47723747  1
  O  O353  1  0.12069565  0.62084945  0.83999535  1
  O  O354  1  0.66690891  0.12499038  0.38907081  1
  O  O355  1  0.62306134  0.14381558  0.91019261  1
  O  O356  1  0.59634265  0.63499908  0.36523085  1
  O  O357  1  0.65914415  0.57604582  0.84256356  1
