# generated using pymatgen
data_V51Zn51O256
_symmetry_space_group_name_H-M   'P 1'
_cell_length_a   17.35469044
_cell_length_b   17.34157202
_cell_length_c   17.31520227
_cell_angle_alpha   88.94079619
_cell_angle_beta   89.44029210
_cell_angle_gamma   91.00235502
_symmetry_Int_Tables_number   1
_chemical_formula_structural   V51Zn51O256
_chemical_formula_sum   'V51 Zn51 O256'
_cell_volume   5209.18877005
_cell_formula_units_Z   1
loop_
 _symmetry_equiv_pos_site_id
 _symmetry_equiv_pos_as_xyz
  1  'x, y, z'
loop_
 _atom_site_type_symbol
 _atom_site_label
 _atom_site_symmetry_multiplicity
 _atom_site_fract_x
 _atom_site_fract_y
 _atom_site_fract_z
 _atom_site_occupancy
  V  V0  1  0.74209092  -0.00630841  0.79266309  1
  V  V1  1  0.25755081  0.35119916  0.12858117  1
  V  V2  1  0.39932155  0.04907123  0.92272715  1
  V  V3  1  0.02001600  0.12714924  0.64983595  1
  V  V4  1  0.51076283  0.62785374  0.09714349  1
  V  V5  1  0.36835088  0.39326879  -0.00294324  1
  V  V6  1  -0.02412447  0.49861616  0.49155711  1
  V  V7  1  0.14877398  0.28592889  0.88365810  1
  V  V8  1  0.85717609  0.61734074  0.23321405  1
  V  V9  1  0.85731600  0.11205659  0.30608358  1
  V  V10  1  0.28100636  0.11204815  0.38151893  1
  V  V11  1  0.19322668  0.50570304  0.25750164  1
  V  V12  1  0.23865615  0.84608584  0.59352071  1
  V  V13  1  0.74410839  0.47287163  0.23451707  1
  V  V14  1  0.40165023  0.60121735  0.28716282  1
  V  V15  1  0.13971516  0.61174197  0.48107110  1
  V  V16  1  -0.06253180  0.66116380  0.57878526  1
  V  V17  1  0.26091163  0.24121679  0.50452884  1
  V  V18  1  -0.00264352  0.34052505  0.40254706  1
  V  V19  1  0.75910157  0.87917153  0.07921716  1
  V  V20  1  0.63403832  0.24679212  0.40331652  1
  V  V21  1  -0.01153252  0.02988920  -0.02013289  1
  V  V22  1  0.13961279  0.78018030  0.37655944  1
  V  V23  1  0.50286295  0.38510403  0.36082371  1
  V  V24  1  0.38111719  0.36402114  0.52455502  1
  V  V25  1  0.75290124  -0.01869747  0.29510498  1
  V  V26  1  0.84219458  0.35157776  0.50207119  1
  V  V27  1  0.53767737  0.47726562  0.51321648  1
  V  V28  1  0.11740317  0.87129959  0.19563687  1
  V  V29  1  0.61769687  0.46753338  0.11113628  1
  V  V30  1  0.76051432  0.61932736  0.84974812  1
  V  V31  1  0.62006820  -0.04416186  0.14564035  1
  V  V32  1  0.55594645  0.61084244  0.61071909  1
  V  V33  1  0.63929474  0.38314816  0.76015770  1
  V  V34  1  0.16630391  0.14775394  -0.00692791  1
  V  V35  1  -0.01484157  0.57911655  0.14243478  1
  V  V36  1  0.48483619  0.74797900  0.73489476  1
  V  V37  1  0.11922294  0.04350937  0.12431105  1
  V  V38  1  0.10885368  0.11754676  0.48597422  1
  V  V39  1  0.14398191  0.38531873  0.71027459  1
  V  V40  1  0.63931453  0.74186378  0.36052341  1
  V  V41  1  0.75032975  0.60648094  0.36721609  1
  V  V42  1  0.47431561  0.83538398  0.40925170  1
  V  V43  1  0.08794913  0.34164357  0.24951937  1
  V  V44  1  0.28720552  0.49667264  0.73996079  1
  V  V45  1  0.89122856  0.22780595  0.15979623  1
  V  V46  1  0.36926538  0.72961525  0.10593383  1
  V  V47  1  0.25809004  0.00366032  0.24808802  1
  V  V48  1  0.86044610  0.24824284  0.64884294  1
  V  V49  1  0.26034529  0.03882433  0.74382084  1
  V  V50  1  0.01337771  0.26901282  0.75389985  1
  Zn  Zn51  1  0.57481059  0.57511210  0.79168281  1
  Zn  Zn52  1  0.88460167  0.45354818  0.65123403  1
  Zn  Zn53  1  0.30610543  0.57027399  0.07181667  1
  Zn  Zn54  1  0.77218498  0.82098274  0.88993249  1
  Zn  Zn55  1  0.79945623  0.78934694  0.27296276  1
  Zn  Zn56  1  0.52763310  0.88199785  0.60803896  1
  Zn  Zn57  1  0.57550713  0.04758984  0.29988394  1
  Zn  Zn58  1  -0.03836579  0.88183659  0.09735621  1
  Zn  Zn59  1  0.61191359  0.59973562  0.24465457  1
  Zn  Zn60  1  0.69418491  0.18944803  0.75703351  1
  Zn  Zn61  1  0.19732935  0.18460111  0.20663944  1
  Zn  Zn62  1  0.45714874  0.42694049  0.68387437  1
  Zn  Zn63  1  0.03467689  0.17311575  0.30863721  1
  Zn  Zn64  1  0.93481970  1.06244128  0.79676466  1
  Zn  Zn65  1  0.28656754  0.89981174  0.40468557  1
  Zn  Zn66  1  0.80840150  0.29968061  0.31857183  1
  Zn  Zn67  1  0.42402069  0.92434400  0.79025904  1
  Zn  Zn68  1  0.68441715  0.42716591  0.41990808  1
  Zn  Zn69  1  0.75835763  0.59088380  0.57487190  1
  Zn  Zn70  1  0.64544262  0.94816331  0.46711968  1
  Zn  Zn71  1  0.32529591  0.08008686  0.07797955  1
  Zn  Zn72  1  0.89596989  0.67939397  0.94022693  1
  Zn  Zn73  1  0.55962806  0.07118991  0.83605398  1
  Zn  Zn74  1  0.54847725  0.43317086  -0.06577454  1
  Zn  Zn75  1  0.96840063  0.19393966  0.91801485  1
  Zn  Zn76  1  0.08430259  0.28774801  0.56272952  1
  Zn  Zn77  1  0.32419238  0.78656751  0.28073856  1
  Zn  Zn78  1  0.32016793  0.33151817  0.81295982  1
  Zn  Zn79  1  0.16443266  0.67506330  0.14573433  1
  Zn  Zn80  1  0.22322014  0.00859567  0.54369894  1
  Zn  Zn81  1  0.05649155  0.82079199  0.55615648  1
  Zn  Zn82  1  0.84050027  0.05197545  0.63264377  1
  Zn  Zn83  1  0.20387755  0.98544256  0.91937301  1
  Zn  Zn84  1  0.43986837  0.18906780  0.44043023  1
  Zn  Zn85  1  0.02709746  0.52581784  0.68926210  1
  Zn  Zn86  1  0.81771169  0.05968906  0.07431419  1
  Zn  Zn87  1  0.23484382  0.46164776  0.91304010  1
  Zn  Zn88  1  0.99025557  1.00638576  0.22417398  1
  Zn  Zn89  1  0.45404730  0.24444575  0.89129148  1
  Zn  Zn90  1  0.20675198  0.67340993  0.63595490  1
  Zn  Zn91  1  0.92668586  0.18192190  0.47295909  1
  Zn  Zn92  1  0.43636625  0.44905971  0.17434873  1
  Zn  Zn93  1  0.41868081  0.77849895  0.91123030  1
  Zn  Zn94  1  0.07384262  0.27940897  0.08300421  1
  Zn  Zn95  1  0.80307275  0.54381832  0.05987975  1
  Zn  Zn96  1  0.09737976  0.08259434  0.82439047  1
  Zn  Zn97  1  0.19558876  0.20016283  0.69261588  1
  Zn  Zn98  1  0.31147168  0.79513814  0.75697178  1
  Zn  Zn99  1  0.30523064  0.52327417  0.42977871  1
  Zn  Zn100  1  0.51304378  0.62016641  0.39932583  1
  Zn  Zn101  1  0.58103617  0.77246214  0.16461808  1
  O  O102  1  0.14103039  0.14960758  0.10581465  1
  O  O103  1  0.11800574  0.12219319  0.64168480  1
  O  O104  1  0.06185700  0.63691260  0.11038811  1
  O  O105  1  0.11972239  0.65023631  0.57096151  1
  O  O106  1  0.60737924  0.05309878  0.08693462  1
  O  O107  1  0.60362611  0.15672481  0.67852431  1
  O  O108  1  0.60014687  0.65919125  0.14804142  1
  O  O109  1  0.65195095  0.61010094  0.61124250  1
  O  O110  1  0.41775315  0.35947694  0.40349687  1
  O  O111  1  0.33038745  0.40257916  0.89864255  1
  O  O112  1  0.38188671  0.84176651  0.36822983  1
  O  O113  1  0.36176356  0.84139911  0.84176105  1
  O  O114  1  0.87764483  0.33687713  0.40326532  1
  O  O115  1  0.94123072  0.34884424  0.97148890  1
  O  O116  1  0.90002748  0.82804505  0.37060214  1
  O  O117  1  0.86858899  0.78232235  0.91087644  1
  O  O118  1  0.25855323  0.00152698  0.36212469  1
  O  O119  1  0.31305000  -0.00084705  0.92323712  1
  O  O120  1  0.23413735  0.50733435  0.34669658  1
  O  O121  1  0.25064236  0.53413558  0.82306070  1
  O  O122  1  0.72412361  -0.02708019  0.38932674  1
  O  O123  1  0.74576056  0.02350144  0.88602896  1
  O  O124  1  0.72672323  0.50328353  0.34772933  1
  O  O125  1  0.77923784  0.52193250  0.86672390  1
  O  O126  1  0.23716874  0.47310923  0.15697162  1
  O  O127  1  0.26351046  0.51803627  0.63321513  1
  O  O128  1  0.24409284  1.03960227  0.14692643  1
  O  O129  1  0.23663374  1.02074762  0.65063427  1
  O  O130  1  0.73206386  0.48054953  0.11848889  1
  O  O131  1  0.79178271  0.50386590  0.62945233  1
  O  O132  1  0.74723616  0.97837793  0.10009900  1
  O  O133  1  0.76150083  0.98468473  0.68598203  1
  O  O134  1  -0.00553073  0.34108543  0.24078082  1
  O  O135  1  0.03717634  0.36749597  0.73348238  1
  O  O136  1  0.01101447  0.89846607  0.19782573  1
  O  O137  1  -0.01670113  0.85943656  0.80860677  1
  O  O138  1  0.48842319  0.40398691  0.26665596  1
  O  O139  1  0.53217994  0.38067408  0.75526649  1
  O  O140  1  0.52943073  0.91053279  0.35526562  1
  O  O141  1  0.48753025  0.85716099  0.71659612  1
  O  O142  1  0.49609277  0.11047701  0.24445666  1
  O  O143  1  0.55511223  0.10654073  0.70478542  1
  O  O144  1  0.50138886  0.62007205  0.27990392  1
  O  O145  1  0.53434138  0.64345124  0.71402876  1
  O  O146  1  0.95763098  0.10303879  0.26366604  1
  O  O147  1  1.03240091  0.15597354  0.75919984  1
  O  O148  1  0.96031646  0.59592669  0.24221335  1
  O  O149  1  0.98273561  0.62441756  0.65842949  1
  O  O150  1  0.40251007  0.30023094  -0.02153116  1
  O  O151  1  0.37647705  0.25148557  0.50511207  1
  O  O152  1  0.37662410  0.76343094  0.01183853  1
  O  O153  1  0.38403334  0.68873377  0.51280106  1
  O  O154  1  0.91239003  0.27640569  -0.02035938  1
  O  O155  1  0.85727214  0.24548577  0.53456546  1
  O  O156  1  0.94372566  0.71796726  0.03957910  1
  O  O157  1  0.77930744  0.80327033  0.65167179  1
  O  O158  1  0.14881944  0.22110320  0.50081159  1
  O  O159  1  0.12952624  0.25530327  0.98755004  1
  O  O160  1  0.10879305  0.83033809  0.45407497  1
  O  O161  1  0.15816939  0.83703991  0.98196348  1
  O  O162  1  0.61964226  0.22753762  0.49490363  1
  O  O163  1  0.53287301  0.32121173  0.92785607  1
  O  O164  1  0.65797003  0.76381921  0.47270550  1
  O  O165  1  0.68900600  0.72546448  1.03764618  1
  O  O166  1  0.59193105  0.21999132  0.06314288  1
  O  O167  1  0.41792043  0.19771597  0.64693085  1
  O  O168  1  0.47870890  0.73512480  0.12681895  1
  O  O169  1  0.53196311  0.71141993  0.57802146  1
  O  O170  1  0.98748104  0.22771798  0.13006770  1
  O  O171  1  1.01869425  0.24062157  0.64625639  1
  O  O172  1  0.99205663  0.77393866  0.03469508  1
  O  O173  1  0.97033317  0.75358914  0.55667079  1
  O  O174  1  -0.01771242  0.23712370  0.38629546  1
  O  O175  1  0.03496769  0.26890309  0.85754165  1
  O  O176  1  0.08961647  0.81191568  0.29812008  1
  O  O177  1  0.01023915  0.69925438  0.88765808  1
  O  O178  1  0.49298801  0.25293592  0.35312215  1
  O  O179  1  0.52735067  0.16064668  0.89178638  1
  O  O180  1  0.52162604  0.74630759  0.39617455  1
  O  O181  1  0.49485522  0.74159318  0.83345055  1
  O  O182  1  0.23217216  0.10192115  0.47815555  1
  O  O183  1  0.26222191  0.15102806  1.00903252  1
  O  O184  1  0.23399447  0.58929379  0.48520981  1
  O  O185  1  0.20107861  0.66499724  0.95797353  1
  O  O186  1  0.74364075  0.10996644  0.56538726  1
  O  O187  1  0.72394483  0.17276797  0.98591931  1
  O  O188  1  0.74602005  0.60281848  0.46432586  1
  O  O189  1  0.78954693  0.61994743  0.95525410  1
  O  O190  1  0.24986668  0.34304486  0.03276557  1
  O  O191  1  0.26692841  0.33955751  0.50486855  1
  O  O192  1  0.22751353  0.82465659  0.00018347  1
  O  O193  1  0.26798137  0.91084843  0.51435385  1
  O  O194  1  0.77692932  0.34171208  0.00126653  1
  O  O195  1  0.74775475  0.36184502  0.48992907  1
  O  O196  1  0.74778846  0.87241395  -0.01755789  1
  O  O197  1  0.88323157  0.86176944  0.43056375  1
  O  O198  1  0.10979355  0.44929784  0.25975877  1
  O  O199  1  0.12675078  0.48461829  0.71448093  1
  O  O200  1  0.10984068  1.04439973  0.22340370  1
  O  O201  1  0.18061016  1.00837397  0.80949306  1
  O  O202  1  0.63752481  0.49433861  0.22286796  1
  O  O203  1  0.63503530  0.48836577  0.74721291  1
  O  O204  1  0.65536255  0.99845984  0.23733011  1
  O  O205  1  0.64161956  0.99664881  0.78504777  1
  O  O206  1  0.34608316  -0.02573971  0.23895936  1
  O  O207  1  0.35118396  0.00487114  0.76155264  1
  O  O208  1  0.37574874  0.52265315  0.23472097  1
  O  O209  1  0.38363881  0.48405181  0.74687818  1
  O  O210  1  0.85666520  0.00091153  0.28856368  1
  O  O211  1  0.84785284  -0.01496812  0.79745149  1
  O  O212  1  0.83951673  0.50133241  0.22994569  1
  O  O213  1  0.93320238  0.48561539  0.74116797  1
  O  O214  1  0.08968737  0.34466270  0.36004193  1
  O  O215  1  0.14942668  0.38481265  0.88936692  1
  O  O216  1  0.02843302  0.94600033  0.41529374  1
  O  O217  1  0.14669610  0.88125703  0.91750040  1
  O  O218  1  0.60563415  0.35004821  0.38397978  1
  O  O219  1  0.63643694  0.40614785  0.86293998  1
  O  O220  1  0.66028707  0.82959052  0.42761018  1
  O  O221  1  0.59060025  0.85701049  0.91755927  1
  O  O222  1  0.39936197  0.13132705  0.16579873  1
  O  O223  1  0.41536636  0.14510052  0.69437346  1
  O  O224  1  0.40355875  0.62151388  0.10579991  1
  O  O225  1  0.37738652  0.63881944  0.56301370  1
  O  O226  1  0.83720829  0.15352016  0.11763652  1
  O  O227  1  0.89386793  0.14890560  0.64250912  1
  O  O228  1  0.87933291  0.60060735  0.11892709  1
  O  O229  1  0.84049505  0.66422723  0.59756144  1
  O  O230  1  0.27159913  0.26175624  0.16767120  1
  O  O231  1  0.26121176  0.21282399  0.60045737  1
  O  O232  1  0.27125515  0.67205219  0.10088755  1
  O  O233  1  0.25736567  0.75258333  0.57008624  1
  O  O234  1  0.71145130  0.32728551  0.02401830  1
  O  O235  1  0.76996075  0.23216586  0.68407659  1
  O  O236  1  0.75013447  0.74333787  0.07108219  1
  O  O237  1  0.70901871  0.78973658  0.65240018  1
  O  O238  1  0.26879802  0.21240090  0.39743673  1
  O  O239  1  0.24290317  0.26852096  0.86829469  1
  O  O240  1  0.23773381  0.80398267  0.35757834  1
  O  O241  1  0.14364981  0.75640926  0.76779989  1
  O  O242  1  0.72839324  0.24231107  0.37918997  1
  O  O243  1  0.76903644  0.19999589  0.93724665  1
  O  O244  1  0.74222334  0.72355281  0.34858327  1
  O  O245  1  0.73489054  0.72154838  0.85630969  1
  O  O246  1  0.02573043  0.12916806  -0.01315705  1
  O  O247  1  0.01254319  0.13572560  0.53421599  1
  O  O248  1  -0.05564865  0.56636822  -0.03612630  1
  O  O249  1  -0.05554186  0.59565762  0.49631489  1
  O  O250  1  0.53159594  0.18972291  0.08525148  1
  O  O251  1  0.50206721  0.12167822  0.51784438  1
  O  O252  1  0.53087840  0.63683809  0.00567532  1
  O  O253  1  0.52879615  0.58926419  0.50680966  1
  O  O254  1  0.49358235  0.38549117  0.52695010  1
  O  O255  1  0.45177315  0.44562960  0.99346485  1
  O  O256  1  0.47318674  0.86122203  0.50186540  1
  O  O257  1  0.54290285  0.84213662  0.96954594  1
  O  O258  1  1.00782052  0.33695801  0.50013167  1
  O  O259  1  0.99640824  0.36915475  1.01634934  1
  O  O260  1  0.98683963  0.92788483  0.57574867  1
  O  O261  1  1.00439053  0.93380745  1.00756663  1
  O  O262  1  0.52192197  0.47856914  0.40540441  1
  O  O263  1  0.51972423  0.51296879  0.86086406  1
  O  O264  1  0.55563922  0.97926980  0.39241995  1
  O  O265  1  0.47664472  1.00129183  0.86516283  1
  O  O266  1  0.98108732  0.44725464  0.40099488  1
  O  O267  1  1.08484730  0.57641449  0.86411481  1
  O  O268  1  0.98171349  0.97633277  0.37252807  1
  O  O269  1  1.00785931  1.02416896  0.87506719  1
  O  O270  1  0.02083126  0.04057371  0.10417625  1
  O  O271  1  -0.02325776  0.04191765  0.68947409  1
  O  O272  1  0.00250258  0.48906675  0.12584973  1
  O  O273  1  -0.00553810  0.47226396  0.58659733  1
  O  O274  1  0.53256856  -0.06728407  0.17189457  1
  O  O275  1  0.46903834  0.02221816  0.59707794  1
  O  O276  1  0.52140670  0.52200207  0.12645627  1
  O  O277  1  0.51518401  0.50923392  0.62054688  1
  O  O278  1  0.26205633  0.42316559  0.22093917  1
  O  O279  1  0.24917628  0.39487842  0.74230981  1
  O  O280  1  0.19677737  0.91510893  0.24754682  1
  O  O281  1  0.21942674  0.72125137  0.74336273  1
  O  O282  1  0.74969149  0.37784114  0.26199799  1
  O  O283  1  0.73651785  0.39031068  0.74531475  1
  O  O284  1  0.76009192  0.88764592  0.26082352  1
  O  O285  1  0.73656134  0.89273778  0.81025922  1
  O  O286  1  0.25358477  0.11412855  0.27760625  1
  O  O287  1  0.26304037  0.13755594  0.75395009  1
  O  O288  1  0.17344816  0.59791467  0.22908268  1
  O  O289  1  0.27921564  0.58760818  0.67000131  1
  O  O290  1  0.75853445  0.09439151  0.28495026  1
  O  O291  1  0.75472925  0.09575140  0.76057665  1
  O  O292  1  0.74765072  0.60589245  0.24277299  1
  O  O293  1  0.75688298  0.60946655  0.75208789  1
  O  O294  1  0.37810086  0.10580486  0.39297747  1
  O  O295  1  0.38979877  0.14439916  0.89117158  1
  O  O296  1  0.39470641  0.58433783  0.38819232  1
  O  O297  1  0.18703878  0.69145930  0.89365218  1
  O  O298  1  0.86603933  0.11620534  0.40297025  1
  O  O299  1  0.89626142  0.14955408  0.84784229  1
  O  O300  1  0.84870225  0.61162411  0.34516070  1
  O  O301  1  0.85916565  0.65428379  0.83035157  1
  O  O302  1  0.13956418  0.34469816  0.15119042  1
  O  O303  1  0.14906186  0.36226259  0.61694428  1
  O  O304  1  0.13447458  0.93486735  0.11541615  1
  O  O305  1  0.14139589  0.85059562  0.61810450  1
  O  O306  1  0.59321172  0.37756536  0.12628213  1
  O  O307  1  0.62384809  0.36347261  0.66213953  1
  O  O308  1  0.65817651  0.85787285  0.12538843  1
  O  O309  1  0.61537804  0.93607369  0.56904207  1
  O  O310  1  0.11268489  0.23790242  0.25794853  1
  O  O311  1  0.14295236  0.27904135  0.75705039  1
  O  O312  1  0.13858271  0.78621748  0.15561667  1
  O  O313  1  0.08689286  0.71881011  0.74455510  1
  O  O314  1  0.55713971  0.21803492  0.31423332  1
  O  O315  1  0.64632190  0.28520678  0.79257120  1
  O  O316  1  0.61647765  0.78033292  0.27321670  1
  O  O317  1  0.54755654  0.76539939  0.63338508  1
  O  O318  1  0.45071370  0.08177031  0.18772341  1
  O  O319  1  0.41687407  0.28927842  0.79698849  1
  O  O320  1  0.34541067  0.67935770  0.26655049  1
  O  O321  1  0.39292551  0.72378185  0.71502590  1
  O  O322  1  0.86207141  0.21560537  0.26655702  1
  O  O323  1  0.91158924  0.27102500  0.74362648  1
  O  O324  1  0.85832599  0.71677242  0.22137671  1
  O  O325  1  0.95789262  0.83187801  0.74877028  1
  O  O326  1  0.35906497  0.45771549  0.50076917  1
  O  O327  1  0.29059974  0.49001425  1.00513505  1
  O  O328  1  0.45385863  1.05954852  0.53510489  1
  O  O329  1  0.41821701  1.05502840  1.02061875  1
  O  O330  1  0.87621576  0.45146298  0.50284609  1
  O  O331  1  0.90308391  0.50840599  0.98722479  1
  O  O332  1  0.87265041  0.98292710  0.54874112  1
  O  O333  1  0.89088878  1.03846620  0.99316782  1
  O  O334  1  0.14886605  0.04255860  0.00268386  1
  O  O335  1  0.11364412  0.02287737  0.51640794  1
  O  O336  1  0.09953085  0.55190470  -0.07077707  1
  O  O337  1  0.08159563  0.53027723  0.46931567  1
  O  O338  1  0.59761757  -0.00598730  0.03959827  1
  O  O339  1  0.68127472  0.08131816  0.54460756  1
  O  O340  1  0.61893168  0.47724222  0.01025370  1
  O  O341  1  0.63334567  0.46728340  0.51431130  1
  O  O342  1  0.36181134  0.38933203  0.11225724  1
  O  O343  1  0.38551103  0.36303282  0.62321600  1
  O  O344  1  0.34013918  0.79986361  0.16790316  1
  O  O345  1  0.29030169  0.86772740  0.67442786  1
  O  O346  1  0.85155156  0.30928399  0.13494255  1
  O  O347  1  0.86078465  0.35177109  0.61604738  1
  O  O348  1  0.85195136  0.85975488  0.10393202  1
  O  O349  1  0.91245808  0.91934560  0.57426022  1
  O  O350  1  0.08905784  0.11288094  0.39154150  1
  O  O351  1  0.15189736  0.15417276  0.89111792  1
  O  O352  1  0.12451769  0.67964647  0.40118718  1
  O  O353  1  0.04781377  0.75650868  0.90923274  1
  O  O354  1  0.58268960  0.15250000  0.36207187  1
  O  O355  1  0.64819576  0.14038939  0.84603444  1
  O  O356  1  0.62887497  0.63596369  0.35804492  1
  O  O357  1  0.65936956  0.60889200  0.86302376  1
