# generated using pymatgen
data_V51Zn51O256
_symmetry_space_group_name_H-M   'P 1'
_cell_length_a   17.34767652
_cell_length_b   17.42241891
_cell_length_c   17.40619919
_cell_angle_alpha   89.82163459
_cell_angle_beta   90.24990288
_cell_angle_gamma   90.11967874
_symmetry_Int_Tables_number   1
_chemical_formula_structural   V51Zn51O256
_chemical_formula_sum   'V51 Zn51 O256'
_cell_volume   5260.73645379
_cell_formula_units_Z   1
loop_
 _symmetry_equiv_pos_site_id
 _symmetry_equiv_pos_as_xyz
  1  'x, y, z'
loop_
 _atom_site_type_symbol
 _atom_site_label
 _atom_site_symmetry_multiplicity
 _atom_site_fract_x
 _atom_site_fract_y
 _atom_site_fract_z
 _atom_site_occupancy
  V  V0  1  0.85089255  0.76138536  0.64296969  1
  V  V1  1  0.49530169  0.36671086  0.37537601  1
  V  V2  1  0.88994730  -0.01703120  0.38635635  1
  V  V3  1  -0.00211440  0.23151377  0.24294777  1
  V  V4  1  0.00139442  0.59495183  0.16462067  1
  V  V5  1  0.11409113  0.00228658  0.10392683  1
  V  V6  1  0.21966040  0.50502645  0.78028771  1
  V  V7  1  0.74882972  0.40597270  0.15297463  1
  V  V8  1  0.35656539  0.70965700  0.56571026  1
  V  V9  1  0.86180435  0.40409459  0.01914406  1
  V  V10  1  0.10866244  0.63559909  0.03177606  1
  V  V11  1  0.25483962  0.36138075  0.10078013  1
  V  V12  1  0.51570736  0.42248391  -0.03959031  1
  V  V13  1  0.50418921  0.87413026  0.37852445  1
  V  V14  1  -0.00815966  0.13242074  0.09321336  1
  V  V15  1  0.86214911  0.24457573  0.11958645  1
  V  V16  1  -0.01147366  0.35309776  0.37947121  1
  V  V17  1  0.13808925  0.15504843  -0.02131913  1
  V  V18  1  0.35499166  -0.03647234  0.85528456  1
  V  V19  1  0.61601720  0.39477243  0.24765009  1
  V  V20  1  0.87452401  0.27075336  0.66917294  1
  V  V21  1  0.38693593  0.55877818  0.18817654  1
  V  V22  1  0.76431984  0.11750542  0.35766682  1
  V  V23  1  0.75745305  -0.03601899  0.24612518  1
  V  V24  1  0.51487804  0.14465661  0.61699484  1
  V  V25  1  0.62329102  -0.00524555  0.10548413  1
  V  V26  1  0.52171479  0.64658989  0.13805086  1
  V  V27  1  0.91336298  0.76063938  0.14391109  1
  V  V28  1  0.69498045  0.65660556  0.37598380  1
  V  V29  1  0.52551966  0.20398891  0.25887091  1
  V  V30  1  0.01795909  0.29758627  0.76505276  1
  V  V31  1  0.48948880  -0.03335956  -0.02633880  1
  V  V32  1  -0.00991386  0.12990157  0.66098621  1
  V  V33  1  0.01846382  0.40433900  0.92392443  1
  V  V34  1  -0.01035345  0.73680427  0.77082874  1
  V  V35  1  0.63718219  0.64792551  -0.00685865  1
  V  V36  1  0.64993477  0.09464988  0.51209812  1
  V  V37  1  0.86529880  0.59832558  0.28236349  1
  V  V38  1  0.25649942  0.87362142  0.56687414  1
  V  V39  1  0.19852911  0.63704509  0.87470627  1
  V  V40  1  0.00475281  0.00359683  0.52926386  1
  V  V41  1  0.36486954  0.21623495  0.11347717  1
  V  V42  1  -0.00465047  0.63501839  0.61757476  1
  V  V43  1  0.13407996  0.35922865  0.26946347  1
  V  V44  1  0.84496373  0.88015838  0.52033403  1
  V  V45  1  0.11406225  0.87966119  0.79958364  1
  V  V46  1  0.18570599  0.42479715  0.60725863  1
  V  V47  1  0.63762931  0.49961265  0.63210551  1
  V  V48  1  0.39990505  0.62762964  0.80649396  1
  V  V49  1  0.14607502  0.13641005  0.53963897  1
  V  V50  1  0.75123998  0.28525407  0.46225461  1
  Zn  Zn51  1  0.11062332  0.83778478  0.99841992  1
  Zn  Zn52  1  0.81485153  0.30409470  0.29783570  1
  Zn  Zn53  1  0.56730246  0.81678220  0.06616230  1
  Zn  Zn54  1  0.28942823  0.78338119  0.80246448  1
  Zn  Zn55  1  0.80962054  0.57339493  0.09560412  1
  Zn  Zn56  1  0.85848052  0.10707095  0.53036407  1
  Zn  Zn57  1  0.46226986  0.38801459  0.14700502  1
  Zn  Zn58  1  0.70086266  0.15445082  0.17143917  1
  Zn  Zn59  1  0.49396914  0.14663381  0.40417822  1
  Zn  Zn60  1  0.05162779  0.30110625  0.56582139  1
  Zn  Zn61  1  1.00551728  0.18449564  0.44147915  1
  Zn  Zn62  1  0.69519668  0.94191887  0.42866010  1
  Zn  Zn63  1  0.68765687  0.47725209  0.99318635  1
  Zn  Zn64  1  0.05835425  0.05768840  0.82748012  1
  Zn  Zn65  1  0.94853408  0.92488085  0.67541200  1
  Zn  Zn66  1  0.21817586  0.45479620  0.94883612  1
  Zn  Zn67  1  0.50638091  0.08694627  0.81522632  1
  Zn  Zn68  1  0.52698812  0.69229474  0.47499314  1
  Zn  Zn69  1  0.95446602  0.70133366  0.96969828  1
  Zn  Zn70  1  0.03972340  0.56472557  0.83037342  1
  Zn  Zn71  1  0.17028990  0.25090866  0.67865817  1
  Zn  Zn72  1  0.71095866  0.20158035  0.61424703  1
  Zn  Zn73  1  0.93464286  0.42790773  0.21051244  1
  Zn  Zn74  1  0.54375860  0.55753022  0.32669492  1
  Zn  Zn75  1  0.32765180  0.90589523  0.26863683  1
  Zn  Zn76  1  0.59183523  0.55106558  0.83052074  1
  Zn  Zn77  1  0.98347037  0.43747833  0.64402343  1
  Zn  Zn78  1  0.92926912  0.96426542  0.17530999  1
  Zn  Zn79  1  0.71456389  0.84763757  0.99405219  1
  Zn  Zn80  1  0.44373375  0.52024058  0.70380448  1
  Zn  Zn81  1  0.31598029  0.36552229  0.72309891  1
  Zn  Zn82  1  0.06479448  0.51769595  0.33219289  1
  Zn  Zn83  1  0.05646633  0.31783361  0.06328507  1
  Zn  Zn84  1  0.47258902  0.22945208  0.94052826  1
  Zn  Zn85  1  0.20178931  0.61935457  0.64947248  1
  Zn  Zn86  1  0.43709889  0.57710150  0.98539960  1
  Zn  Zn87  1  0.31438861  0.07624519  0.00100439  1
  Zn  Zn88  1  0.71129086  0.67829900  0.55663304  1
  Zn  Zn89  1  0.06472066  0.82884696  0.62457041  1
  Zn  Zn90  1  0.66498246  0.45585847  0.41782450  1
  Zn  Zn91  1  0.34077527  0.05990679  0.53823773  1
  Zn  Zn92  1  0.57255650  0.31557490  0.55294617  1
  Zn  Zn93  1  0.86991590  0.67353074  0.46487363  1
  Zn  Zn94  1  0.84162306  0.79559659  0.85544543  1
  Zn  Zn95  1  0.42150706  1.02684903  0.13608117  1
  Zn  Zn96  1  0.16060054  0.21403006  0.14819004  1
  Zn  Zn97  1  0.19097048  0.53230803  0.18304923  1
  Zn  Zn98  1  0.88209292  0.28310326  0.88553273  1
  Zn  Zn99  1  0.83682094  0.55862824  0.61140983  1
  Zn  Zn100  1  0.81622288  0.80167904  0.33994173  1
  Zn  Zn101  1  0.34276851  0.36469320  0.25793237  1
  O  O102  1  0.10800472  0.12971579  0.09378392  1
  O  O103  1  0.08802108  0.12658132  0.63725203  1
  O  O104  1  0.11220683  0.60529282  0.13325403  1
  O  O105  1  0.09313967  0.61831246  0.62556347  1
  O  O106  1  0.67752936  0.07641803  0.09563392  1
  O  O107  1  0.62496336  0.12227446  0.61572612  1
  O  O108  1  0.61060723  0.62980663  0.16254318  1
  O  O109  1  0.64629610  0.60037305  0.61794256  1
  O  O110  1  0.39984534  0.34405597  0.34799007  1
  O  O111  1  0.47871438  0.35878671  0.70825089  1
  O  O112  1  0.40147135  0.88579750  0.36067213  1
  O  O113  1  0.34590315  0.85251743  0.88498844  1
  O  O114  1  0.89135483  0.35154607  0.36541499  1
  O  O115  1  0.85401850  0.38565088  0.92209598  1
  O  O116  1  0.87395573  0.87884915  0.40983063  1
  O  O117  1  0.76603432  1.01610410  0.81847628  1
  O  O118  1  0.18455940  0.10831941  0.30700105  1
  O  O119  1  0.28694208  -0.10021558  0.91386106  1
  O  O120  1  0.22516963  0.59617234  0.33903662  1
  O  O121  1  0.24762811  0.54012957  0.88064103  1
  O  O122  1  0.76657720  -0.00918158  0.35654547  1
  O  O123  1  0.77857446  0.01238241  0.96434805  1
  O  O124  1  0.85647401  0.48502417  0.44705554  1
  O  O125  1  0.79216558  0.52181989  0.85516566  1
  O  O126  1  0.25494640  0.45336987  0.13330243  1
  O  O127  1  0.21575109  0.50306202  0.66950622  1
  O  O128  1  0.20719358  1.01257814  0.04176766  1
  O  O129  1  0.29478605  0.96599843  0.56565758  1
  O  O130  1  0.75210572  0.50116703  0.16337582  1
  O  O131  1  0.74027650  0.49512435  0.64214490  1
  O  O132  1  0.81820290  0.98187988  0.17148502  1
  O  O133  1  0.72507481  0.92615316  0.69808730  1
  O  O134  1  0.00782786  0.35912276  0.26385637  1
  O  O135  1  0.02101323  0.39050008  0.74183329  1
  O  O136  1  0.07043761  0.88094355  0.33238346  1
  O  O137  1  0.02468363  0.86837779  0.73273847  1
  O  O138  1  0.52614196  0.34664656  0.23268288  1
  O  O139  1  0.41005660  0.41223851  0.68600664  1
  O  O140  1  0.53095576  0.93571380  0.30415834  1
  O  O141  1  0.52033238  0.76999136  0.72299140  1
  O  O142  1  0.51048007  0.11361986  0.29363201  1
  O  O143  1  0.50165886  0.12197996  0.71237006  1
  O  O144  1  0.46705556  0.61355255  0.22890812  1
  O  O145  1  0.49553361  0.59340232  0.78331476  1
  O  O146  1  1.00123134  0.13778818  0.22567292  1
  O  O147  1  0.99107156  0.12062758  0.75746126  1
  O  O148  1  1.01882226  0.59329907  0.26058142  1
  O  O149  1  0.98857967  0.63666396  0.76296382  1
  O  O150  1  0.39912242  0.23863035  0.02509106  1
  O  O151  1  0.36421105  0.25960382  0.52380513  1
  O  O152  1  0.35340697  0.83020255  0.07930508  1
  O  O153  1  0.32793024  0.71569722  0.47644464  1
  O  O154  1  0.87308165  0.28425318  0.02770518  1
  O  O155  1  0.82830543  0.27383328  0.51663134  1
  O  O156  1  0.89045475  0.74718405  0.04655445  1
  O  O157  1  0.87434536  0.77623706  0.53387574  1
  O  O158  1  0.14636426  0.23790245  0.57065026  1
  O  O159  1  0.10787664  0.24776744  0.99223090  1
  O  O160  1  0.08614913  0.75904925  0.44856856  1
  O  O161  1  0.11728716  0.73349214  1.03090224  1
  O  O162  1  0.67025027  0.26626705  0.52347044  1
  O  O163  1  0.69660324  0.16439067  0.94715121  1
  O  O164  1  0.64038452  0.68624599  0.47218719  1
  O  O165  1  0.65175859  0.74545210  1.01098261  1
  O  O166  1  0.47285663  0.21247857  0.15812644  1
  O  O167  1  0.51234696  0.24283621  0.61115128  1
  O  O168  1  0.51276501  0.74444096  0.12898012  1
  O  O169  1  0.45745225  0.68891729  0.56152850  1
  O  O170  1  0.99427886  0.24137225  0.12221097  1
  O  O171  1  1.00195170  0.25205327  0.66368616  1
  O  O172  1  0.99796806  0.70865945  0.15736930  1
  O  O173  1  0.99978697  0.74084305  0.65451109  1
  O  O174  1  -0.01082234  0.23238071  0.34341170  1
  O  O175  1  -0.00331800  0.31294394  0.87335954  1
  O  O176  1  0.04782124  0.73627849  0.39426296  1
  O  O177  1  -0.05633642  0.74539716  0.87059434  1
  O  O178  1  0.51845876  0.24978577  0.35068999  1
  O  O179  1  0.34233711  0.23873789  0.83638623  1
  O  O180  1  0.48998831  0.79042665  0.32316949  1
  O  O181  1  0.58451796  0.74948672  0.74399702  1
  O  O182  1  0.24108829  0.11718228  0.53963935  1
  O  O183  1  0.23590045  0.15799823  0.98114259  1
  O  O184  1  0.19378160  0.60734145  0.40379558  1
  O  O185  1  0.21621655  0.62003992  0.99698092  1
  O  O186  1  0.74961521  0.12316908  0.53685537  1
  O  O187  1  0.75367532  0.20968868  0.94715632  1
  O  O188  1  0.79401952  0.61142009  0.52328096  1
  O  O189  1  0.71357808  0.58500815  1.02515178  1
  O  O190  1  0.26752757  0.37379060  0.00449227  1
  O  O191  1  0.22168232  0.44366288  0.52366506  1
  O  O192  1  0.28205913  0.82181650  0.09481664  1
  O  O193  1  0.24631830  0.84694036  0.47724531  1
  O  O194  1  0.75261690  0.40039528  0.03860082  1
  O  O195  1  0.74407162  0.37989449  0.43734563  1
  O  O196  1  0.77982124  0.85994351  -0.08633220  1
  O  O197  1  0.74933591  0.87678012  0.50510006  1
  O  O198  1  0.13004144  0.46482154  0.25431211  1
  O  O199  1  0.12374621  0.49600914  0.79287339  1
  O  O200  1  0.15529512  0.99753125  0.18838203  1
  O  O201  1  0.12002630  0.97743133  0.78630390  1
  O  O202  1  0.59427609  0.48829732  0.24567297  1
  O  O203  1  0.63147882  0.50018843  0.73412077  1
  O  O204  1  0.66586081  0.97212671  0.20655031  1
  O  O205  1  0.59750160  1.01666297  0.77649251  1
  O  O206  1  0.35571592  0.07535061  0.35933084  1
  O  O207  1  0.33865652  -0.03759212  0.76298058  1
  O  O208  1  0.40123126  0.46452872  0.21460632  1
  O  O209  1  0.34762701  0.55303004  0.75916412  1
  O  O210  1  0.91286834  -0.02144043  0.29307130  1
  O  O211  1  0.82858170  0.04278105  0.79989506  1
  O  O212  1  0.88420296  0.50096055  0.28084114  1
  O  O213  1  0.82551672  0.49444069  0.79960921  1
  O  O214  1  0.11521241  0.34778396  0.36295631  1
  O  O215  1  0.11405687  0.41348822  0.93724595  1
  O  O216  1  0.10718165  0.89066842  0.39144559  1
  O  O217  1  0.09870862  0.87063113  0.89720561  1
  O  O218  1  0.61143571  0.37621844  0.35163147  1
  O  O219  1  0.66161573  0.32680414  0.83663958  1
  O  O220  1  0.60983544  0.88151052  0.38921279  1
  O  O221  1  0.61977354  0.95937962  0.82377592  1
  O  O222  1  0.35233700  0.11507054  0.10865109  1
  O  O223  1  0.32843440  0.31846456  0.51008492  1
  O  O224  1  0.41968576  0.58245331  0.09460774  1
  O  O225  1  0.30062354  0.63678693  0.60967521  1
  O  O226  1  0.88598068  0.14492315  0.10876963  1
  O  O227  1  0.89022519  0.17016665  0.63444966  1
  O  O228  1  0.88864587  0.60915352  0.16904855  1
  O  O229  1  0.87790194  0.66389242  0.64876884  1
  O  O230  1  0.26394799  0.24104088  0.11918474  1
  O  O231  1  0.23470979  0.34325261  0.65055614  1
  O  O232  1  0.25144713  0.86033896  0.15116957  1
  O  O233  1  0.29552078  0.78581192  0.62909837  1
  O  O234  1  0.76461844  0.23924577  0.13302548  1
  O  O235  1  0.77520448  0.26535471  0.67439359  1
  O  O236  1  0.81348626  0.74279203  0.18414203  1
  O  O237  1  0.75380677  0.74959869  0.63462884  1
  O  O238  1  0.23865294  0.26065222  0.40609248  1
  O  O239  1  0.26088084  0.15125162  0.78518874  1
  O  O240  1  0.23884562  0.86791046  0.31697939  1
  O  O241  1  0.23866961  0.72279311  0.89104818  1
  O  O242  1  0.76844776  0.22463217  0.37078528  1
  O  O243  1  0.80992484  0.19563391  0.88998844  1
  O  O244  1  0.77569054  0.72156729  0.40335209  1
  O  O245  1  0.73114186  0.69342652  0.79488556  1
  O  O246  1  -0.00962123  0.13056308  -0.00095709  1
  O  O247  1  -0.02894294  0.11453733  0.52054407  1
  O  O248  1  0.00904484  0.61802959  0.02238913  1
  O  O249  1  -0.02433376  0.64938825  0.52440397  1
  O  O250  1  0.49452853  0.13270573  -0.09058831  1
  O  O251  1  0.55609671  0.13403321  0.49311283  1
  O  O252  1  0.54340113  0.62093581  0.02810240  1
  O  O253  1  0.49631947  0.63072510  0.39361156  1
  O  O254  1  0.50609366  0.35236031  0.47308034  1
  O  O255  1  0.50697475  0.33078272  0.92434638  1
  O  O256  1  0.51579683  0.80192992  0.45369349  1
  O  O257  1  0.49656190  0.87201707  0.99751892  1
  O  O258  1  1.00087580  0.30015065  0.46983229  1
  O  O259  1  0.98048086  0.39203860  1.01919354  1
  O  O260  1  1.00310511  0.90663745  0.55909065  1
  O  O261  1  0.92315906  0.91923581  0.96194982  1
  O  O262  1  0.49122534  0.46437412  0.36752073  1
  O  O263  1  0.51234117  0.37705736  0.76950705  1
  O  O264  1  0.48019277  0.93850429  0.45202309  1
  O  O265  1  0.46323503  0.97418434  0.87116052  1
  O  O266  1  1.00838314  0.44818505  0.39859242  1
  O  O267  1  0.98290507  0.48544432  0.88273441  1
  O  O268  1  0.98556410  0.99554635  0.42426666  1
  O  O269  1  0.96538197  0.98996822  0.86284800  1
  O  O270  1  0.00316745  0.02814566  0.11987508  1
  O  O271  1  -0.03480621  0.02906743  0.63517160  1
  O  O272  1  -0.00636365  0.50005514  0.14243699  1
  O  O273  1  -0.05291241  0.53877030  0.63349291  1
  O  O274  1  0.53511932  0.01374741  0.14076772  1
  O  O275  1  0.43220222  0.10500032  0.57716799  1
  O  O276  1  0.51718782  0.42212767  0.05888630  1
  O  O277  1  0.53391224  0.51344549  0.63289199  1
  O  O278  1  0.23271477  0.34530962  0.26272625  1
  O  O279  1  0.25686156  0.41543903  0.80062908  1
  O  O280  1  0.30036554  1.02796599  0.36788463  1
  O  O281  1  0.20298902  0.84437829  0.77351811  1
  O  O282  1  0.73558787  0.37079875  0.25270577  1
  O  O283  1  0.72460193  0.34250605  0.80830535  1
  O  O284  1  0.76516677  0.86895794  0.26920361  1
  O  O285  1  0.62433524  0.89249494  0.79495979  1
  O  O286  1  0.22578923  0.13243665  0.25523868  1
  O  O287  1  0.25697853  0.16997760  0.71585356  1
  O  O288  1  0.29411323  0.58625616  0.20378739  1
  O  O289  1  0.20170502  0.62497942  0.77259188  1
  O  O290  1  0.75696302  0.10399991  0.26014919  1
  O  O291  1  0.70330645  -0.01444749  0.66766507  1
  O  O292  1  0.76965607  0.60608240  0.30336256  1
  O  O293  1  0.71349595  0.62922193  0.76152094  1
  O  O294  1  0.27980181  0.20482533  0.39800588  1
  O  O295  1  0.31893824  0.04769221  0.89290300  1
  O  O296  1  0.34079544  0.71103382  0.28833854  1
  O  O297  1  0.39170031  0.63445910  0.90398071  1
  O  O298  1  0.85672019  0.09157020  0.39989367  1
  O  O299  1  0.82891050  0.06029576  0.97466190  1
  O  O300  1  0.90893204  0.63596923  0.36334527  1
  O  O301  1  0.77893857  0.69024277  0.85481612  1
  O  O302  1  0.15308127  0.34169878  0.11889299  1
  O  O303  1  0.08476206  0.40586068  0.59791135  1
  O  O304  1  0.09371648  0.90919793  0.07680446  1
  O  O305  1  0.16386184  0.86574664  0.60642046  1
  O  O306  1  0.64891005  0.38440968  0.14302923  1
  O  O307  1  0.62532209  0.39717299  0.62633173  1
  O  O308  1  0.65193207  0.89449361  0.07222672  1
  O  O309  1  0.61940459  0.83977093  0.61039996  1
  O  O310  1  0.10414706  0.25566391  0.23510896  1
  O  O311  1  0.11129326  0.26430300  0.77000277  1
  O  O312  1  0.19724022  0.80599895  0.28132761  1
  O  O313  1  0.08031994  0.75424435  0.79687328  1
  O  O314  1  0.61747588  0.20635846  0.22322507  1
  O  O315  1  0.71407065  0.17231046  0.78823702  1
  O  O316  1  0.64521011  0.70252350  0.31236129  1
  O  O317  1  0.56799301  0.88332466  0.63120262  1
  O  O318  1  0.41161173  0.21353547  0.21899120  1
  O  O319  1  0.37138021  0.26911266  0.77711647  1
  O  O320  1  0.34109529  0.75464266  0.23256587  1
  O  O321  1  0.37094602  0.71635634  0.77027260  1
  O  O322  1  0.89065701  0.25670936  0.22503000  1
  O  O323  1  0.90380200  0.27150653  0.76886058  1
  O  O324  1  0.86121575  0.73074383  0.24981929  1
  O  O325  1  0.88013821  0.78470268  0.74381743  1
  O  O326  1  0.41590372  0.53163529  0.51810251  1
  O  O327  1  0.43935838  0.47800381  0.93215339  1
  O  O328  1  0.38987491  1.10096272  0.43014783  1
  O  O329  1  0.41032860  1.00352805  1.02420076  1
  O  O330  1  0.86571435  0.45847879  0.51148853  1
  O  O331  1  0.86581686  0.50162498  1.02579437  1
  O  O332  1  0.86860005  0.98298402  0.51050967  1
  O  O333  1  0.95949070  0.97881505  0.94014824  1
  O  O334  1  0.14501889  0.03335097  -0.00728543  1
  O  O335  1  0.09896098  0.02845913  0.53304120  1
  O  O336  1  0.18133798  0.54789642  0.01869052  1
  O  O337  1  0.11826813  0.58809435  0.41174459  1
  O  O338  1  0.57793668  0.00409976  -0.00225142  1
  O  O339  1  0.64406051  -0.00177916  0.51220870  1
  O  O340  1  0.60287013  0.47166783  -0.07803377  1
  O  O341  1  0.63943790  0.49014286  0.52843950  1
  O  O342  1  0.35965393  0.33674201  0.14358225  1
  O  O343  1  0.38975906  0.46664959  0.51147196  1
  O  O344  1  0.39566489  0.95521985  0.21013485  1
  O  O345  1  0.36275474  0.82137233  0.59262635  1
  O  O346  1  0.85588027  0.37814222  0.13780252  1
  O  O347  1  0.90023472  0.35922359  0.63260414  1
  O  O348  1  0.93647087  0.85403453  0.16026551  1
  O  O349  1  0.85733975  0.87850466  0.62722241  1
  O  O350  1  0.11708965  0.15357035  0.44826672  1
  O  O351  1  0.10746327  0.13254815  0.88727764  1
  O  O352  1  0.19007206  0.74732600  0.32281794  1
  O  O353  1  0.10152102  0.62881465  0.90615975  1
  O  O354  1  0.67662097  0.10517092  0.40436870  1
  O  O355  1  0.65522758  0.17121626  0.82711888  1
  O  O356  1  0.65070718  0.55861958  0.38189505  1
  O  O357  1  0.62804065  0.63341001  0.89750309  1
