# generated using pymatgen
data_V51Zn51O256
_symmetry_space_group_name_H-M   'P 1'
_cell_length_a   17.90382293
_cell_length_b   17.81370073
_cell_length_c   17.78026654
_cell_angle_alpha   90.05804926
_cell_angle_beta   89.31404760
_cell_angle_gamma   87.68471979
_symmetry_Int_Tables_number   1
_chemical_formula_structural   V51Zn51O256
_chemical_formula_sum   'V51 Zn51 O256'
_cell_volume   5665.67818693
_cell_formula_units_Z   1
loop_
 _symmetry_equiv_pos_site_id
 _symmetry_equiv_pos_as_xyz
  1  'x, y, z'
loop_
 _atom_site_type_symbol
 _atom_site_label
 _atom_site_symmetry_multiplicity
 _atom_site_fract_x
 _atom_site_fract_y
 _atom_site_fract_z
 _atom_site_occupancy
  V  V0  1  0.32101541  0.79466882  0.40579612  1
  V  V1  1  -0.00267626  0.00335580  0.47832274  1
  V  V2  1  0.31473360  0.09548280  0.30944248  1
  V  V3  1  0.75001641  0.52358119  0.37645661  1
  V  V4  1  0.47307035  0.21921189  0.26571367  1
  V  V5  1  0.26887688  0.49273135  0.76173948  1
  V  V6  1  0.65933073  0.45278616  0.60436195  1
  V  V7  1  0.88596033  0.59221297  0.70572427  1
  V  V8  1  0.54771128  0.77354429  0.67573726  1
  V  V9  1  0.50292689  0.34293477  0.38880247  1
  V  V10  1  0.27584102  0.50901029  0.29333507  1
  V  V11  1  0.37180231  0.22809137  0.60950126  1
  V  V12  1  0.24861830  0.25626104  0.48484086  1
  V  V13  1  0.87250320  0.85866321  0.02575133  1
  V  V14  1  0.29686862  0.00494541  0.72723433  1
  V  V15  1  0.10961458  0.10830910  0.13823453  1
  V  V16  1  0.00810555  0.50214270  0.51756815  1
  V  V17  1  0.15558332  0.50783630  0.11314648  1
  V  V18  1  0.04845270  0.09066862  0.63860870  1
  V  V19  1  0.47974849  0.70141890  0.19666245  1
  V  V20  1  -0.05163449  0.26216739  0.27765462  1
  V  V21  1  0.14886589  0.37035804  0.75635491  1
  V  V22  1  0.74651673  0.25352404  -0.01715243  1
  V  V23  1  0.88231082  0.45911670  0.82549734  1
  V  V24  1  0.49877624  0.53687303  0.63476040  1
  V  V25  1  0.26196617  0.38080037  0.61636410  1
  V  V26  1  0.19562623  -0.04577523  0.29732587  1
  V  V27  1  0.65781371  -0.00365460  0.61866292  1
  V  V28  1  0.46610000  0.21939813  0.77237956  1
  V  V29  1  0.84897448  0.60890041  0.22234227  1
  V  V30  1  0.60846402  0.59613508  0.48389439  1
  V  V31  1  0.18947172  0.72671018  0.51188224  1
  V  V32  1  0.64026232  0.88554324  0.24425103  1
  V  V33  1  0.01456126  0.24517829  0.73103554  1
  V  V34  1  0.52959163  0.14238187  0.61531409  1
  V  V35  1  0.15107007  0.39404777  0.28119592  1
  V  V36  1  0.09635970  0.70816982  0.36098482  1
  V  V37  1  0.13607754  0.50207306  0.62162930  1
  V  V38  1  0.14911047  0.10965604  0.49125406  1
  V  V39  1  -0.01002407  0.14088159  -0.00643171  1
  V  V40  1  0.50357139  0.15480602  0.09673997  1
  V  V41  1  0.68275298  0.62372226  -0.04357860  1
  V  V42  1  -0.05245238  0.48520985  0.00752869  1
  V  V43  1  0.62659907  0.21309639  0.35429794  1
  V  V44  1  0.38338619  0.37568401  0.49674637  1
  V  V45  1  0.75303758  0.01438407  0.78009434  1
  V  V46  1  0.38504652  0.61260579  0.73663714  1
  V  V47  1  -0.00046564  0.39109908  0.39052509  1
  V  V48  1  0.87781094  0.80840013  0.63485925  1
  V  V49  1  0.74236413  0.66655834  0.81258670  1
  V  V50  1  0.57943757  0.36535985  0.21533490  1
  Zn  Zn51  1  0.78656756  0.78306840  0.19095305  1
  Zn  Zn52  1  0.46987478  0.51271521  0.26360181  1
  Zn  Zn53  1  0.40213918  0.18626837  0.95559960  1
  Zn  Zn54  1  0.99269112  0.32263345  0.90584449  1
  Zn  Zn55  1  0.16070448  0.91201264  0.46162722  1
  Zn  Zn56  1  0.88393090  0.66373502  0.95399091  1
  Zn  Zn57  1  0.07775395  0.32423498  0.56425817  1
  Zn  Zn58  1  0.47127978  0.87622025  0.31575648  1
  Zn  Zn59  1  0.64425124  0.17709885  0.74043311  1
  Zn  Zn60  1  0.46815498  0.70047502  0.82612561  1
  Zn  Zn61  1  0.64781250  0.22063302  0.15951095  1
  Zn  Zn62  1  0.10270627  0.91266090  0.16596297  1
  Zn  Zn63  1  1.01432929  0.40297977  0.17693865  1
  Zn  Zn64  1  0.19865312  0.19385789  0.66707229  1
  Zn  Zn65  1  0.14520124  0.20700777  0.31544616  1
  Zn  Zn66  1  0.06376626  0.53354545  0.32075146  1
  Zn  Zn67  1  0.30643463  0.28821128  0.77883552  1
  Zn  Zn68  1  0.87844001  0.00733557  0.62906870  1
  Zn  Zn69  1  0.13981310  0.20404220  0.83950463  1
  Zn  Zn70  1  0.64177770  0.40653905  0.42360491  1
  Zn  Zn71  1  1.01993874  0.67603373  0.60330110  1
  Zn  Zn72  1  0.71292865  0.70431335  0.62044087  1
  Zn  Zn73  1  0.21015643  0.45327381  0.44728807  1
  Zn  Zn74  1  0.38456584  0.81636781  0.69547131  1
  Zn  Zn75  1  0.31383118  0.12130595  0.11821031  1
  Zn  Zn76  1  0.03799978  0.09157409  0.31602980  1
  Zn  Zn77  1  0.44083805  1.02423257  0.19877809  1
  Zn  Zn78  1  0.53216131  0.33580926  0.59585156  1
  Zn  Zn79  1  0.02243161  0.81364316  0.50499719  1
  Zn  Zn80  1  0.47919404  0.96218695  0.64356881  1
  Zn  Zn81  1  0.33987340  0.45224257  0.14507313  1
  Zn  Zn82  1  0.22012226  1.15083859  0.98866783  1
  Zn  Zn83  1  0.41618658  0.39857647  0.71033404  1
  Zn  Zn84  1  0.60057589  0.61780331  0.74986597  1
  Zn  Zn85  1  0.72356310  0.91477116  0.91351836  1
  Zn  Zn86  1  0.81667876  0.51854471  0.55542030  1
  Zn  Zn87  1  0.44973304  0.65414281  0.40571026  1
  Zn  Zn88  1  0.29905672  0.06404042  0.54285807  1
  Zn  Zn89  1  0.75846117  0.32928307  0.31213274  1
  Zn  Zn90  1  0.84777887  0.81492031  0.82633139  1
  Zn  Zn91  1  0.32103845  0.32633844  0.31730011  1
  Zn  Zn92  1  0.12072322  0.42988743  0.94756121  1
  Zn  Zn93  1  0.84857392  0.27871159  0.80812527  1
  Zn  Zn94  1  0.20938834  0.65489641  0.67476869  1
  Zn  Zn95  1  0.76247055  0.46333395  0.95963215  1
  Zn  Zn96  1  0.55605697  0.29510154  0.02137576  1
  Zn  Zn97  1  0.81271905  0.05534993  -0.01998960  1
  Zn  Zn98  1  0.43525767  0.17489296  0.44655637  1
  Zn  Zn99  1  0.62546601  0.75164486  0.10349159  1
  Zn  Zn100  1  0.18340951  0.64179775  0.22913860  1
  Zn  Zn101  1  0.56592209  0.04603216  0.30616472  1
  O  O102  1  0.10392001  0.14044471  0.23068050  1
  O  O103  1  0.13839674  0.14173316  0.59138938  1
  O  O104  1  0.13173393  0.59571857  0.15023179  1
  O  O105  1  0.12390588  0.59685881  0.64250495  1
  O  O106  1  0.59635679  0.13815148  0.11259964  1
  O  O107  1  0.61680743  0.17340968  0.63178997  1
  O  O108  1  0.63344198  0.68847516  0.01057927  1
  O  O109  1  0.66958301  0.63828179  0.54101318  1
  O  O110  1  0.39727832  0.36112806  0.39121144  1
  O  O111  1  0.29174343  0.29830316  0.89240732  1
  O  O112  1  0.28952380  0.76005267  0.32798297  1
  O  O113  1  0.24978584  0.87801429  0.92158203  1
  O  O114  1  0.90990397  0.40694654  0.38576344  1
  O  O115  1  0.90665746  0.36133284  0.84076985  1
  O  O116  1  0.76112358  0.88743727  0.45741612  1
  O  O117  1  0.89479975  0.85654975  0.92521786  1
  O  O118  1  0.19477500  -0.11635491  0.36322356  1
  O  O119  1  0.32691982  0.04417855  0.80807732  1
  O  O120  1  0.28669882  0.50316045  0.38798016  1
  O  O121  1  0.25111515  0.49609634  0.85104448  1
  O  O122  1  0.76709052  -0.04233574  0.44431166  1
  O  O123  1  0.76453682  0.01705563  0.89195358  1
  O  O124  1  0.73752433  0.42376101  0.37353088  1
  O  O125  1  0.78982588  0.47039661  0.85290561  1
  O  O126  1  0.25156786  0.50110055  0.11263172  1
  O  O127  1  0.25601930  0.47679052  0.61573265  1
  O  O128  1  0.19967654  1.12036810  0.09701488  1
  O  O129  1  0.27419706  0.99667983  0.62697615  1
  O  O130  1  0.76000823  0.43887952  0.14119038  1
  O  O131  1  0.75367473  0.45440794  0.61428951  1
  O  O132  1  0.70988981  0.99635529  0.11940005  1
  O  O133  1  0.68753851  0.97431444  0.71332896  1
  O  O134  1  0.04167996  0.42662376  0.28996058  1
  O  O135  1  0.05880656  0.35701230  0.73745105  1
  O  O136  1  -0.12808126  0.87911945  0.34989314  1
  O  O137  1  0.11268444  0.85241019  0.80989525  1
  O  O138  1  0.50214900  0.32987208  0.27610667  1
  O  O139  1  0.42707295  0.31523672  0.77759621  1
  O  O140  1  0.45998040  0.79414314  0.22658104  1
  O  O141  1  0.48203504  0.85874322  0.67607818  1
  O  O142  1  0.49042772  0.12364579  0.26425304  1
  O  O143  1  0.48335808  0.13654665  0.70734185  1
  O  O144  1  0.48623364  0.60090335  0.18585018  1
  O  O145  1  0.50135090  0.58268464  0.72874640  1
  O  O146  1  0.95935976  0.16530666  0.28263346  1
  O  O147  1  1.06529879  0.15465819  0.72208289  1
  O  O148  1  0.95511883  0.60523176  0.19431716  1
  O  O149  1  0.96724473  0.63598077  0.69134290  1
  O  O150  1  0.34577874  0.29977735  -0.06133007  1
  O  O151  1  0.36464687  0.25313030  0.50021598  1
  O  O152  1  0.31146127  0.84499313  -0.08397808  1
  O  O153  1  0.37376004  0.71962333  0.44355065  1
  O  O154  1  0.83621947  0.26526745  0.01802079  1
  O  O155  1  0.87166713  0.22566725  0.59408633  1
  O  O156  1  0.88232770  0.75853468  0.02011816  1
  O  O157  1  0.95843316  0.77122845  0.57923983  1
  O  O158  1  0.15566372  0.27253434  0.50026853  1
  O  O159  1  0.16169384  0.25841591  0.99129022  1
  O  O160  1  0.10574855  0.74717033  0.55923335  1
  O  O161  1  0.10410271  0.90531315  0.96794004  1
  O  O162  1  0.74372210  0.21810668  0.53023069  1
  O  O163  1  0.64724116  0.25778695  0.96236625  1
  O  O164  1  0.55361401  0.66281290  0.44282893  1
  O  O165  1  0.49274576  0.83123523  0.93216377  1
  O  O166  1  0.47092143  0.22588555  0.15972930  1
  O  O167  1  0.47610064  0.24561177  0.61924346  1
  O  O168  1  0.51331952  0.73257124  0.10616741  1
  O  O169  1  0.51244842  0.71217766  0.61870823  1
  O  O170  1  0.98480015  0.30151481  0.19752259  1
  O  O171  1  1.02230418  0.26884940  0.63612114  1
  O  O172  1  1.03663679  0.84032754  0.15052759  1
  O  O173  1  1.06517756  0.90341811  0.80190740  1
  O  O174  1  0.00693854  0.29400533  0.35386217  1
  O  O175  1  0.04574473  0.25543542  0.83060047  1
  O  O176  1  -0.07875705  0.87780209  0.30147815  1
  O  O177  1  -0.09322547  0.72834806  0.87172755  1
  O  O178  1  0.49809662  0.23044999  0.37133764  1
  O  O179  1  0.43063426  0.17986518  0.85223538  1
  O  O180  1  0.46180465  0.68569549  0.29401183  1
  O  O181  1  0.55042535  0.72926672  0.77018095  1
  O  O182  1  0.24516966  0.14853864  0.48976681  1
  O  O183  1  0.30652243  0.28048906  1.14291227  1
  O  O184  1  0.24457210  0.67928939  0.57389177  1
  O  O185  1  0.21656910  0.76357811  1.05409735  1
  O  O186  1  0.74905914  0.04871052  0.59923204  1
  O  O187  1  0.75470317  0.15382362  0.97965558  1
  O  O188  1  0.79984376  0.54784911  0.45174473  1
  O  O189  1  0.77424368  0.64825361  0.92788561  1
  O  O190  1  0.20716096  0.37288965  0.01470049  1
  O  O191  1  0.27075639  0.36973422  0.50600249  1
  O  O192  1  0.40473874  0.87010410  0.04686935  1
  O  O193  1  0.23341332  0.81123657  0.48203253  1
  O  O194  1  0.73733040  0.35400258  -0.02175293  1
  O  O195  1  0.74839821  0.28632242  0.52488321  1
  O  O196  1  0.77247637  0.85903077  -0.00720984  1
  O  O197  1  0.71430302  0.85074376  0.41976081  1
  O  O198  1  0.17082179  0.50986376  0.28600674  1
  O  O199  1  0.16282534  0.47536185  0.72824293  1
  O  O200  1  0.11386715  1.00550192  0.30480846  1
  O  O201  1  0.21975259  0.96441314  0.76431006  1
  O  O202  1  0.54598108  0.45620491  0.20778079  1
  O  O203  1  0.61147133  0.52048571  0.66225043  1
  O  O204  1  0.63874343  0.98263923  0.25294133  1
  O  O205  1  0.40798536  0.95555102  0.92389354  1
  O  O206  1  0.27650260  0.00649592  0.32564545  1
  O  O207  1  0.39336388  0.01422986  0.68951132  1
  O  O208  1  0.36955629  0.47784749  0.24388165  1
  O  O209  1  0.36914664  0.48828299  0.75566256  1
  O  O210  1  0.82926019  0.02555521  0.30138818  1
  O  O211  1  0.82968229  0.02868730  0.72851815  1
  O  O212  1  0.94365703  0.54644768  0.23997566  1
  O  O213  1  0.89838576  0.49497816  0.72997911  1
  O  O214  1  0.15150213  0.39318663  0.37841722  1
  O  O215  1  0.15136529  0.38459261  0.85133455  1
  O  O216  1  0.04440052  0.78140642  0.40133114  1
  O  O217  1  0.10064407  0.83656477  0.96336656  1
  O  O218  1  0.60323831  0.30206671  0.41280892  1
  O  O219  1  0.63942507  0.40743342  0.81779076  1
  O  O220  1  0.57850357  0.84845702  0.31032325  1
  O  O221  1  0.62182221  0.90077581  0.94685418  1
  O  O222  1  0.34566064  0.08697524  0.21254822  1
  O  O223  1  0.37069571  0.13515456  0.58383451  1
  O  O224  1  0.43805929  0.60951442  -0.00559721  1
  O  O225  1  0.40567002  0.57426367  0.63745642  1
  O  O226  1  0.81275386  0.13832907  0.17131683  1
  O  O227  1  0.95305518  0.08426215  0.64239526  1
  O  O228  1  0.81240198  0.59318386  0.14092607  1
  O  O229  1  0.83232220  0.59912154  0.62786986  1
  O  O230  1  0.34602204  0.32819469  0.11214533  1
  O  O231  1  0.26516905  0.25636769  0.60226978  1
  O  O232  1  0.26071051  0.81251179  0.06875215  1
  O  O233  1  0.29244537  0.81837511  0.62355620  1
  O  O234  1  0.71944071  0.24732033  0.07940646  1
  O  O235  1  0.73108751  0.25568812  0.70718666  1
  O  O236  1  0.72783767  0.74213944  0.11606435  1
  O  O237  1  0.80261366  0.75740299  0.61026037  1
  O  O238  1  0.25978339  0.27318859  0.39180317  1
  O  O239  1  0.20469130  0.30202552  1.03367239  1
  O  O240  1  0.16782166  0.67489728  0.42981670  1
  O  O241  1  0.20753103  0.72210135  0.82042159  1
  O  O242  1  0.71935738  0.22959050  0.35039767  1
  O  O243  1  0.77571006  0.25165421  0.88619353  1
  O  O244  1  0.82360354  0.73362403  0.42245338  1
  O  O245  1  0.74518311  0.75892658  0.82283165  1
  O  O246  1  -0.02713636  0.23035259  -0.03716870  1
  O  O247  1  0.04686519  0.07687097  0.52387195  1
  O  O248  1  -0.06156428  0.58449216  0.00243277  1
  O  O249  1  0.01213916  0.59684168  0.52784311  1
  O  O250  1  0.49636606  0.20286154  0.00822900  1
  O  O251  1  0.50821903  0.13597631  0.52131995  1
  O  O252  1  0.44959545  0.77812921  -0.07672622  1
  O  O253  1  0.52828798  0.56332779  0.54463271  1
  O  O254  1  0.48557317  0.34594495  0.49504823  1
  O  O255  1  0.49120190  0.38126663  0.98978394  1
  O  O256  1  0.38773352  0.85922550  0.37960962  1
  O  O257  1  0.53988913  0.98382705  1.00208246  1
  O  O258  1  1.02377683  0.37905983  0.48871258  1
  O  O259  1  1.01511745  0.41118074  0.96138990  1
  O  O260  1  1.05419606  0.91695886  0.49163588  1
  O  O261  1  0.96360563  0.88114635  1.04016873  1
  O  O262  1  0.54011295  0.42834117  0.37535667  1
  O  O263  1  0.58340510  0.37984724  0.84545854  1
  O  O264  1  0.48174808  0.97747325  0.28398856  1
  O  O265  1  0.57680961  0.96807333  0.94326066  1
  O  O266  1  1.02310505  0.49603969  0.41632103  1
  O  O267  1  0.93581868  0.50779433  0.88123154  1
  O  O268  1  0.98383088  1.02809723  0.38738708  1
  O  O269  1  1.05941586  1.06060271  0.95942770  1
  O  O270  1  -0.09343515  0.09950343  0.00494141  1
  O  O271  1  0.08234248  0.00933303  0.66569349  1
  O  O272  1  -0.02693007  0.46664476  0.09984629  1
  O  O273  1  0.04578918  0.47053871  0.61659159  1
  O  O274  1  0.45502146  0.07275860  0.10153858  1
  O  O275  1  0.55759455  0.03158164  0.62522289  1
  O  O276  1  0.50068005  0.57788286  -0.00295778  1
  O  O277  1  0.48901622  0.43833935  0.64007576  1
  O  O278  1  0.25658095  0.39929620  0.26408090  1
  O  O279  1  0.27194671  0.38357557  0.72815700  1
  O  O280  1  0.20004312  0.91563490  0.20812673  1
  O  O281  1  0.33651225  0.90980440  0.73811307  1
  O  O282  1  0.66838317  0.36194607  0.25039865  1
  O  O283  1  0.75654360  0.31139565  0.74258875  1
  O  O284  1  0.73094323  0.85008971  0.25549879  1
  O  O285  1  0.77794845  0.90805724  0.81954327  1
  O  O286  1  0.24329225  0.15786440  0.30564463  1
  O  O287  1  0.25407453  0.09530113  0.70660026  1
  O  O288  1  0.27796308  0.60148812  0.26404528  1
  O  O289  1  0.28105233  0.59558833  0.73370490  1
  O  O290  1  0.75084837  0.14935786  0.20247312  1
  O  O291  1  0.70589938  0.10242341  0.78526407  1
  O  O292  1  0.79145557  0.55717905  0.29465565  1
  O  O293  1  0.70037072  0.65192401  0.72269014  1
  O  O294  1  0.37405587  0.11202462  0.38319445  1
  O  O295  1  0.32461058  0.15445682  1.01876120  1
  O  O296  1  0.46025025  0.56057824  0.35748565  1
  O  O297  1  0.40516387  0.61809723  0.83349808  1
  O  O298  1  0.79144761  0.07287080  0.33599792  1
  O  O299  1  1.02976853  0.10001793  0.90078646  1
  O  O300  1  0.88511027  0.71126086  0.39952151  1
  O  O301  1  0.83539836  0.63287389  0.78560881  1
  O  O302  1  0.12371194  0.42917121  0.16823737  1
  O  O303  1  0.16356191  0.36827329  0.62749691  1
  O  O304  1  0.08942870  1.01657257  0.13438287  1
  O  O305  1  0.22981601  0.82147395  0.65699754  1
  O  O306  1  0.58713810  0.31990714  0.12592552  1
  O  O307  1  0.63127065  0.36147346  0.61816587  1
  O  O308  1  0.61392203  0.85319025  0.15344667  1
  O  O309  1  0.65703112  0.91885373  0.57189389  1
  O  O310  1  0.14537520  0.30069717  0.26122636  1
  O  O311  1  0.19174564  0.26475304  0.75532013  1
  O  O312  1  0.14184827  0.72980432  0.27838485  1
  O  O313  1  0.16011259  0.71382401  0.76030104  1
  O  O314  1  0.60067731  0.22298853  0.25812537  1
  O  O315  1  0.56052531  0.23280698  0.78396766  1
  O  O316  1  0.58129401  0.69477966  0.20941821  1
  O  O317  1  0.63770163  0.78453913  0.64796890  1
  O  O318  1  0.37952867  0.23974685  0.27623782  1
  O  O319  1  0.35635323  0.21881733  0.70848369  1
  O  O320  1  0.39256693  0.69387284  0.15680527  1
  O  O321  1  0.37958771  0.71076631  0.72167738  1
  O  O322  1  0.85598309  0.29343760  0.28420863  1
  O  O323  1  0.92147511  0.23015907  0.74507555  1
  O  O324  1  0.84030583  0.70385229  0.24117174  1
  O  O325  1  0.89490041  0.80236079  0.72935828  1
  O  O326  1  0.38554426  0.46553827  0.50546646  1
  O  O327  1  0.40034903  0.45252190  1.04743885  1
  O  O328  1  0.37817505  0.98769195  0.49847290  1
  O  O329  1  0.36468217  0.92009131  1.08263384  1
  O  O330  1  0.91863687  0.48328754  0.53541163  1
  O  O331  1  0.85918550  0.45184369  1.00427454  1
  O  O332  1  0.91318005  0.99826674  0.51923385  1
  O  O333  1  0.84584185  0.95807511  1.02643078  1
  O  O334  1  0.03915769  0.15343982  0.08188027  1
  O  O335  1  0.18808860  0.01810018  0.48803312  1
  O  O336  1  0.12774809  0.50848087  0.02005937  1
  O  O337  1  0.14632195  0.49990398  0.52265339  1
  O  O338  1  0.71018691  0.03202423  0.05886974  1
  O  O339  1  0.69826184  0.06277260  0.54300422  1
  O  O340  1  0.68559112  0.53462670  -0.00781580  1
  O  O341  1  0.63914461  0.47623013  0.50887724  1
  O  O342  1  0.46322468  0.41161223  0.05600015  1
  O  O343  1  0.36768264  0.35307185  0.60944780  1
  O  O344  1  0.37600147  0.92822174  0.15573057  1
  O  O345  1  0.41841930  0.94191074  0.53781447  1
  O  O346  1  0.82022377  0.40685107  0.15457038  1
  O  O347  1  0.86047593  0.29363960  0.59132583  1
  O  O348  1  0.84774269  0.84476828  0.12092617  1
  O  O349  1  0.86054442  0.90147670  0.61596229  1
  O  O350  1  0.11438213  0.14390851  0.40499578  1
  O  O351  1  0.20088380  0.13590887  0.88744823  1
  O  O352  1  0.03980394  0.63629527  0.33965707  1
  O  O353  1  0.17659401  0.72674463  0.88455318  1
  O  O354  1  0.61366034  0.11998653  0.37397446  1
  O  O355  1  0.37004618  0.00712417  0.95304888  1
  O  O356  1  0.65916850  0.56476961  0.39396299  1
  O  O357  1  0.65327185  0.62526872  0.85743420  1
