# generated using pymatgen
data_V51Zn51O256
_symmetry_space_group_name_H-M   'P 1'
_cell_length_a   18.02037120
_cell_length_b   17.73665279
_cell_length_c   17.77046294
_cell_angle_alpha   89.99728646
_cell_angle_beta   89.10677048
_cell_angle_gamma   89.46481205
_symmetry_Int_Tables_number   1
_chemical_formula_structural   V51Zn51O256
_chemical_formula_sum   'V51 Zn51 O256'
_cell_volume   5678.87634837
_cell_formula_units_Z   1
loop_
 _symmetry_equiv_pos_site_id
 _symmetry_equiv_pos_as_xyz
  1  'x, y, z'
loop_
 _atom_site_type_symbol
 _atom_site_label
 _atom_site_symmetry_multiplicity
 _atom_site_fract_x
 _atom_site_fract_y
 _atom_site_fract_z
 _atom_site_occupancy
  V  V0  1  0.31526997  0.13308273  0.88603297  1
  V  V1  1  0.28121191  0.27303674  -0.00297029  1
  V  V2  1  0.07754085  0.27234600  0.91275671  1
  V  V3  1  0.56272673  0.85144033  0.21416762  1
  V  V4  1  0.06496961  0.12899126  -0.00503390  1
  V  V5  1  0.66258069  0.60440505  0.06564454  1
  V  V6  1  0.61984512  0.26443272  0.73691408  1
  V  V7  1  0.78055686  0.47337287  0.21656277  1
  V  V8  1  -0.05291410  0.81542810  0.71317906  1
  V  V9  1  0.37247505  0.41389472  -0.01899791  1
  V  V10  1  0.49710065  0.53078858  0.03425117  1
  V  V11  1  0.05202410  0.77378314  0.28556150  1
  V  V12  1  0.43676639  0.82851109  0.39181968  1
  V  V13  1  0.00743666  0.64136996  0.63451542  1
  V  V14  1  0.95404569  0.73213895  0.07872330  1
  V  V15  1  0.90181463  0.56665334  0.86601644  1
  V  V16  1  0.25492254  0.50109529  0.27811823  1
  V  V17  1  0.09143180  0.38658420  0.25867774  1
  V  V18  1  0.90996444  0.14476784  0.29823632  1
  V  V19  1  -0.06409614  0.12613933  0.58873192  1
  V  V20  1  0.46255800  0.30307938  0.66003978  1
  V  V21  1  0.94375483  0.64805946  0.30865558  1
  V  V22  1  0.88499882  0.14961967  0.81419881  1
  V  V23  1  0.06803677  0.04893505  0.68487047  1
  V  V24  1  0.84004720  -0.02257717  0.39146152  1
  V  V25  1  0.59055100  0.38040473  0.88374243  1
  V  V26  1  0.24613574  0.35332572  0.15700052  1
  V  V27  1  0.50294110  0.51970569  0.43263369  1
  V  V28  1  0.28872689  0.00981788  0.22930675  1
  V  V29  1  0.21860177  0.44359466  0.76843991  1
  V  V30  1  0.89388559  0.38306418  -0.00022667  1
  V  V31  1  0.60146919  0.01946406  0.16142689  1
  V  V32  1  0.57030892  0.12800686  0.41881517  1
  V  V33  1  0.14415739  0.51694140  0.13696351  1
  V  V34  1  0.84001923  -0.07613731  0.91482548  1
  V  V35  1  0.61695683  0.71730265  0.76761338  1
  V  V36  1  0.26782360  0.89555329  0.09568158  1
  V  V37  1  0.50583802  0.04577813  0.02732499  1
  V  V38  1  0.61366265  0.73717995  0.32324393  1
  V  V39  1  0.09316792  0.35280847  0.73843947  1
  V  V40  1  0.51079347  0.88558436  0.90993354  1
  V  V41  1  0.21654569  0.17865998  0.47546628  1
  V  V42  1  0.33697333  0.42204296  0.43043724  1
  V  V43  1  0.09204921  0.01121721  0.13246777  1
  V  V44  1  0.77644303  -0.02242171  0.22996855  1
  V  V45  1  0.78935510  0.80758769  0.12756177  1
  V  V46  1  0.77954924  0.48923262  0.76563391  1
  V  V47  1  0.51256482  0.56350935  0.61127486  1
  V  V48  1  0.40136056  0.26660362  0.16143737  1
  V  V49  1  0.83333180  0.67103553  0.73770267  1
  V  V50  1  -0.01697150  -0.05043856  -0.00078094  1
  Zn  Zn51  1  0.69224460  0.14630737  0.26102866  1
  Zn  Zn52  1  0.11183911  0.83042975  0.06844536  1
  Zn  Zn53  1  0.36477030  0.49984703  0.14505033  1
  Zn  Zn54  1  0.48746782  0.25392825  0.00988336  1
  Zn  Zn55  1  0.52021019  0.71076025  0.48795404  1
  Zn  Zn56  1  0.26390994  0.57211002  0.01925150  1
  Zn  Zn57  1  0.26316644  0.86317891  0.30549602  1
  Zn  Zn58  1  0.68380317  0.58339871  0.66186397  1
  Zn  Zn59  1  0.08477634  0.89130180  0.60285629  1
  Zn  Zn60  1  0.34947767  0.95629130  0.95195139  1
  Zn  Zn61  1  0.18372266  0.43171146  0.95566460  1
  Zn  Zn62  1  0.85743788  0.56110182  0.06055007  1
  Zn  Zn63  1  0.47469816  0.24251322  0.83690494  1
  Zn  Zn64  1  0.75907031  0.65083494  0.23269392  1
  Zn  Zn65  1  0.31564317  0.27083818  0.32456371  1
  Zn  Zn66  1  0.42506606  0.93762513  0.15194142  1
  Zn  Zn67  1  0.20362325  0.71612638  0.16374180  1
  Zn  Zn68  1  0.63364477  0.55795373  0.30043403  1
  Zn  Zn69  1  0.40518159  0.15249995  0.53963873  1
  Zn  Zn70  1  0.57933906  0.86655516  0.72619812  1
  Zn  Zn71  1  0.99647435  0.07590105  0.40601202  1
  Zn  Zn72  1  0.00456105  -0.09099060  0.36379359  1
  Zn  Zn73  1  0.14865029  0.16978447  0.79443621  1
  Zn  Zn74  1  0.59145454  0.91827941  0.39621640  1
  Zn  Zn75  1  0.46568146  0.65412114  0.31707058  1
  Zn  Zn76  1  0.74429079  0.48162153  0.95347027  1
  Zn  Zn77  1  0.95823681  0.48403066  0.72035118  1
  Zn  Zn78  1  0.91811823  0.76140035  0.88491630  1
  Zn  Zn79  1  0.76482508  0.83741510  0.79132986  1
  Zn  Zn80  1  0.90619468  0.21246799  0.97270995  1
  Zn  Zn81  1  0.84505497  0.98593629  0.72814963  1
  Zn  Zn82  1  0.32998857  0.09712102  0.07203840  1
  Zn  Zn83  1  0.55283527  0.68574930  0.93765885  1
  Zn  Zn84  1  0.14738786  1.02438124  0.33191648  1
  Zn  Zn85  1  0.70390939  0.95489359  1.04671259  1
  Zn  Zn86  1  0.01455400  0.02353303  0.85250408  1
  Zn  Zn87  1  0.79992180  0.19166195  0.69201422  1
  Zn  Zn88  1  0.58596518  0.54001824  0.79844186  1
  Zn  Zn89  1  0.80275228  0.29873679  0.28001205  1
  Zn  Zn90  1  0.85000361  0.54961385  0.61396665  1
  Zn  Zn91  1  0.10233396  0.57507659  0.31541065  1
  Zn  Zn92  1  0.08336840  0.56115241  0.78331768  1
  Zn  Zn93  1  0.47136282  -0.00555585  0.30616995  1
  Zn  Zn94  1  0.35438025  0.46259999  0.62506915  1
  Zn  Zn95  1  1.03049892  0.70675667  0.44370826  1
  Zn  Zn96  1  0.62413165  0.79931255  0.04281823  1
  Zn  Zn97  1  0.09212697  0.21665788  0.61022795  1
  Zn  Zn98  1  0.94501567  0.89862479  0.17779857  1
  Zn  Zn99  1  0.96038431  0.49930858  0.20091144  1
  Zn  Zn100  1  0.08093548  0.31099589  0.08903470  1
  Zn  Zn101  1  0.90451555  0.34007527  0.80626089  1
  O  O102  1  0.11415543  0.09451014  0.07551345  1
  O  O103  1  0.11536842  0.13791233  0.69147690  1
  O  O104  1  0.16700065  0.60774527  0.15736343  1
  O  O105  1  0.07981583  0.62487528  0.69391306  1
  O  O106  1  0.61356866  0.10682070  0.19616492  1
  O  O107  1  0.60830153  0.13860476  0.50685203  1
  O  O108  1  0.66879033  0.61115230  0.15855118  1
  O  O109  1  0.68979323  0.57348134  0.51927526  1
  O  O110  1  0.34915938  0.32890575  0.41335986  1
  O  O111  1  0.36955711  0.43490442  0.89321467  1
  O  O112  1  0.34496209  0.83671600  0.37032893  1
  O  O113  1  0.41668320  0.87852357  0.91356842  1
  O  O114  1  0.73636826  0.30826737  0.41820011  1
  O  O115  1  0.90756468  0.39156704  0.90412734  1
  O  O116  1  0.77834453  0.85978602  0.54320903  1
  O  O117  1  0.83116974  0.82696206  0.91331206  1
  O  O118  1  0.24194968  -0.02495037  0.31992799  1
  O  O119  1  0.32036315  0.03743471  0.88513418  1
  O  O120  1  0.26440537  0.45028974  0.36610386  1
  O  O121  1  0.22100451  0.47410372  0.86060706  1
  O  O122  1  0.76970606  -0.05669840  0.32533517  1
  O  O123  1  0.76953758  -0.03053807  0.96297108  1
  O  O124  1  0.73424986  0.54357141  0.27676076  1
  O  O125  1  0.81115695  0.51938031  0.86884391  1
  O  O126  1  0.24720945  0.46182838  0.16926499  1
  O  O127  1  0.21303214  0.62957140  0.60455368  1
  O  O128  1  0.28555058  1.01041859  0.12294336  1
  O  O129  1  0.27911883  0.93949055  0.56134498  1
  O  O130  1  0.85869444  0.51320061  0.16498806  1
  O  O131  1  0.75741341  0.50624078  0.66421249  1
  O  O132  1  0.70079781  0.98133807  0.15898601  1
  O  O133  1  0.69441034  0.95771490  0.65269403  1
  O  O134  1  0.00000629  0.40340212  0.24564393  1
  O  O135  1  -0.00488377  0.38133195  0.74586813  1
  O  O136  1  0.01257382  0.86801506  0.25516966  1
  O  O137  1  -0.09344571  0.90253966  0.69557868  1
  O  O138  1  0.56264746  0.32731904  0.26268116  1
  O  O139  1  0.63451800  0.34224893  0.79996064  1
  O  O140  1  0.46802038  0.85635589  0.21469282  1
  O  O141  1  0.53736561  0.90365856  0.81926631  1
  O  O142  1  0.35888431  0.06763102  0.37790909  1
  O  O143  1  0.56960695  0.20188513  0.78765574  1
  O  O144  1  0.35170291  0.73025659  0.25303001  1
  O  O145  1  0.57583277  0.54335664  0.68462516  1
  O  O146  1  0.99268781  0.16526616  0.34366159  1
  O  O147  1  0.97484440  0.11939164  0.81527317  1
  O  O148  1  1.06893639  0.67634088  0.33910863  1
  O  O149  1  0.94587347  0.70477761  0.68114918  1
  O  O150  1  0.38144812  0.30244167  -0.01584551  1
  O  O151  1  0.31362540  0.17136778  0.48707158  1
  O  O152  1  0.35133345  0.69565379  0.06687598  1
  O  O153  1  0.31582452  0.70353373  0.51619825  1
  O  O154  1  0.85783942  0.29575574  0.01925222  1
  O  O155  1  0.76329866  0.26983832  0.46873298  1
  O  O156  1  0.94898454  0.73893759  -0.01581788  1
  O  O157  1  0.77088717  0.72771151  0.45570713  1
  O  O158  1  0.11801505  0.19530288  0.49389143  1
  O  O159  1  0.08950239  0.23738408  1.01192045  1
  O  O160  1  0.13639357  0.83196776  0.52292560  1
  O  O161  1  0.12957760  0.71155158  0.93679466  1
  O  O162  1  0.55904011  0.22032774  0.38791166  1
  O  O163  1  0.75823367  0.16193336  1.06406564  1
  O  O164  1  0.60459476  0.72698715  0.42053019  1
  O  O165  1  0.62615998  0.68931667  1.02465904  1
  O  O166  1  0.48668452  0.27771271  0.11801636  1
  O  O167  1  0.56604967  0.29572652  0.65980489  1
  O  O168  1  0.40120396  0.71187793  0.11144633  1
  O  O169  1  0.52582920  0.65285532  0.57932018  1
  O  O170  1  1.05342915  0.24365854  0.18473636  1
  O  O171  1  0.98846273  0.20527369  0.59457553  1
  O  O172  1  1.04567183  0.75061114  0.10127376  1
  O  O173  1  1.02865399  0.82278465  0.65798099  1
  O  O174  1  -0.02406081  0.32949308  0.44590608  1
  O  O175  1  -0.01573450  0.26803264  0.90616705  1
  O  O176  1  0.04283209  0.80507002  0.38343359  1
  O  O177  1  -0.02477183  0.81120035  0.80401637  1
  O  O178  1  0.35989195  0.13043304  0.34590050  1
  O  O179  1  0.53177609  0.30361349  0.91835636  1
  O  O180  1  0.48099724  0.76292641  0.33424014  1
  O  O181  1  0.53876010  0.76452804  0.74047329  1
  O  O182  1  0.19348967  0.10901765  0.40751085  1
  O  O183  1  0.29647707  0.16381292  0.98590689  1
  O  O184  1  0.26735546  0.75186872  0.51121181  1
  O  O185  1  0.28467044  0.64775621  0.93886831  1
  O  O186  1  0.65752528  0.14189334  0.36659407  1
  O  O187  1  0.66359199  0.13458441  0.95036163  1
  O  O188  1  0.78470761  0.66180242  0.44114605  1
  O  O189  1  0.74706886  0.57677504  1.02300962  1
  O  O190  1  0.27255170  0.38383078  0.00481376  1
  O  O191  1  0.21564866  0.25978083  0.53590674  1
  O  O192  1  0.25889041  0.92650380  0.00328163  1
  O  O193  1  0.35667935  0.81511386  0.62397289  1
  O  O194  1  0.82451977  0.44993856  0.02057689  1
  O  O195  1  0.87817920  0.42360859  0.53239174  1
  O  O196  1  0.72781635  0.84113512  0.05509944  1
  O  O197  1  0.61353583  0.87107295  0.49799764  1
  O  O198  1  0.13940595  0.48419629  0.25217966  1
  O  O199  1  0.12062145  0.46014078  0.74041525  1
  O  O200  1  0.10350901  1.02856807  0.22461069  1
  O  O201  1  0.07680017  1.00010527  0.76683380  1
  O  O202  1  0.71880218  0.44087160  0.15894779  1
  O  O203  1  0.68950912  0.50011814  0.79750850  1
  O  O204  1  0.56861521  0.96523435  0.24191057  1
  O  O205  1  0.60797051  1.05418184  0.73677451  1
  O  O206  1  0.38735775  -0.00149653  0.24185252  1
  O  O207  1  0.31961204  -0.02537469  0.71530818  1
  O  O208  1  0.34697084  0.51256240  0.25254609  1
  O  O209  1  0.28350713  0.47785060  0.70610341  1
  O  O210  1  0.86359002  -0.03161984  0.19416212  1
  O  O211  1  0.80669974  -0.06435317  0.81923580  1
  O  O212  1  0.99130675  0.56105824  0.28743181  1
  O  O213  1  0.86397768  0.55433781  0.74732458  1
  O  O214  1  0.10819648  0.36907658  0.34667503  1
  O  O215  1  0.10181114  0.36476967  0.92923487  1
  O  O216  1  0.16819389  0.86952582  0.46141787  1
  O  O217  1  0.19623655  0.84318987  0.86929322  1
  O  O218  1  0.61166499  0.35593907  0.30006978  1
  O  O219  1  0.65969885  0.41517191  0.93835706  1
  O  O220  1  0.61082836  0.84553490  0.31563018  1
  O  O221  1  0.64836586  1.05505048  0.79146161  1
  O  O222  1  0.36274288  0.18751149  0.12457327  1
  O  O223  1  0.42998479  0.23012322  0.60596544  1
  O  O224  1  0.28780604  0.65136257  0.10045141  1
  O  O225  1  0.42289017  0.55152930  0.63634147  1
  O  O226  1  0.92625045  0.14301790  0.20690342  1
  O  O227  1  0.84421948  0.15083626  0.60448175  1
  O  O228  1  0.92120324  0.64487941  0.10162061  1
  O  O229  1  0.80984049  0.64925948  0.64464323  1
  O  O230  1  0.23238490  0.27564003  0.08926095  1
  O  O231  1  0.21821341  0.10410385  0.54144426  1
  O  O232  1  0.21555564  0.80481768  0.09220558  1
  O  O233  1  0.39483562  0.86551180  0.64921238  1
  O  O234  1  0.80096087  0.16053102  0.11701983  1
  O  O235  1  0.68763741  0.32463031  0.55332162  1
  O  O236  1  0.77160549  0.71539040  0.14186537  1
  O  O237  1  0.55493708  0.86070204  0.61059157  1
  O  O238  1  0.23259067  0.23217807  0.39082445  1
  O  O239  1  0.22525804  0.27439845  0.92480931  1
  O  O240  1  0.18815558  0.82412022  0.40791486  1
  O  O241  1  0.30839348  0.66817644  0.81713997  1
  O  O242  1  0.71520119  0.24956896  0.23405636  1
  O  O243  1  0.69745321  0.25428905  0.95349537  1
  O  O244  1  0.70324604  0.71384316  0.30623649  1
  O  O245  1  0.67103505  0.79062777  0.80333009  1
  O  O246  1  -0.02421347  0.14598091  0.02127252  1
  O  O247  1  -0.04742612  0.08570885  0.50382996  1
  O  O248  1  0.12590543  0.68402038  -0.12830639  1
  O  O249  1  0.03680403  0.67320620  0.54773060  1
  O  O250  1  0.51054473  0.14019063  0.00975808  1
  O  O251  1  0.48351092  0.12828879  0.46840823  1
  O  O252  1  0.48396250  0.60578792  -0.02657009  1
  O  O253  1  0.47419662  0.61247362  0.42384428  1
  O  O254  1  0.53178538  0.50474814  0.52701734  1
  O  O255  1  0.47237080  0.43731264  1.00633188  1
  O  O256  1  0.44792102  0.79286403  0.48193449  1
  O  O257  1  0.55339086  0.80174168  0.95076193  1
  O  O258  1  0.91985840  0.29284208  0.45788477  1
  O  O259  1  0.99868331  0.37847352  1.03985067  1
  O  O260  1  0.74676228  0.81373185  0.58323188  1
  O  O261  1  1.04005570  0.87400884  0.99271588  1
  O  O262  1  0.42730716  0.46199506  0.40978116  1
  O  O263  1  0.54045901  0.45563339  0.85204407  1
  O  O264  1  0.47982675  0.91993130  0.38627248  1
  O  O265  1  0.53078551  0.97066676  0.95843647  1
  O  O266  1  1.10324695  0.53539347  0.43141508  1
  O  O267  1  0.98536196  0.52854424  0.82259863  1
  O  O268  1  0.90598353  0.90977479  0.41079690  1
  O  O269  1  0.93707318  0.96067255  0.89823246  1
  O  O270  1  0.00079667  -0.02364284  0.10461105  1
  O  O271  1  -0.02719818  0.06104956  0.66197398  1
  O  O272  1  0.05103453  0.51556862  0.13360765  1
  O  O273  1  -0.03823051  0.55094791  0.62985100  1
  O  O274  1  0.49791815  0.02255984  0.12811979  1
  O  O275  1  0.47319866  0.00235281  0.67345457  1
  O  O276  1  0.46238495  0.54789751  0.12235001  1
  O  O277  1  0.70322145  0.51123529  0.49023396  1
  O  O278  1  0.24540315  0.31766105  0.24509912  1
  O  O279  1  0.20465296  0.34878439  0.76027544  1
  O  O280  1  0.25747986  0.90638793  0.20252046  1
  O  O281  1  0.25303307  0.96554045  0.72629832  1
  O  O282  1  0.81345958  0.40074603  0.27356042  1
  O  O283  1  0.81743313  0.40131280  0.76536284  1
  O  O284  1  0.76588533  0.85526279  0.20533982  1
  O  O285  1  0.68532972  0.90069577  0.70737862  1
  O  O286  1  0.25953279  0.09804829  0.23842666  1
  O  O287  1  0.24946865  0.15667471  0.82068918  1
  O  O288  1  0.22458932  0.58677407  0.30251298  1
  O  O289  1  0.22624651  0.67716950  0.65224305  1
  O  O290  1  0.76957502  0.07255716  0.25120631  1
  O  O291  1  0.83046968  0.09075673  0.75674815  1
  O  O292  1  0.85672933  0.63837750  0.27647229  1
  O  O293  1  0.75604785  0.65780097  0.78632149  1
  O  O294  1  0.38803590  0.05951877  0.59860164  1
  O  O295  1  0.40073987  0.17131802  0.86659258  1
  O  O296  1  0.36565911  0.65773944  0.27236171  1
  O  O297  1  0.29398945  0.61909556  0.86635555  1
  O  O298  1  0.89296222  0.05182491  0.34704690  1
  O  O299  1  0.85072441  0.15114840  0.90477695  1
  O  O300  1  0.93431822  0.66878016  0.40326983  1
  O  O301  1  0.89719378  0.66288124  0.83541413  1
  O  O302  1  0.13831830  0.37633731  0.15156448  1
  O  O303  1  0.10431579  0.31690660  0.65142141  1
  O  O304  1  0.14547979  0.93719111  0.10309645  1
  O  O305  1  0.10702142  0.99414012  0.61377288  1
  O  O306  1  0.64187829  0.25051841  0.12351464  1
  O  O307  1  0.65549460  0.35996456  0.50409859  1
  O  O308  1  0.58897622  0.87147871  0.11992375  1
  O  O309  1  0.58373876  0.90708336  0.55899830  1
  O  O310  1  0.08218715  0.26842021  0.24540683  1
  O  O311  1  0.09392556  0.27268636  0.80216283  1
  O  O312  1  0.13555577  0.77066756  0.23782785  1
  O  O313  1  0.16412657  0.82803981  0.81109437  1
  O  O314  1  0.68904834  0.28702213  0.15680460  1
  O  O315  1  0.70228753  0.22565342  0.70686222  1
  O  O316  1  0.58498472  0.75676620  0.21461555  1
  O  O317  1  0.65159439  0.68211801  0.68399570  1
  O  O318  1  0.40063837  0.25923474  0.25861867  1
  O  O319  1  0.43492150  0.29712299  0.75211855  1
  O  O320  1  0.27859629  0.74740279  0.25435717  1
  O  O321  1  0.28106523  0.78997261  0.74010429  1
  O  O322  1  0.84301164  0.21409592  0.32286858  1
  O  O323  1  0.87380367  0.23963441  0.76991452  1
  O  O324  1  0.97415830  0.72538319  0.24651703  1
  O  O325  1  0.84069271  0.77513389  0.73932750  1
  O  O326  1  0.31530048  0.44152527  0.52129449  1
  O  O327  1  0.34843723  0.50290153  1.03439409  1
  O  O328  1  0.45042715  1.01184593  0.60717146  1
  O  O329  1  0.40872995  1.02882381  1.01902104  1
  O  O330  1  0.85781964  0.49519505  0.51359216  1
  O  O331  1  0.91580790  0.56976368  0.95880749  1
  O  O332  1  0.79583807  1.00198170  0.46885548  1
  O  O333  1  0.89474562  0.92240413  1.02085117  1
  O  O334  1  0.04581570  0.03150425  -0.04045095  1
  O  O335  1  0.32263179  -0.06806045  0.50791189  1
  O  O336  1  0.17588596  0.50930603  0.03848760  1
  O  O337  1  0.16460892  0.53783618  0.47402672  1
  O  O338  1  0.61405931  0.02487927  0.05706342  1
  O  O339  1  0.59812629  0.02570780  0.42218915  1
  O  O340  1  0.59711017  0.53184511  0.04357297  1
  O  O341  1  0.57475514  0.50022230  0.37232187  1
  O  O342  1  0.34825901  0.35585348  0.14117717  1
  O  O343  1  0.43243594  0.38695613  0.62415306  1
  O  O344  1  0.36092127  0.87266028  0.09443499  1
  O  O345  1  0.32606233  0.81366382  0.78509423  1
  O  O346  1  0.94698409  0.41464619  0.08787379  1
  O  O347  1  0.88007671  0.40981466  0.60405101  1
  O  O348  1  0.89390875  0.81090581  0.12133323  1
  O  O349  1  0.76036540  0.98581125  0.64462938  1
  O  O350  1  0.06410406  -0.00500953  0.39077908  1
  O  O351  1  0.10113173  0.16069813  0.90166295  1
  O  O352  1  0.21101480  0.58983550  0.46120519  1
  O  O353  1  0.13757626  0.60493503  0.86804946  1
  O  O354  1  0.51825340  0.08579396  0.34323703  1
  O  O355  1  0.69907919  0.18937884  0.92051222  1
  O  O356  1  0.57001457  0.64316347  0.29558396  1
  O  O357  1  0.58666635  0.64622343  0.83670695  1
