# generated using pymatgen
data_V51Zn51O256
_symmetry_space_group_name_H-M   'P 1'
_cell_length_a   17.75920997
_cell_length_b   17.72384558
_cell_length_c   17.38875664
_cell_angle_alpha   89.56788664
_cell_angle_beta   88.35445415
_cell_angle_gamma   90.56138437
_symmetry_Int_Tables_number   1
_chemical_formula_structural   V51Zn51O256
_chemical_formula_sum   'V51 Zn51 O256'
_cell_volume   5470.62368965
_cell_formula_units_Z   1
loop_
 _symmetry_equiv_pos_site_id
 _symmetry_equiv_pos_as_xyz
  1  'x, y, z'
loop_
 _atom_site_type_symbol
 _atom_site_label
 _atom_site_symmetry_multiplicity
 _atom_site_fract_x
 _atom_site_fract_y
 _atom_site_fract_z
 _atom_site_occupancy
  V  V0  1  0.36590188  0.91451663  0.02743699  1
  V  V1  1  0.83709197  0.43872520  0.49330032  1
  V  V2  1  0.72854439  0.26071447  -0.05229792  1
  V  V3  1  0.49672956  0.78915525  0.24975902  1
  V  V4  1  0.43662269  0.62312931  0.29052734  1
  V  V5  1  0.86636182  -0.06243669  0.86284574  1
  V  V6  1  0.61869892  0.61170633  0.54781499  1
  V  V7  1  0.25286456  0.33377830  0.61111767  1
  V  V8  1  -0.01690001  0.00224238  0.43499370  1
  V  V9  1  0.37666674  0.73736642  0.12458291  1
  V  V10  1  0.52785934  0.89011364  0.39766020  1
  V  V11  1  0.21977588  0.74280809  0.48081514  1
  V  V12  1  0.85112516  0.83202759  0.47576812  1
  V  V13  1  0.76240963  0.47790568  0.75966462  1
  V  V14  1  0.36897332  0.14251362  0.23761155  1
  V  V15  1  0.54377276  0.00450577  0.01760439  1
  V  V16  1  -0.01015286  0.43002292  -0.01266649  1
  V  V17  1  0.36404353  0.93305832  0.49561424  1
  V  V18  1  0.43924226  0.49713492  -0.02409787  1
  V  V19  1  0.72436223  0.84959846  0.11848487  1
  V  V20  1  0.46812403  0.51963221  0.56332531  1
  V  V21  1  0.01855806  0.73699689  0.26845237  1
  V  V22  1  0.23580174  0.24068101  -0.01320696  1
  V  V23  1  0.87275321  0.95434684  0.06767684  1
  V  V24  1  0.69561612  0.74536237  0.47153114  1
  V  V25  1  0.36934109  0.26133381  0.11018253  1
  V  V26  1  0.23913819  0.51375589  0.75204795  1
  V  V27  1  0.80347920  0.72475457  -0.01073176  1
  V  V28  1  0.46125515  0.34887702  0.84687571  1
  V  V29  1  0.01672547  0.94334720  0.95571727  1
  V  V30  1  0.74136167  0.88131930  0.64446309  1
  V  V31  1  -0.01826452  0.22231034  0.71832822  1
  V  V32  1  0.56372201  0.64998250  -0.02748012  1
  V  V33  1  0.78750295  0.65209744  0.32387647  1
  V  V34  1  -0.04500107  0.10869336  0.59352755  1
  V  V35  1  0.40006926  0.77447541  0.61061608  1
  V  V36  1  0.16758743  0.32514469  0.28205683  1
  V  V37  1  0.64496929  0.03531737  0.16783579  1
  V  V38  1  0.15576469  0.11559809  0.48598050  1
  V  V39  1  0.10739859  0.36926638  0.73052208  1
  V  V40  1  0.82749477  0.01801364  0.37926862  1
  V  V41  1  0.07495688  -0.01772942  0.61964134  1
  V  V42  1  0.25411234  0.39615637  0.12472640  1
  V  V43  1  0.23826682  0.52996747  0.28045209  1
  V  V44  1  0.62795773  0.52054836  0.06870979  1
  V  V45  1  0.14200580  0.49165383  0.59679763  1
  V  V46  1  0.06033224  0.63267875  0.11931880  1
  V  V47  1  0.76882670  0.03780364  0.76932445  1
  V  V48  1  0.03761256  0.35896923  0.41183471  1
  V  V49  1  0.34585330  -0.00085234  0.86689297  1
  V  V50  1  0.00528727  0.25469028  0.25876076  1
  Zn  Zn51  1  0.81854890  0.30776264  0.77020184  1
  Zn  Zn52  1  0.18019530  0.46048573  0.94321270  1
  Zn  Zn53  1  0.63831279  -0.00061318  0.35733491  1
  Zn  Zn54  1  0.53600873  0.82003560  0.05250268  1
  Zn  Zn55  1  0.73314034  0.70435679  0.65059687  1
  Zn  Zn56  1  0.67873676  0.80350094  0.29557437  1
  Zn  Zn57  1  0.29273804  0.05819958  0.57965136  1
  Zn  Zn58  1  0.26006362  0.35263709  0.81742269  1
  Zn  Zn59  1  0.37713453  0.78901427  0.40281417  1
  Zn  Zn60  1  0.21179688  0.89330095  0.56974285  1
  Zn  Zn61  1  0.66109564  0.47495533  0.45105694  1
  Zn  Zn62  1  0.20575852  0.71313497  0.21881961  1
  Zn  Zn63  1  0.31423646  0.10642684  0.03846921  1
  Zn  Zn64  1  0.88180551  0.36005470  0.31400710  1
  Zn  Zn65  1  0.08834722  0.31451784  0.09498748  1
  Zn  Zn66  1  0.37036394  0.34501602  0.27295246  1
  Zn  Zn67  1  0.50797075  0.44058704  0.37833612  1
  Zn  Zn68  1  0.95111792  0.17082469  0.40282535  1
  Zn  Zn69  1  0.21074310  0.42924625  0.43778311  1
  Zn  Zn70  1  0.78607795  0.81470194  0.81476639  1
  Zn  Zn71  1  0.08144375  0.26525627  0.56842640  1
  Zn  Zn72  1  0.55759121  0.44299195  0.72737275  1
  Zn  Zn73  1  0.61046231  0.53836705  0.26505455  1
  Zn  Zn74  1  0.05053588  0.83428858  0.49889325  1
  Zn  Zn75  1  0.62484269  0.43781981  0.91186936  1
  Zn  Zn76  1  -0.05245680  0.44520417  0.80034100  1
  Zn  Zn77  1  0.36467122  0.53930199  0.14873963  1
  Zn  Zn78  1  1.00006937  0.75132880  0.99024806  1
  Zn  Zn79  1  0.08838384  0.08231647  0.30511213  1
  Zn  Zn80  1  0.63202471  0.08111488  0.91220860  1
  Zn  Zn81  1  0.58324353  0.82421465  0.58643238  1
  Zn  Zn82  1  0.29410375  0.61177457  0.58419290  1
  Zn  Zn83  1  0.82304178  0.62448022  0.51279865  1
  Zn  Zn84  1  0.91323701  0.30717869  0.12838686  1
  Zn  Zn85  1  0.33328343  0.69064892  0.75814816  1
  Zn  Zn86  1  0.32686782  0.91498941  0.68714960  1
  Zn  Zn87  1  0.97918060  0.41819086  0.60536170  1
  Zn  Zn88  1  0.86159826  0.86776271  0.26000326  1
  Zn  Zn89  1  0.37124636  0.40014332  0.46111675  1
  Zn  Zn90  1  0.40098999  0.39851047  0.69756385  1
  Zn  Zn91  1  0.02455711  0.05305936  0.78756385  1
  Zn  Zn92  1  0.43442931  0.17185473  0.92834536  1
  Zn  Zn93  1  0.45966399  0.96914517  0.18843461  1
  Zn  Zn94  1  0.20068705  0.93418625  -0.02874351  1
  Zn  Zn95  1  0.49132908  0.69177527  0.45670645  1
  Zn  Zn96  1  0.40118915  0.83127994  0.82544161  1
  Zn  Zn97  1  0.16476546  1.08257402  0.90728116  1
  Zn  Zn98  1  0.04327622  0.52491410  0.31234444  1
  Zn  Zn99  1  0.79440084  0.13968954  0.08941315  1
  Zn  Zn100  1  0.82056181  0.53016418  0.03337251  1
  Zn  Zn101  1  0.38999742  0.68725806  0.94897128  1
  O  O102  1  -0.01098281  0.12755962  0.07929174  1
  O  O103  1  0.12277626  0.05915148  0.57162405  1
  O  O104  1  0.15034786  0.65350091  0.13859111  1
  O  O105  1  0.10807793  0.67774797  0.68630780  1
  O  O106  1  0.69478138  0.10933052  0.12468277  1
  O  O107  1  0.66224838  0.12845177  0.60484753  1
  O  O108  1  0.61259226  0.61975008  0.05882946  1
  O  O109  1  0.63763058  0.63520172  0.63985842  1
  O  O110  1  0.41886653  0.38417081  0.36060753  1
  O  O111  1  0.36967460  0.35816120  0.81692377  1
  O  O112  1  0.41238228  0.89911356  0.41241969  1
  O  O113  1  0.37837592  0.90810381  0.90672117  1
  O  O114  1  0.84707054  0.40411192  0.40035411  1
  O  O115  1  0.83728747  0.40621693  0.82170673  1
  O  O116  1  0.84114759  0.84111400  0.38010093  1
  O  O117  1  0.89080168  0.91903795  0.96108601  1
  O  O118  1  0.29808195  -0.04918309  0.28479334  1
  O  O119  1  0.24812377  0.00395765  0.88991970  1
  O  O120  1  0.27044366  0.49278336  0.36466258  1
  O  O121  1  0.22986889  0.46127406  0.84600560  1
  O  O122  1  0.73370395  0.00927446  0.40442423  1
  O  O123  1  0.77070717  -0.07968160  0.86289391  1
  O  O124  1  0.77134706  0.54588010  0.30364866  1
  O  O125  1  0.72085985  0.46119685  0.86516434  1
  O  O126  1  0.26517130  0.48592226  0.18098344  1
  O  O127  1  0.21315293  0.55309235  0.64061903  1
  O  O128  1  0.14930323  1.08035609  0.20644422  1
  O  O129  1  0.25330453  0.97162108  0.63524641  1
  O  O130  1  0.71629422  0.49456292  0.03726421  1
  O  O131  1  0.75060334  0.51645619  0.66926994  1
  O  O132  1  0.69708469  0.95759179  0.16614103  1
  O  O133  1  0.77034098  0.95893508  0.69735126  1
  O  O134  1  0.05546218  0.33946101  0.27943334  1
  O  O135  1  0.00605575  0.40265147  0.71627998  1
  O  O136  1  -0.03667435  0.81390784  0.27402946  1
  O  O137  1  0.03647219  0.84775920  0.95818033  1
  O  O138  1  0.57280491  0.35706680  0.30760144  1
  O  O139  1  0.49424731  0.35294485  0.74207775  1
  O  O140  1  0.48792347  0.88692081  0.25375947  1
  O  O141  1  0.51513610  0.85616102  0.79551034  1
  O  O142  1  0.51173045  0.16231469  0.31082625  1
  O  O143  1  0.52632522  0.19580090  0.70121831  1
  O  O144  1  0.52683955  0.60834975  0.25957343  1
  O  O145  1  0.52616027  0.65466973  0.76269934  1
  O  O146  1  1.01930081  0.16844937  0.30648601  1
  O  O147  1  0.97614279  0.11679841  0.70301387  1
  O  O148  1  1.00028924  0.63087992  0.31019522  1
  O  O149  1  1.05472317  0.64255933  0.71529799  1
  O  O150  1  0.35314670  0.20754558  0.00095455  1
  O  O151  1  0.52600721  0.23387271  0.46501589  1
  O  O152  1  0.38011920  0.77231870  0.02796852  1
  O  O153  1  0.40754733  0.74970824  0.51142184  1
  O  O154  1  0.81123275  0.31361276  -0.04726016  1
  O  O155  1  0.79309887  0.24677025  0.56710521  1
  O  O156  1  0.89461624  0.75580047  -0.00571599  1
  O  O157  1  0.80296387  0.74276729  0.49379330  1
  O  O158  1  0.11785088  0.20441725  0.48392376  1
  O  O159  1  0.14768701  0.27369481  1.01190516  1
  O  O160  1  0.12436045  0.76408620  0.46678791  1
  O  O161  1  0.07983912  0.69709483  0.85724937  1
  O  O162  1  0.67942757  0.23205439  0.43877752  1
  O  O163  1  0.65779449  0.18795956  0.93311601  1
  O  O164  1  0.59808225  0.69982543  0.47815303  1
  O  O165  1  0.54771735  0.74597420  0.97278197  1
  O  O166  1  0.45285092  0.28008278  0.07399924  1
  O  O167  1  0.53640791  0.11550728  0.57671846  1
  O  O168  1  0.47360798  0.78088434  0.14306828  1
  O  O169  1  0.49232536  0.77507471  0.63382566  1
  O  O170  1  1.02989327  0.24443133  0.16357350  1
  O  O171  1  0.98400389  0.20285216  0.58600427  1
  O  O172  1  1.00453614  0.70006935  0.17259961  1
  O  O173  1  0.99415898  0.79067650  0.68867017  1
  O  O174  1  -0.02601339  0.28302451  0.39353128  1
  O  O175  1  -0.00511773  0.22381483  0.81050218  1
  O  O176  1  -0.02329358  0.64907376  0.56497510  1
  O  O177  1  0.13264397  0.65292291  0.85377571  1
  O  O178  1  0.55763090  0.21517377  0.32488840  1
  O  O179  1  0.48023253  0.25894992  0.87719402  1
  O  O180  1  0.48372027  0.78483568  0.36133163  1
  O  O181  1  0.38582905  0.72502936  0.84569593  1
  O  O182  1  0.24994572  0.12069163  0.50214761  1
  O  O183  1  0.21922732  0.13853416  0.98635793  1
  O  O184  1  0.23566674  0.64944878  0.50059042  1
  O  O185  1  0.27559237  0.64639219  0.96939937  1
  O  O186  1  0.68518649  0.16086356  0.42892892  1
  O  O187  1  0.77857690  0.17708804  0.97500173  1
  O  O188  1  0.70790685  0.61923448  0.49870443  1
  O  O189  1  0.80128789  0.62892581  0.99812828  1
  O  O190  1  0.23587157  0.43487749  0.03786878  1
  O  O191  1  0.27800388  0.38323411  0.51204363  1
  O  O192  1  0.27131259  0.88582769  0.02862564  1
  O  O193  1  0.27078002  0.92953262  0.47574515  1
  O  O194  1  0.66161911  0.33122859  -0.07661113  1
  O  O195  1  0.73979646  0.43787318  0.51018761  1
  O  O196  1  0.77905682  0.90766065  0.05485166  1
  O  O197  1  0.69251171  0.83387431  0.44586373  1
  O  O198  1  0.14407753  0.50287518  0.28282862  1
  O  O199  1  0.14298644  0.47140372  0.72878302  1
  O  O200  1  0.14911858  0.90687198  0.30042818  1
  O  O201  1  0.08280984  0.98659520  0.71563069  1
  O  O202  1  0.61232309  0.49403157  0.16287702  1
  O  O203  1  0.65757801  0.47457991  0.74874244  1
  O  O204  1  0.62662893  1.05621346  0.26258818  1
  O  O205  1  0.50598172  1.04560703  0.71334601  1
  O  O206  1  0.41882949  0.06027988  0.22521876  1
  O  O207  1  0.35556109  -0.01883808  0.77117453  1
  O  O208  1  0.37968077  0.54909658  0.25861502  1
  O  O209  1  0.31727123  0.47239721  0.71585602  1
  O  O210  1  0.84232095  -0.02276721  0.29313917  1
  O  O211  1  0.89320401  -0.13652524  0.80627130  1
  O  O212  1  0.81857944  0.49841834  0.15278672  1
  O  O213  1  0.86238921  0.48065946  0.72438560  1
  O  O214  1  0.13953599  0.35466994  0.38887832  1
  O  O215  1  0.10680350  0.35144813  0.82246114  1
  O  O216  1  0.19222534  0.88723328  0.35005071  1
  O  O217  1  0.11003055  0.98449757  0.95856923  1
  O  O218  1  0.68128923  0.36295880  0.37170482  1
  O  O219  1  0.54651928  0.42644292  0.84095911  1
  O  O220  1  0.61425989  0.88229353  0.34247480  1
  O  O221  1  0.55591233  0.91663421  0.81723208  1
  O  O222  1  0.33765010  0.15719119  0.13559014  1
  O  O223  1  0.36768028  0.13427299  0.63373969  1
  O  O224  1  0.37385978  0.64288882  0.10988326  1
  O  O225  1  0.35326127  0.68735678  0.64549357  1
  O  O226  1  0.83816788  0.23408408  0.11036822  1
  O  O227  1  0.86436161  0.11003067  0.58637670  1
  O  O228  1  1.05017796  0.52498421  0.12176676  1
  O  O229  1  0.81550749  0.64297582  0.62326286  1
  O  O230  1  0.27467467  0.29621183  0.07113961  1
  O  O231  1  0.22344804  0.24887062  0.58967728  1
  O  O232  1  0.29277123  0.76301527  0.16853067  1
  O  O233  1  0.24852606  0.79029566  0.56248964  1
  O  O234  1  0.70344383  0.28385581  0.04190816  1
  O  O235  1  0.72824716  0.25683763  0.58956060  1
  O  O236  1  0.75205431  0.76225492  0.07200586  1
  O  O237  1  0.68054457  0.76754032  0.57619985  1
  O  O238  1  0.45952602  0.21960191  0.47830085  1
  O  O239  1  0.25111625  0.27656967  0.89787655  1
  O  O240  1  0.27390075  0.76919418  0.39747824  1
  O  O241  1  0.22278194  0.75568053  0.93310041  1
  O  O242  1  0.71454399  0.23582441  0.27375133  1
  O  O243  1  0.75409412  0.25627245  0.84427859  1
  O  O244  1  0.71390534  0.71768639  0.36085077  1
  O  O245  1  0.76797187  0.75009984  0.90111552  1
  O  O246  1  0.04564320  0.13890134  0.03331889  1
  O  O247  1  -0.01091143  0.09521642  0.48128297  1
  O  O248  1  0.04282693  0.66111116  0.02599552  1
  O  O249  1  -0.04955028  0.73768702  0.68206109  1
  O  O250  1  0.52121125  0.08722150  -0.03483316  1
  O  O251  1  0.53345514  0.05956679  0.53669376  1
  O  O252  1  0.46960256  0.60633829  -0.03498147  1
  O  O253  1  0.50540517  0.61344915  0.54692879  1
  O  O254  1  0.46893291  0.44823468  0.49089501  1
  O  O255  1  0.45326011  0.40162540  0.93832078  1
  O  O256  1  0.54456126  0.86348798  0.48937475  1
  O  O257  1  0.49221626  0.91831244  1.00926280  1
  O  O258  1  1.03734131  0.35826056  0.51144357  1
  O  O259  1  0.99037718  0.35557370  1.06076032  1
  O  O260  1  0.94195856  0.81345265  0.49859795  1
  O  O261  1  0.97975996  0.97637336  1.04271758  1
  O  O262  1  0.59722103  0.49922962  0.36900697  1
  O  O263  1  0.35998354  0.51658412  0.93407874  1
  O  O264  1  0.53174939  0.98718324  0.39864683  1
  O  O265  1  0.52093371  0.97495172  0.84224636  1
  O  O266  1  1.00489383  0.44549945  0.38045421  1
  O  O267  1  0.97059252  0.39622067  0.89778133  1
  O  O268  1  0.99884122  1.01837121  0.34003904  1
  O  O269  1  0.98504594  0.97988758  0.86647930  1
  O  O270  1  -0.00308714  0.09083726  0.14204508  1
  O  O271  1  -0.01889371  0.00143484  0.60080608  1
  O  O272  1  0.01509229  0.55363847  0.18836580  1
  O  O273  1  0.04674892  0.50783570  0.60730923  1
  O  O274  1  0.54921905  0.01788851  0.12194374  1
  O  O275  1  0.50312588  -0.01161617  0.67466511  1
  O  O276  1  0.57971958  0.28699522  0.17029284  1
  O  O277  1  0.48409504  0.48100693  0.65640985  1
  O  O278  1  0.25964661  0.35059140  0.29223436  1
  O  O279  1  0.21459046  0.33543716  0.71775636  1
  O  O280  1  0.25566930  0.96864662  0.23382438  1
  O  O281  1  0.12690548  0.83520255  0.80405990  1
  O  O282  1  0.88124718  0.47866653  0.18197355  1
  O  O283  1  0.74786191  0.37639798  0.72415039  1
  O  O284  1  0.75435873  0.83213923  0.21624144  1
  O  O285  1  0.75379068  0.80072574  0.70902279  1
  O  O286  1  0.29307660  0.12498312  0.28873047  1
  O  O287  1  0.27117686  0.12640611  0.71704030  1
  O  O288  1  0.23998214  0.62596454  0.27902567  1
  O  O289  1  0.26119090  0.60535371  0.77613062  1
  O  O290  1  0.75247731  0.17857625  0.27246152  1
  O  O291  1  0.77649456  0.11444870  0.71698841  1
  O  O292  1  0.84076086  0.69390737  0.25731736  1
  O  O293  1  0.77383907  0.56327177  0.80154860  1
  O  O294  1  0.43727318  0.17345200  0.33391625  1
  O  O295  1  0.38916468  0.08512701  0.87722352  1
  O  O296  1  0.43352646  0.62730046  0.38898467  1
  O  O297  1  0.22365274  0.70004104  0.98037596  1
  O  O298  1  0.85944177  0.11142836  0.38414372  1
  O  O299  1  0.85613683  0.03300116  0.82002230  1
  O  O300  1  0.84489658  0.63599586  0.39969359  1
  O  O301  1  0.93638262  0.61019061  0.80785291  1
  O  O302  1  0.16800882  0.35756436  0.17010755  1
  O  O303  1  0.15574198  0.39093135  0.60549021  1
  O  O304  1  0.09564000  0.96783075  0.18003158  1
  O  O305  1  0.10145924  0.88953010  0.59028064  1
  O  O306  1  0.57932858  0.21922500  0.15649269  1
  O  O307  1  0.56860102  0.26601744  0.60331019  1
  O  O308  1  0.63086267  0.84539287  0.09955460  1
  O  O309  1  0.64812067  0.90073952  0.63369553  1
  O  O310  1  0.16517852  0.23349696  0.27904995  1
  O  O311  1  0.06923896  0.27694704  0.68188630  1
  O  O312  1  0.11285252  0.75994362  0.26363814  1
  O  O313  1  0.16277994  0.80506939  0.75145303  1
  O  O314  1  0.64773784  0.35852795  0.30646194  1
  O  O315  1  0.57862659  0.23702763  0.67001556  1
  O  O316  1  0.58667014  0.76245360  0.24315870  1
  O  O317  1  0.56996104  0.70610434  0.77479404  1
  O  O318  1  0.39273444  0.24922068  0.21778085  1
  O  O319  1  0.33617459  0.15478974  0.70128521  1
  O  O320  1  0.41362404  0.71497807  0.25109485  1
  O  O321  1  0.35853626  0.81502346  0.71696047  1
  O  O322  1  0.90804792  0.27408272  0.25260388  1
  O  O323  1  0.89259890  0.26375815  0.71162321  1
  O  O324  1  1.00631164  0.68695677  0.36645932  1
  O  O325  1  0.93396457  0.67124210  0.84531402  1
  O  O326  1  0.37483957  0.53867039  0.56584180  1
  O  O327  1  0.41890313  0.48559143  1.07182455  1
  O  O328  1  0.38537807  1.02353503  0.51657478  1
  O  O329  1  0.35744537  1.01108808  1.01347589  1
  O  O330  1  0.87282683  0.52791616  0.50143573  1
  O  O331  1  0.91595578  0.48892826  1.01016629  1
  O  O332  1  0.88832693  0.96593571  0.44929542  1
  O  O333  1  0.84712121  1.04622415  1.07703637  1
  O  O334  1  0.14054248  0.02010049  0.15820836  1
  O  O335  1  0.04794202  -0.06264350  0.45733230  1
  O  O336  1  0.07968748  0.47140226  -0.02052687  1
  O  O337  1  0.15776217  0.50308410  0.50032492  1
  O  O338  1  0.63411930  -0.00607746  -0.01185644  1
  O  O339  1  0.69181524  0.07352350  0.57506773  1
  O  O340  1  0.56858647  0.48332691  -0.00396137  1
  O  O341  1  0.60094351  0.51370751  0.54384914  1
  O  O342  1  0.34655056  0.36529137  0.15550911  1
  O  O343  1  0.34672172  0.32905634  0.63440610  1
  O  O344  1  0.38848315  0.91154535  0.12196527  1
  O  O345  1  0.38361833  0.87882543  0.58292255  1
  O  O346  1  0.88468347  0.39989698  0.20220724  1
  O  O347  1  0.88535054  0.38885706  0.56375299  1
  O  O348  1  0.88971284  0.91093045  0.15193956  1
  O  O349  1  0.79944253  0.88023102  0.55928481  1
  O  O350  1  0.14300273  0.07277043  0.39896052  1
  O  O351  1  0.09944887  0.11404855  0.83343219  1
  O  O352  1  0.04059965  0.65098669  0.53625542  1
  O  O353  1  -0.02783330  0.55038326  0.84094758  1
  O  O354  1  0.62250470  0.12053579  0.43281553  1
  O  O355  1  0.68654370  0.05232832  0.82373619  1
  O  O356  1  0.71798423  0.58542896  0.26214266  1
  O  O357  1  0.61496914  0.62616633  0.89711060  1
