# generated using pymatgen
data_V51Zn51O256
_symmetry_space_group_name_H-M   'P 1'
_cell_length_a   17.41791714
_cell_length_b   17.76477678
_cell_length_c   17.59047782
_cell_angle_alpha   90.10977109
_cell_angle_beta   90.36806192
_cell_angle_gamma   89.50507678
_symmetry_Int_Tables_number   1
_chemical_formula_structural   V51Zn51O256
_chemical_formula_sum   'V51 Zn51 O256'
_cell_volume   5442.61603011
_cell_formula_units_Z   1
loop_
 _symmetry_equiv_pos_site_id
 _symmetry_equiv_pos_as_xyz
  1  'x, y, z'
loop_
 _atom_site_type_symbol
 _atom_site_label
 _atom_site_symmetry_multiplicity
 _atom_site_fract_x
 _atom_site_fract_y
 _atom_site_fract_z
 _atom_site_occupancy
  V  V0  1  0.33405133  -0.01946426  0.37450286  1
  V  V1  1  0.78198035  0.03570512  0.25472646  1
  V  V2  1  0.77042611  0.72266652  0.51547752  1
  V  V3  1  0.12177210  0.55743018  0.50704485  1
  V  V4  1  0.03606818  0.35075645  0.91419975  1
  V  V5  1  0.49439160  0.63351204  0.64853238  1
  V  V6  1  0.86391698  0.88830876  -0.04038031  1
  V  V7  1  0.23160697  0.85544911  0.09867459  1
  V  V8  1  -0.04323213  0.27185442  0.26186172  1
  V  V9  1  0.74709106  0.27191662  0.46696534  1
  V  V10  1  0.26635814  0.10619350  0.87268513  1
  V  V11  1  0.31609251  0.81763247  0.47758908  1
  V  V12  1  -0.05033228  0.62465421  0.12480136  1
  V  V13  1  0.16167690  0.22776758  0.90491291  1
  V  V14  1  0.78088481  0.85675800  0.15634770  1
  V  V15  1  0.87148775  0.49508303  0.36493024  1
  V  V16  1  0.09408227  0.47228031  0.65099489  1
  V  V17  1  0.88187067  0.02413090  0.40646436  1
  V  V18  1  0.59151020  0.57004057  0.15307202  1
  V  V19  1  0.26158851  0.48646327  0.77415730  1
  V  V20  1  0.00242038  0.87108872  0.34701419  1
  V  V21  1  0.67141667  0.59949361  0.54716865  1
  V  V22  1  0.49834626  0.93121295  0.89450242  1
  V  V23  1  0.49529877  0.16668642  0.59906725  1
  V  V24  1  0.57747878  0.37349242  0.25653437  1
  V  V25  1  0.52858892  -0.05723866  0.53870115  1
  V  V26  1  0.70848764  0.40266126  0.13750806  1
  V  V27  1  0.64779956  0.02437984  0.13882185  1
  V  V28  1  0.75462032  -0.03331863  0.76739777  1
  V  V29  1  0.10413011  0.05000001  0.59620730  1
  V  V30  1  0.11073352  0.70202349  0.86743193  1
  V  V31  1  0.63112806  0.90655953  0.30386845  1
  V  V32  1  0.48974299  0.78311839  0.78021946  1
  V  V33  1  0.23527898  0.37835957  0.58697773  1
  V  V34  1  0.20010447  0.53713616  0.13770148  1
  V  V35  1  0.88879311  0.53962346  0.74384284  1
  V  V36  1  0.25179108  0.74717197  -0.03959354  1
  V  V37  1  0.66123417  0.81734481  0.70920345  1
  V  V38  1  0.75759523  0.63410782  0.88523896  1
  V  V39  1  0.18202905  0.37144114  0.22434073  1
  V  V40  1  0.01201640  0.10614440  0.06163517  1
  V  V41  1  0.15206621  0.33670243  0.75631681  1
  V  V42  1  0.89637366  0.17181422  0.76088009  1
  V  V43  1  0.51523951  0.52445341  0.00063263  1
  V  V44  1  0.00701685  0.76211957  0.74031317  1
  V  V45  1  0.90309757  0.74351113  0.61817430  1
  V  V46  1  0.09843340  -0.04026979  0.05416902  1
  V  V47  1  0.36145901  0.42046867  0.00288851  1
  V  V48  1  0.52907759  0.49495178  0.52950398  1
  V  V49  1  0.37429912  0.00408729  0.79852493  1
  V  V50  1  0.40200077  0.78015198  0.12319436  1
  Zn  Zn51  1  0.68100049  0.45573785  0.41317390  1
  Zn  Zn52  1  0.06424432  0.51333068  0.82676816  1
  Zn  Zn53  1  0.59925743  0.76717388  0.15555518  1
  Zn  Zn54  1  0.29876222  0.32051521  0.85760792  1
  Zn  Zn55  1  0.63494292  0.22583442  0.17702439  1
  Zn  Zn56  1  -0.04036011  0.09809621  0.26972782  1
  Zn  Zn57  1  0.95017685  0.93994833  0.18201383  1
  Zn  Zn58  1  0.15245189  0.63057674  0.70784741  1
  Zn  Zn59  1  0.75270926  0.64165769  0.69904967  1
  Zn  Zn60  1  0.76845063  0.81388287  0.35400626  1
  Zn  Zn61  1  0.82717582  0.80027007  0.79639132  1
  Zn  Zn62  1  0.94102498  0.35253880  0.76031712  1
  Zn  Zn63  1  0.26981112  0.92528775  0.91008221  1
  Zn  Zn64  1  0.91253877  0.44589582  0.16908787  1
  Zn  Zn65  1  0.43527287  0.45435238  0.16437324  1
  Zn  Zn66  1  0.05028116  0.78159991  0.05295780  1
  Zn  Zn67  1  0.91799080  0.71192546  0.91070671  1
  Zn  Zn68  1  0.16066053  0.21143174  0.10768262  1
  Zn  Zn69  1  0.39965636  0.88304981  0.65479455  1
  Zn  Zn70  1  0.74572487  0.66404734  0.08892128  1
  Zn  Zn71  1  0.44812380  0.48551973  0.70451223  1
  Zn  Zn72  1  0.32388867  0.85711475  0.27139076  1
  Zn  Zn73  1  0.31009633  0.56584718  0.62444531  1
  Zn  Zn74  1  0.52867389  0.35329144  0.06421344  1
  Zn  Zn75  1  0.33457396  0.60423402  0.04839280  1
  Zn  Zn76  1  0.61504580  0.32185998  0.60528174  1
  Zn  Zn77  1  0.77342811  0.32152768  0.27116243  1
  Zn  Zn78  1  0.56126060  0.60876076  0.82656957  1
  Zn  Zn79  1  0.23169624  0.06536973  0.06100969  1
  Zn  Zn80  1  0.47827758  0.99035813  0.25227647  1
  Zn  Zn81  1  0.55573224  0.00299483  0.71096495  1
  Zn  Zn82  1  0.94372601  0.20932781  0.43389399  1
  Zn  Zn83  1  0.13342449  0.64334297  0.04209698  1
  Zn  Zn84  1  -0.00723042  0.22101557  0.62958514  1
  Zn  Zn85  1  0.88032513  0.57857295  0.54286255  1
  Zn  Zn86  1  0.86849878  0.10420224  0.57787053  1
  Zn  Zn87  1  0.95877745  0.95909387  0.73230696  1
  Zn  Zn88  1  0.45230302  0.11246909  0.42685510  1
  Zn  Zn89  1  0.19127551  0.42052967  0.40071756  1
  Zn  Zn90  1  0.85094108  0.02232173  0.07988157  1
  Zn  Zn91  1  0.90920769  0.70017196  0.40513673  1
  Zn  Zn92  1  0.51683702  0.50397193  0.33171683  1
  Zn  Zn93  1  0.65740577  -0.12885219  0.50271522  1
  Zn  Zn94  1  0.93589701  0.04577513  0.89505659  1
  Zn  Zn95  1  0.03079162  0.30722042  0.11211828  1
  Zn  Zn96  1  0.07318920  0.09949615  0.78994978  1
  Zn  Zn97  1  0.68924142  0.96126371  0.94964382  1
  Zn  Zn98  1  0.17105152  0.91537074  0.45042401  1
  Zn  Zn99  1  0.52951748  0.91099537  0.07960604  1
  Zn  Zn100  1  0.18118177  0.46932474  0.95703879  1
  Zn  Zn101  1  0.81412217  0.29987169  0.66631970  1
  O  O102  1  0.11736790  0.06561614  0.06262556  1
  O  O103  1  0.07975131  0.14673117  0.60782973  1
  O  O104  1  0.17412135  0.62484311  0.15948704  1
  O  O105  1  0.10040747  0.57319746  0.63072591  1
  O  O106  1  0.63382377  0.11626483  0.16166752  1
  O  O107  1  0.70505483  0.31466118  0.66845971  1
  O  O108  1  0.63767667  0.66479296  0.14269338  1
  O  O109  1  0.68381746  0.57664623  0.64065688  1
  O  O110  1  0.33953425  0.31034242  0.35364247  1
  O  O111  1  0.37555701  0.36857819  0.92071793  1
  O  O112  1  0.33009534  0.86409152  0.38241666  1
  O  O113  1  0.37703231  0.94021045  0.87693316  1
  O  O114  1  0.83788870  0.40100407  0.34197758  1
  O  O115  1  0.94604446  0.36092038  0.88124808  1
  O  O116  1  0.84069492  0.88850016  0.44643797  1
  O  O117  1  0.87675027  0.87497333  0.86457091  1
  O  O118  1  0.23728550  -0.01631968  0.39407841  1
  O  O119  1  0.25544147  0.00871221  0.83794917  1
  O  O120  1  0.29298323  0.47327560  0.35920546  1
  O  O121  1  0.24369330  0.50216388  0.86687603  1
  O  O122  1  0.79533481  0.00652344  0.35806841  1
  O  O123  1  0.75098509  -0.00394832  0.85940177  1
  O  O124  1  0.76959492  0.51134108  0.37312996  1
  O  O125  1  0.84863698  0.56306212  0.92047896  1
  O  O126  1  0.29997559  0.53404024  0.13241345  1
  O  O127  1  0.28095373  0.46110716  0.61739578  1
  O  O128  1  0.21114752  0.95787435  0.06919331  1
  O  O129  1  0.19674221  1.07611809  0.57273098  1
  O  O130  1  0.66772764  0.50782561  0.15319684  1
  O  O131  1  0.77313146  0.45690606  0.60858576  1
  O  O132  1  0.76059175  1.02353055  0.14775688  1
  O  O133  1  0.72676381  1.09036042  0.59566679  1
  O  O134  1  -0.02994243  0.35044089  0.19566302  1
  O  O135  1  0.05590159  0.34983765  0.78300379  1
  O  O136  1  0.01180682  0.88371604  0.25087568  1
  O  O137  1  0.01275465  0.85652638  0.73441050  1
  O  O138  1  0.48115055  0.42062060  0.25849040  1
  O  O139  1  0.54990702  0.39839816  0.72082415  1
  O  O140  1  0.54374379  0.93988053  0.32951988  1
  O  O141  1  0.57245577  0.83940180  0.75338500  1
  O  O142  1  0.43938219  0.20363639  0.32692975  1
  O  O143  1  0.53672119  0.09210716  0.65168874  1
  O  O144  1  0.39816541  0.62800384  0.26377017  1
  O  O145  1  0.49454458  0.69826739  0.82262826  1
  O  O146  1  0.99498685  0.18967131  0.22752195  1
  O  O147  1  0.99768707  0.17476583  0.74153223  1
  O  O148  1  0.95848675  0.65920046  0.21136283  1
  O  O149  1  0.97336410  0.56338701  0.78916438  1
  O  O150  1  0.41370102  0.37950237  0.08258990  1
  O  O151  1  0.38252904  0.31623805  0.40827210  1
  O  O152  1  0.34336382  0.75070781  -0.05583934  1
  O  O153  1  0.33290093  0.72677290  0.46789942  1
  O  O154  1  0.78196370  0.25433489  -0.01421471  1
  O  O155  1  0.84704912  0.27910655  0.44657012  1
  O  O156  1  0.89468175  0.78569888  -0.00346054  1
  O  O157  1  0.89464009  0.69470254  0.52001875  1
  O  O158  1  0.07233351  0.28596002  0.54855585  1
  O  O159  1  0.18332797  0.22326915  0.99837077  1
  O  O160  1  0.04072939  0.62670334  0.47201161  1
  O  O161  1  0.10434262  0.73158767  0.96334544  1
  O  O162  1  0.65237346  0.27277827  0.50478989  1
  O  O163  1  0.57403455  0.18528916  1.02834256  1
  O  O164  1  0.66816333  0.69914957  0.52193047  1
  O  O165  1  0.63577726  0.85532761  1.08383485  1
  O  O166  1  0.56482473  0.24868361  0.08510101  1
  O  O167  1  0.53868472  0.25159729  0.62918057  1
  O  O168  1  0.49982355  0.80680203  0.11175419  1
  O  O169  1  0.51849370  0.72161068  0.67541557  1
  O  O170  1  1.04717272  0.19662210  0.08635264  1
  O  O171  1  0.92816203  0.30400461  0.65616095  1
  O  O172  1  1.02392845  0.67512539  0.06973943  1
  O  O173  1  1.00445406  0.72349864  0.64436606  1
  O  O174  1  -0.01685452  0.27502943  0.35791008  1
  O  O175  1  0.06217010  0.24760862  0.89929374  1
  O  O176  1  -0.04385130  0.78569922  0.36260791  1
  O  O177  1  0.00473443  0.73620166  0.84711616  1
  O  O178  1  0.46524939  0.15734120  0.27726759  1
  O  O179  1  0.53600911  0.22782011  0.81086924  1
  O  O180  1  0.46960629  0.75648890  0.37304083  1
  O  O181  1  0.48537912  0.83578024  0.87215748  1
  O  O182  1  0.29157779  0.20317780  0.48569345  1
  O  O183  1  0.28427120  0.08638145  0.96604312  1
  O  O184  1  0.22737374  0.58084399  0.53737206  1
  O  O185  1  0.24426890  0.64901691  0.99423403  1
  O  O186  1  0.73766450  0.17632378  0.45343349  1
  O  O187  1  0.71672650  0.22959685  0.98123029  1
  O  O188  1  0.76972521  0.60366492  0.51737680  1
  O  O189  1  0.73778078  0.64072429  0.97881751  1
  O  O190  1  0.26526083  0.41810517  0.01640736  1
  O  O191  1  0.22593540  0.36895442  0.48924519  1
  O  O192  1  0.22728529  0.85028385  -0.03212245  1
  O  O193  1  0.21822902  0.82908768  0.49469960  1
  O  O194  1  0.69467709  0.38726448  0.04651698  1
  O  O195  1  0.73125051  0.37328980  0.47012387  1
  O  O196  1  0.76762459  0.88388716  -0.02151121  1
  O  O197  1  0.75603288  0.81663944  0.52167395  1
  O  O198  1  0.17705853  0.48616776  0.23407541  1
  O  O199  1  0.14115559  0.47902520  0.74795797  1
  O  O200  1  0.06848359  1.04813597  0.28868107  1
  O  O201  1  0.12933773  1.04510400  0.69681773  1
  O  O202  1  0.55905216  0.56720976  0.24676369  1
  O  O203  1  0.73471992  0.41727081  0.84575117  1
  O  O204  1  0.68046204  0.98469953  0.25585363  1
  O  O205  1  0.67062093  0.99403128  0.72126438  1
  O  O206  1  0.36896580  -0.03394482  0.27694059  1
  O  O207  1  0.35084489  -0.03100829  0.71225666  1
  O  O208  1  0.32937299  0.64083196  0.26651526  1
  O  O209  1  0.36119133  0.48254094  0.76687042  1
  O  O210  1  0.88623960  0.02295338  0.23593750  1
  O  O211  1  0.84530850  -0.02577351  0.72734082  1
  O  O212  1  0.87594277  0.51189965  0.26662346  1
  O  O213  1  0.87470585  0.44528170  0.75559966  1
  O  O214  1  0.15855167  0.35802324  0.31846327  1
  O  O215  1  0.17955941  0.32432506  0.87369413  1
  O  O216  1  0.08739197  0.87496937  0.39396219  1
  O  O217  1  0.19554983  0.87400863  0.73321207  1
  O  O218  1  0.59990188  0.42492688  0.34778619  1
  O  O219  1  0.53717798  0.29106304  0.84654382  1
  O  O220  1  0.68004919  0.87538643  0.38787120  1
  O  O221  1  0.59581097  0.94021488  0.89283964  1
  O  O222  1  0.26022726  0.11866317  0.22434336  1
  O  O223  1  0.40254899  0.17114427  0.61489313  1
  O  O224  1  0.38866888  0.69013142  0.09185027  1
  O  O225  1  0.39644967  0.63062457  0.63461603  1
  O  O226  1  0.91862989  0.10642064  0.09763061  1
  O  O227  1  0.85477371  0.13297697  0.67920310  1
  O  O228  1  0.85362144  0.63474000  0.09812727  1
  O  O229  1  0.88690458  0.56826693  0.64966149  1
  O  O230  1  0.24874502  0.14725870  0.13367505  1
  O  O231  1  0.28493430  0.30445393  0.61351170  1
  O  O232  1  0.21877067  0.76123226  0.07388332  1
  O  O233  1  0.18510478  0.64445748  0.51663172  1
  O  O234  1  0.72095226  0.29709240  0.17170283  1
  O  O235  1  0.78548472  0.26479973  0.56020323  1
  O  O236  1  0.76817734  0.77013393  0.12176269  1
  O  O237  1  0.80033646  0.71254868  0.62214039  1
  O  O238  1  0.23926612  0.19499602  0.43983386  1
  O  O239  1  0.27216056  0.21111153  0.87104173  1
  O  O240  1  0.20191006  0.67001527  0.35221723  1
  O  O241  1  0.20877703  0.73267621  0.86289395  1
  O  O242  1  0.72595052  0.28191939  0.36867931  1
  O  O243  1  0.69904437  0.21387633  0.80667312  1
  O  O244  1  0.79489491  0.72600567  0.41175660  1
  O  O245  1  0.80947699  0.71890699  0.86989562  1
  O  O246  1  -0.00028162  0.10485917  -0.03304700  1
  O  O247  1  -0.06160559  0.18105746  0.53867081  1
  O  O248  1  -0.11072455  0.43564850  0.01476059  1
  O  O249  1  0.00697234  0.57094510  0.51151060  1
  O  O250  1  0.55471642  0.20031829  -0.03837544  1
  O  O251  1  0.51268331  0.15658140  0.49969147  1
  O  O252  1  0.51178733  0.55883797  -0.09045493  1
  O  O253  1  0.54992449  0.59956499  0.56645192  1
  O  O254  1  0.57605381  0.41176229  0.55337074  1
  O  O255  1  0.53611349  0.42997494  0.98861086  1
  O  O256  1  0.54033862  0.85737726  0.49772096  1
  O  O257  1  0.48030870  0.94675735  0.98942551  1
  O  O258  1  1.07965894  0.25785990  0.48437916  1
  O  O259  1  1.02801064  0.34711504  1.01113337  1
  O  O260  1  0.89902997  0.85705132  0.47115155  1
  O  O261  1  0.95836585  0.83856015  1.00225262  1
  O  O262  1  0.48923662  0.49906911  0.43908979  1
  O  O263  1  0.69323739  0.46026228  0.88856181  1
  O  O264  1  0.45958669  1.00387461  0.47914539  1
  O  O265  1  0.48204167  0.99633686  0.80423975  1
  O  O266  1  0.96413749  0.45740231  0.36735841  1
  O  O267  1  1.08341164  0.44269937  0.90810546  1
  O  O268  1  0.95272761  0.95679137  0.37963797  1
  O  O269  1  1.00355726  1.01909336  0.81135060  1
  O  O270  1  0.01056645  -0.00824799  0.10288795  1
  O  O271  1  0.02136761  0.00492517  0.64015025  1
  O  O272  1  -0.03161153  0.52699280  0.12841335  1
  O  O273  1  0.00352744  0.45277903  0.66031273  1
  O  O274  1  0.55009534  -0.01611719  0.16221695  1
  O  O275  1  0.50056686  -0.06552007  0.63567269  1
  O  O276  1  0.49399770  0.53503380  0.11654970  1
  O  O277  1  0.51743446  0.57189911  0.72695775  1
  O  O278  1  0.27534749  0.36536864  0.21307476  1
  O  O279  1  0.25363321  0.38033089  0.76770960  1
  O  O280  1  0.23885428  0.86019306  0.19511763  1
  O  O281  1  0.20319418  0.84210808  0.67138271  1
  O  O282  1  0.68850414  0.39132237  0.25739576  1
  O  O283  1  0.74768970  0.34932024  0.86696614  1
  O  O284  1  0.79149538  0.85207730  0.25396254  1
  O  O285  1  0.74060872  0.86178527  0.76463707  1
  O  O286  1  0.12519339  0.09654132  0.30684723  1
  O  O287  1  0.35612284  0.10260711  0.81623901  1
  O  O288  1  0.35395412  0.57464751  0.40480504  1
  O  O289  1  0.24906555  0.57864632  0.72311658  1
  O  O290  1  0.76446798  0.12429248  0.26562685  1
  O  O291  1  0.66796196  0.12830641  0.60444990  1
  O  O292  1  0.76195010  0.64714064  0.24667285  1
  O  O293  1  0.80664112  0.59137036  0.78380389  1
  O  O294  1  0.35757659  0.07346030  0.39123724  1
  O  O295  1  0.42330536  0.14194053  1.06161385  1
  O  O296  1  0.31501730  0.51664694  0.41893787  1
  O  O297  1  0.34355556  0.65663404  0.81544076  1
  O  O298  1  0.91890164  0.11201004  0.37803540  1
  O  O299  1  0.87409018  0.12261837  0.84029562  1
  O  O300  1  0.89478671  0.59039526  0.37503789  1
  O  O301  1  0.90689198  0.60100831  0.94686222  1
  O  O302  1  0.12879610  0.45548598  0.17184767  1
  O  O303  1  0.14648648  0.37052381  0.65277297  1
  O  O304  1  0.11003308  0.86340057  0.09455492  1
  O  O305  1  0.13430436  0.96063961  0.55889305  1
  O  O306  1  0.58722102  0.38451349  0.15488239  1
  O  O307  1  0.60894838  0.40962476  0.75923787  1
  O  O308  1  0.68768463  0.90179043  0.12612406  1
  O  O309  1  0.65710492  0.84594930  0.61963415  1
  O  O310  1  0.13585169  0.30228759  0.16388518  1
  O  O311  1  0.16444725  0.24701702  0.73954814  1
  O  O312  1  0.14059065  0.70300271  0.35929935  1
  O  O313  1  0.10618130  0.71690835  0.75479087  1
  O  O314  1  0.57504891  0.27856870  0.26385295  1
  O  O315  1  0.60340983  0.31928222  0.86309310  1
  O  O316  1  0.61876796  0.82802204  0.24810527  1
  O  O317  1  0.68102499  0.72519116  0.72061721  1
  O  O318  1  0.26770856  0.17117463  0.26923877  1
  O  O319  1  0.38840667  0.26900469  0.75815751  1
  O  O320  1  0.38556945  0.78229549  0.21908043  1
  O  O321  1  0.40511176  0.80923785  0.73910484  1
  O  O322  1  0.85990772  0.25906648  0.26288250  1
  O  O323  1  0.85491959  0.26384152  0.76847469  1
  O  O324  1  0.81809277  0.68721034  0.25928619  1
  O  O325  1  0.90067710  0.74792040  0.73212892  1
  O  O326  1  0.45355341  0.48910608  0.59475942  1
  O  O327  1  0.36627166  0.61495058  0.86542412  1
  O  O328  1  0.40991605  0.94958817  0.44757946  1
  O  O329  1  0.42094278  1.13378103  1.13068602  1
  O  O330  1  0.87420477  0.48636181  0.46675515  1
  O  O331  1  0.83357425  0.43101013  0.97269441  1
  O  O332  1  0.86459093  1.03055200  0.50207413  1
  O  O333  1  0.88335344  0.98664010  0.97581507  1
  O  O334  1  0.07553278  -0.05270127  -0.03491659  1
  O  O335  1  0.05133479  0.06369447  0.51185024  1
  O  O336  1  0.15695947  0.53214347  0.04447409  1
  O  O337  1  0.11759297  0.46176280  0.54878203  1
  O  O338  1  0.64911913  0.01766158  0.04149180  1
  O  O339  1  0.61705627  -0.02038387  0.53061848  1
  O  O340  1  0.59583593  0.56936273  0.03538239  1
  O  O341  1  0.63886477  0.52528100  0.48674090  1
  O  O342  1  0.39459668  0.51735182  -0.00004528  1
  O  O343  1  0.41875708  0.31234467  0.71381060  1
  O  O344  1  0.34020512  0.85029929  0.08334707  1
  O  O345  1  0.36121158  0.85339782  0.55932804  1
  O  O346  1  0.80438129  0.42590950  0.14889106  1
  O  O347  1  0.83198275  0.41734022  0.61389174  1
  O  O348  1  0.86159779  0.90340917  0.11802584  1
  O  O349  1  0.90030762  0.83346241  0.60263160  1
  O  O350  1  0.10810967  0.15947510  0.33687080  1
  O  O351  1  0.15854110  0.12903221  0.85851369  1
  O  O352  1  0.14329232  0.52285620  0.41961389  1
  O  O353  1  0.11242748  0.60747145  0.87142473  1
  O  O354  1  0.49713311  0.09067379  0.31087262  1
  O  O355  1  0.68013575  0.15283667  0.78136273  1
  O  O356  1  0.51490218  0.70926572  0.34930855  1
  O  O357  1  0.66986231  0.62826464  0.84170062  1
