# generated using pymatgen
data_V51Zn51O256
_symmetry_space_group_name_H-M   'P 1'
_cell_length_a   17.24154990
_cell_length_b   17.45170805
_cell_length_c   17.54868718
_cell_angle_alpha   88.43331194
_cell_angle_beta   91.34684628
_cell_angle_gamma   90.17266143
_symmetry_Int_Tables_number   1
_chemical_formula_structural   V51Zn51O256
_chemical_formula_sum   'V51 Zn51 O256'
_cell_volume   5276.85636669
_cell_formula_units_Z   1
loop_
 _symmetry_equiv_pos_site_id
 _symmetry_equiv_pos_as_xyz
  1  'x, y, z'
loop_
 _atom_site_type_symbol
 _atom_site_label
 _atom_site_symmetry_multiplicity
 _atom_site_fract_x
 _atom_site_fract_y
 _atom_site_fract_z
 _atom_site_occupancy
  V  V0  1  0.78192013  0.82626978  0.56477696  1
  V  V1  1  0.76821286  0.89132400  0.15000402  1
  V  V2  1  0.58711956  0.01979920  0.13214919  1
  V  V3  1  0.73620248  0.60143889  0.39867869  1
  V  V4  1  0.21704421  0.12488343  0.87899697  1
  V  V5  1  0.73555437  0.13120269  0.36575961  1
  V  V6  1  0.64206183  0.12727221  -0.00136691  1
  V  V7  1  0.10583182  0.25913288  0.85809437  1
  V  V8  1  0.35348194  0.35433494  0.53764068  1
  V  V9  1  0.48431887  0.14796364  0.10122782  1
  V  V10  1  0.50129717  0.25465825  0.24068979  1
  V  V11  1  0.12828694  0.39278703  0.23298650  1
  V  V12  1  0.25125143  0.80522952  0.53566374  1
  V  V13  1  0.85150319  0.34865980  0.53207083  1
  V  V14  1  0.74414596  0.27058273  0.01618448  1
  V  V15  1  0.26922980  0.75494883  -0.00198813  1
  V  V16  1  0.22632624  0.15982532  0.37327584  1
  V  V17  1  0.38759861  0.61365746  0.26729638  1
  V  V18  1  0.69180464  -0.03152361  0.63499202  1
  V  V19  1  0.03570713  0.78095815  0.85707113  1
  V  V20  1  0.47378466  0.09814643  0.60749299  1
  V  V21  1  0.16042901  0.39420712  0.75460808  1
  V  V22  1  0.23589026  0.03658660  0.25954430  1
  V  V23  1  0.22244428  0.25886325  -0.00315393  1
  V  V24  1  0.36342962  0.26913197  0.11033344  1
  V  V25  1  0.01559264  0.72576568  0.21637828  1
  V  V26  1  0.54795868  0.65790839  0.17586813  1
  V  V27  1  0.72847686  0.01689048  0.24361311  1
  V  V28  1  0.37453640  0.13992945  0.26045628  1
  V  V29  1  0.01473398  0.51187880  -0.00289348  1
  V  V30  1  0.62287693  0.24723739  0.37738490  1
  V  V31  1  0.23361869  0.23609102  0.53955395  1
  V  V32  1  0.36382720  0.40913341  0.00617321  1
  V  V33  1  0.62939562  0.37731068  0.22932315  1
  V  V34  1  0.87296239  0.25934914  0.12366308  1
  V  V35  1  0.12434055  0.69277786  0.37781186  1
  V  V36  1  0.81364249  0.89074803  -0.01540302  1
  V  V37  1  0.34107225  0.53813788  0.44141294  1
  V  V38  1  0.88579311  0.13069252  0.26003834  1
  V  V39  1  0.12644054  0.02622464  0.11033355  1
  V  V40  1  0.87448411  -0.04417406  0.33800280  1
  V  V41  1  0.16082798  0.88483646  0.22997942  1
  V  V42  1  0.04304629  0.86275522  0.34570637  1
  V  V43  1  0.87177083  0.75165637  0.11953358  1
  V  V44  1  -0.03297005  0.00668342  0.49673621  1
  V  V45  1  0.53936902  0.39779294  0.86136899  1
  V  V46  1  0.47820344  0.36829694  0.36920252  1
  V  V47  1  0.77519403  0.63311170  0.80765176  1
  V  V48  1  0.85906220  0.49307621  0.33051428  1
  V  V49  1  0.91753191  0.72710941  0.51947238  1
  V  V50  1  -0.00797515  0.12490077  0.10198774  1
  Zn  Zn51  1  0.42072259  0.21541400  0.43516867  1
  Zn  Zn52  1  0.35364561  0.34118283  0.81955551  1
  Zn  Zn53  1  0.34860573  0.91653184  0.70387245  1
  Zn  Zn54  1  0.30609803  0.57221430  0.09900368  1
  Zn  Zn55  1  0.29809318  0.07655849  0.05354083  1
  Zn  Zn56  1  0.06520616  0.06626745  0.33289827  1
  Zn  Zn57  1  0.18639421  0.67858120  0.83756943  1
  Zn  Zn58  1  0.61414584  0.90157131  1.02317840  1
  Zn  Zn59  1  0.50565648  0.90321932  0.63488190  1
  Zn  Zn60  1  0.85611280  0.74208253  0.32784988  1
  Zn  Zn61  1  0.30410818  0.32018621  0.28331866  1
  Zn  Zn62  1  0.71596669  0.66771029  0.59124870  1
  Zn  Zn63  1  0.93624352  0.21423280  0.94798936  1
  Zn  Zn64  1  0.18730836  0.42785450  0.93513310  1
  Zn  Zn65  1  0.54532866  0.35045998  0.04652888  1
  Zn  Zn66  1  0.45510403  0.24039407  0.93153923  1
  Zn  Zn67  1  0.18331959  0.19398930  0.17384564  1
  Zn  Zn68  1  0.80929188  0.30606037  0.29315582  1
  Zn  Zn69  1  0.04290704  0.31805071  0.06365938  1
  Zn  Zn70  1  0.81574255  0.59251020  0.00745191  1
  Zn  Zn71  1  0.27460015  0.07713562  0.69501606  1
  Zn  Zn72  1  0.94326373  0.42554035  0.65855480  1
  Zn  Zn73  1  0.20859433  0.68448187  0.20679246  1
  Zn  Zn74  1  0.51412205  0.83928805  0.15107416  1
  Zn  Zn75  1  0.96033967  0.59023584  0.42135092  1
  Zn  Zn76  1  0.85071376  0.82200821  0.80427048  1
  Zn  Zn77  1  0.63371464  0.86342432  0.52046509  1
  Zn  Zn78  1  0.86608729  0.15759324  0.47422914  1
  Zn  Zn79  1  0.49920545  0.36301943  0.68959419  1
  Zn  Zn80  1  0.38473288  0.78211738  0.26978591  1
  Zn  Zn81  1  0.97480835  0.93089536  0.18197279  1
  Zn  Zn82  1  0.84353754  0.55469669  0.55780050  1
  Zn  Zn83  1  0.54916785  0.29094168  0.54273535  1
  Zn  Zn84  1  0.20012605  0.60880648  0.55004875  1
  Zn  Zn85  1  0.41916676  0.70406744  0.45324429  1
  Zn  Zn86  1  0.82093370  0.06105408  0.06645686  1
  Zn  Zn87  1  0.75618603  -0.01487090  0.46271653  1
  Zn  Zn88  1  0.22730201  0.23931752  0.72924321  1
  Zn  Zn89  1  0.72627518  0.40013217  0.40453349  1
  Zn  Zn90  1  0.87348285  0.46607797  0.13536045  1
  Zn  Zn91  1  0.56993984  0.53844284  0.32379361  1
  Zn  Zn92  1  0.05443361  0.85042293  0.55763155  1
  Zn  Zn93  1  0.09134238  0.36143015  0.53967697  1
  Zn  Zn94  1  0.67997608  0.19416241  0.18072768  1
  Zn  Zn95  1  0.68984084  0.71779310  0.20087898  1
  Zn  Zn96  1  0.07425360  0.70853282  0.05274640  1
  Zn  Zn97  1  0.47656487  0.74258667  1.01478659  1
  Zn  Zn98  1  0.18388220  0.81342328  0.71925463  1
  Zn  Zn99  1  0.91244135  0.88712140  0.65144910  1
  Zn  Zn100  1  0.36283352  0.94902231  0.16976894  1
  Zn  Zn101  1  0.64716827  0.50887416  0.85349490  1
  O  O102  1  0.09368090  0.13832527  0.12770956  1
  O  O103  1  0.04870339  0.00772430  0.73845410  1
  O  O104  1  0.10348302  0.71397157  0.16010040  1
  O  O105  1  0.07465775  0.58072362  0.68679475  1
  O  O106  1  0.60175282  0.13360818  0.11924029  1
  O  O107  1  0.56862401  0.06251252  0.59620762  1
  O  O108  1  0.63882129  0.62333769  0.16068916  1
  O  O109  1  0.59863983  0.64677276  0.59307680  1
  O  O110  1  0.38367736  0.37131340  0.34318119  1
  O  O111  1  0.35774088  0.40939022  0.90712117  1
  O  O112  1  0.38666694  0.87218435  0.35885682  1
  O  O113  1  0.40352876  0.86701417  0.84405819  1
  O  O114  1  0.83722501  0.39104216  0.35684222  1
  O  O115  1  0.78826106  0.30787621  0.85987952  1
  O  O116  1  0.84302548  0.86722121  0.33050154  1
  O  O117  1  0.93480794  0.76160947  0.86552426  1
  O  O118  1  0.24639652  0.04879913  0.35650432  1
  O  O119  1  0.21843612  0.03219742  0.87929910  1
  O  O120  1  0.25508844  0.57858944  0.46329975  1
  O  O121  1  0.23660999  0.52955497  0.90552943  1
  O  O122  1  0.74809019  0.01081614  0.34858324  1
  O  O123  1  0.80231287  -0.12918205  0.89027799  1
  O  O124  1  0.74715965  0.50493695  0.36560149  1
  O  O125  1  0.76193299  0.52689355  0.82666980  1
  O  O126  1  0.21146517  0.59974043  0.13975161  1
  O  O127  1  0.12446657  0.52107798  0.54968369  1
  O  O128  1  0.22245536  1.06096680  0.14078134  1
  O  O129  1  0.15183138  1.05747764  0.67989029  1
  O  O130  1  0.80990169  0.49639626  0.05349212  1
  O  O131  1  0.63728544  0.48791846  0.55652533  1
  O  O132  1  0.75121511  1.00655690  0.14185128  1
  O  O133  1  0.77940210  0.90625466  0.63152721  1
  O  O134  1  0.03428352  0.38319716  0.26013973  1
  O  O135  1  0.05052739  0.40477569  0.70623317  1
  O  O136  1  0.04432554  0.85271868  0.22699794  1
  O  O137  1  0.01277673  0.77076146  0.76034313  1
  O  O138  1  0.50925938  0.35719364  0.26080688  1
  O  O139  1  0.46650009  0.38182840  0.78725066  1
  O  O140  1  0.50446879  0.99695994  0.35824367  1
  O  O141  1  0.45959440  0.93824643  0.72573386  1
  O  O142  1  0.47748586  0.14766641  0.23490827  1
  O  O143  1  0.49335528  0.09355087  0.70561960  1
  O  O144  1  0.49933126  0.60810072  0.25615553  1
  O  O145  1  0.45158510  0.62321195  0.90023788  1
  O  O146  1  0.98235511  0.11804251  0.26744081  1
  O  O147  1  0.97626763  0.16251632  0.74183077  1
  O  O148  1  1.00388497  0.63763334  0.24645005  1
  O  O149  1  1.01684568  0.61045579  0.65567493  1
  O  O150  1  0.37775724  0.28113929  0.01046137  1
  O  O151  1  0.33774330  0.25889620  0.49892069  1
  O  O152  1  0.36792957  0.77860118  0.00000705  1
  O  O153  1  0.33701534  0.75112858  0.52049305  1
  O  O154  1  0.85520123  0.25137308  0.01347511  1
  O  O155  1  0.86469926  0.26267166  0.48978878  1
  O  O156  1  0.86414924  0.81279968  0.02996795  1
  O  O157  1  0.91613078  0.74399406  0.42215677  1
  O  O158  1  0.14126621  0.26972524  0.51687913  1
  O  O159  1  0.12483435  0.26398505  1.01226387  1
  O  O160  1  0.16753343  0.86593002  0.54001528  1
  O  O161  1  0.17776110  0.69855124  1.00743085  1
  O  O162  1  0.62096464  0.24405464  0.47314592  1
  O  O163  1  0.64553882  0.23420568  1.01242542  1
  O  O164  1  0.56507802  0.66808151  0.52513148  1
  O  O165  1  0.53320286  0.82995954  1.04061078  1
  O  O166  1  0.48369951  0.25409143  0.12571509  1
  O  O167  1  0.50408728  0.19792296  0.60139023  1
  O  O168  1  0.57352223  0.75229702  0.20378391  1
  O  O169  1  0.54446776  0.77817415  0.72595344  1
  O  O170  1  0.97855972  0.23850009  0.10926124  1
  O  O171  1  0.99115963  0.15906429  0.67430370  1
  O  O172  1  0.97619596  0.74206525  0.11005476  1
  O  O173  1  1.00739426  0.74840160  0.55843469  1
  O  O174  1  0.00879174  0.26081588  0.38801288  1
  O  O175  1  0.01116071  0.26795495  0.88912521  1
  O  O176  1  0.05558850  0.75451165  0.32580024  1
  O  O177  1  0.07662775  0.68182931  0.86229125  1
  O  O178  1  0.51246611  0.24771258  0.35756871  1
  O  O179  1  0.53383136  0.32655867  0.93826264  1
  O  O180  1  0.43332548  0.85020802  0.41076322  1
  O  O181  1  0.45936067  0.85552667  0.88762759  1
  O  O182  1  0.23659701  0.15496831  0.47638636  1
  O  O183  1  0.25832723  0.15045884  0.97696467  1
  O  O184  1  0.19491880  0.71482722  0.56575115  1
  O  O185  1  0.31467741  0.66560077  1.03674072  1
  O  O186  1  0.76301123  0.10534429  0.46077326  1
  O  O187  1  0.74236835  0.11953324  1.00853822  1
  O  O188  1  0.75038065  0.59577168  0.50208288  1
  O  O189  1  0.80227413  0.64011165  0.90730281  1
  O  O190  1  0.24695846  0.35815582  0.00051423  1
  O  O191  1  0.26028370  0.34065388  0.57270610  1
  O  O192  1  0.24348024  0.84198627  -0.04539797  1
  O  O193  1  0.30048031  0.88267339  0.50123277  1
  O  O194  1  0.73657266  0.36268517  0.00990787  1
  O  O195  1  0.76208008  0.38934416  0.50980709  1
  O  O196  1  0.72714433  0.89080156  0.04413098  1
  O  O197  1  0.74798774  0.86584038  0.47743103  1
  O  O198  1  0.12684341  0.48874916  0.21375670  1
  O  O199  1  0.18723387  0.48287200  0.74876943  1
  O  O200  1  0.13293169  1.02326407  0.25139823  1
  O  O201  1  0.12045398  1.02608625  0.74226299  1
  O  O202  1  0.61666151  0.47090804  0.25144361  1
  O  O203  1  0.50035205  0.61670968  0.73110215  1
  O  O204  1  0.62977170  1.03184703  0.23340991  1
  O  O205  1  0.71262732  1.04627455  0.68141408  1
  O  O206  1  0.35533586  0.04350342  0.23792577  1
  O  O207  1  0.33211378  0.00624857  0.76332963  1
  O  O208  1  0.34923811  0.55080394  0.33900302  1
  O  O209  1  0.27354603  0.57955181  0.64758534  1
  O  O210  1  0.85728431  0.02096510  0.25582983  1
  O  O211  1  0.90779124  -0.09489549  0.75774203  1
  O  O212  1  0.85882512  0.50023197  0.23377104  1
  O  O213  1  0.87107497  0.50586216  0.64885839  1
  O  O214  1  0.14966137  0.39160715  0.33082830  1
  O  O215  1  0.12932259  0.37668779  0.85481271  1
  O  O216  1  0.13585771  0.89758202  0.33705440  1
  O  O217  1  0.13653529  0.80955724  0.82933664  1
  O  O218  1  0.63297391  0.34963908  0.35919239  1
  O  O219  1  0.63145864  0.39996077  0.82429513  1
  O  O220  1  0.61514671  0.80528225  0.40119398  1
  O  O221  1  0.60302871  0.90165773  0.88934231  1
  O  O222  1  0.38202250  0.14637883  0.10849066  1
  O  O223  1  0.37646316  0.11164598  0.63874155  1
  O  O224  1  0.37104247  0.55968510  0.18937105  1
  O  O225  1  0.34609300  0.58163414  0.64497895  1
  O  O226  1  0.88869917  0.12484432  0.13789673  1
  O  O227  1  0.88745030  0.03882058  0.67631832  1
  O  O228  1  0.84117695  0.66785797  0.08467491  1
  O  O229  1  0.92523519  0.62221365  0.52097154  1
  O  O230  1  0.25997790  0.23790484  0.10127402  1
  O  O231  1  0.23762771  0.19056291  0.62900832  1
  O  O232  1  0.24083277  0.79212098  0.08298009  1
  O  O233  1  0.26676342  0.80914047  0.63574349  1
  O  O234  1  0.76246701  0.24347101  0.12003712  1
  O  O235  1  0.82562127  0.18808344  0.66117708  1
  O  O236  1  0.76434462  0.78561884  0.15395649  1
  O  O237  1  0.81743561  0.72036699  0.56453320  1
  O  O238  1  0.25342045  0.25402425  0.35769235  1
  O  O239  1  0.21245079  0.25763387  0.89297470  1
  O  O240  1  0.20805525  0.76968106  0.44436487  1
  O  O241  1  0.26444147  0.71860077  0.90160761  1
  O  O242  1  0.73669655  0.23568115  0.35959848  1
  O  O243  1  0.74102238  0.26328883  0.89077337  1
  O  O244  1  0.74881361  0.71226305  0.36375012  1
  O  O245  1  0.77062022  0.73278460  0.81031643  1
  O  O246  1  -0.02089556  0.12474833  0.00667482  1
  O  O247  1  -0.06369365  0.09140491  0.53054869  1
  O  O248  1  0.04804721  0.60502209  0.01731288  1
  O  O249  1  0.07045326  0.62748090  0.42503630  1
  O  O250  1  0.49798269  0.15777355  0.00542592  1
  O  O251  1  0.45157886  0.12885982  0.50876692  1
  O  O252  1  0.49098116  0.66494801  0.09461919  1
  O  O253  1  0.50815035  0.71985676  0.53090736  1
  O  O254  1  0.46690726  0.32499479  0.46863097  1
  O  O255  1  0.45861579  0.42183450  1.03264867  1
  O  O256  1  0.52824522  0.87041023  0.53805454  1
  O  O257  1  0.63913081  0.93496174  0.83817587  1
  O  O258  1  1.00369892  0.32337584  0.41861091  1
  O  O259  1  0.99135746  0.41114728  1.00195238  1
  O  O260  1  1.03163762  0.85886582  0.44029117  1
  O  O261  1  1.04480808  0.76677121  0.95993218  1
  O  O262  1  0.50858306  0.45977437  0.38133443  1
  O  O263  1  0.53698986  0.49150911  0.88876602  1
  O  O264  1  0.55592646  0.95826092  0.39003580  1
  O  O265  1  0.48349145  1.01333180  0.89842650  1
  O  O266  1  0.95446429  0.49736913  0.36350809  1
  O  O267  1  1.02555187  0.51331750  0.89856409  1
  O  O268  1  0.97553803  0.94517516  0.31552422  1
  O  O269  1  1.02978537  0.87817656  0.86767763  1
  O  O270  1  0.01118266  0.02093986  0.12737959  1
  O  O271  1  -0.01070538  -0.05590636  0.57618392  1
  O  O272  1  -0.01675143  0.50360349  0.09588361  1
  O  O273  1  -0.00704882  0.41474563  0.55443004  1
  O  O274  1  0.48846218  0.03848580  0.12655549  1
  O  O275  1  0.44524297  0.00338481  0.57980457  1
  O  O276  1  0.68305716  0.59378556  0.00831672  1
  O  O277  1  0.52905387  0.55835608  0.70575744  1
  O  O278  1  0.23541006  0.39086662  0.22539819  1
  O  O279  1  0.25461539  0.34414954  0.75363694  1
  O  O280  1  0.25777347  0.93572090  0.24029757  1
  O  O281  1  0.26222854  0.87487984  0.76200432  1
  O  O282  1  0.72729798  0.35943722  0.23397541  1
  O  O283  1  0.75522228  0.20814990  0.67073437  1
  O  O284  1  0.72724779  0.90629521  0.23802091  1
  O  O285  1  0.69031263  0.78216729  0.58997399  1
  O  O286  1  0.25565974  0.14878054  0.25402808  1
  O  O287  1  0.25731862  0.14599663  0.78527666  1
  O  O288  1  0.32427174  0.69046118  0.23070969  1
  O  O289  1  0.35278414  0.66619190  0.77545856  1
  O  O290  1  0.75043873  0.12445764  0.25091512  1
  O  O291  1  0.80508239  0.13422900  0.85638785  1
  O  O292  1  0.73408070  0.66676078  0.29525341  1
  O  O293  1  0.74390588  0.63887760  0.70916636  1
  O  O294  1  0.37705417  0.14663924  0.35726053  1
  O  O295  1  0.41796725  0.04063613  0.89604470  1
  O  O296  1  0.41062553  0.59326871  0.48100301  1
  O  O297  1  0.47829517  0.68948036  0.91038508  1
  O  O298  1  0.86111327  0.14095929  0.35532552  1
  O  O299  1  0.87114284  0.16297822  0.85251634  1
  O  O300  1  0.84845027  0.59615229  0.36949470  1
  O  O301  1  0.86652239  0.61402981  0.77865589  1
  O  O302  1  0.10698990  0.37669031  0.13195732  1
  O  O303  1  0.11037026  0.38198191  0.65527935  1
  O  O304  1  0.14066335  0.92213673  0.13515488  1
  O  O305  1  0.09934663  0.85341920  0.66374667  1
  O  O306  1  0.60645595  0.36908241  0.13365358  1
  O  O307  1  0.58203187  0.34396622  0.62810650  1
  O  O308  1  0.59437216  0.92131748  0.14454969  1
  O  O309  1  0.61311143  0.91823578  0.67147259  1
  O  O310  1  0.14096968  0.28660895  0.22350702  1
  O  O311  1  0.11235535  0.26132443  0.76118232  1
  O  O312  1  0.20045766  0.79818506  0.23499035  1
  O  O313  1  0.19069224  0.70577329  0.73524726  1
  O  O314  1  0.61139512  0.25133748  0.24604397  1
  O  O315  1  0.73708386  0.23930128  0.73291672  1
  O  O316  1  0.55788463  0.77394175  0.37171864  1
  O  O317  1  0.55036283  0.77193480  0.79571190  1
  O  O318  1  0.37317590  0.24844527  0.22756230  1
  O  O319  1  0.39301301  0.24032262  0.84321130  1
  O  O320  1  0.41237970  0.70324309  0.34446326  1
  O  O321  1  0.38973506  0.72632583  0.76981119  1
  O  O322  1  0.87070227  0.23471461  0.23212890  1
  O  O323  1  0.86735193  0.05554577  0.74000800  1
  O  O324  1  0.90151410  0.74942390  0.22606562  1
  O  O325  1  0.86329682  0.78975866  0.70102778  1
  O  O326  1  0.34704283  0.44293534  0.48295723  1
  O  O327  1  0.31836520  0.49184655  1.03266609  1
  O  O328  1  0.28421665  0.98236731  0.63351165  1
  O  O329  1  0.34126100  0.97822561  1.06713042  1
  O  O330  1  0.92890622  0.41960015  0.50157177  1
  O  O331  1  0.91998286  0.54883350  0.97249326  1
  O  O332  1  0.87889405  0.97768382  0.43978790  1
  O  O333  1  0.85611385  0.97753226  1.00073996  1
  O  O334  1  0.13033182  0.02425007  0.01875183  1
  O  O335  1  0.03954490  0.02416695  0.43463168  1
  O  O336  1  0.11457408  0.48548587  0.00907082  1
  O  O337  1  0.14643359  0.46470513  0.50836515  1
  O  O338  1  0.61460072  0.02075968  0.03221088  1
  O  O339  1  0.67217429  -0.02152737  0.53405332  1
  O  O340  1  0.66315755  0.53001597  -0.01865249  1
  O  O341  1  0.57570624  0.46272538  0.58033898  1
  O  O342  1  0.35466072  0.36243870  0.12606746  1
  O  O343  1  0.40993391  0.35779451  0.61758281  1
  O  O344  1  0.41813110  0.85786025  0.19947373  1
  O  O345  1  0.40920171  0.84599046  0.64730085  1
  O  O346  1  0.88139837  0.35431865  0.13239085  1
  O  O347  1  0.86936297  0.34179230  0.62815153  1
  O  O348  1  0.86684447  0.89830359  0.15766781  1
  O  O349  1  0.88747784  0.83497500  0.55274230  1
  O  O350  1  0.12950359  0.15661246  0.35595017  1
  O  O351  1  0.11576518  0.15325808  0.87218165  1
  O  O352  1  0.17603034  0.65004706  0.31324733  1
  O  O353  1  0.19473024  0.56887223  0.85608311  1
  O  O354  1  0.63537803  0.13448463  0.36612876  1
  O  O355  1  0.62099591  0.12267633  0.90854462  1
  O  O356  1  0.63607575  0.59894168  0.39066116  1
  O  O357  1  0.66799158  0.61863934  0.82592008  1
