# generated using pymatgen
data_V51Zn51O256
_symmetry_space_group_name_H-M   'P 1'
_cell_length_a   17.16177703
_cell_length_b   17.26499247
_cell_length_c   17.26494222
_cell_angle_alpha   89.10429546
_cell_angle_beta   89.03847315
_cell_angle_gamma   89.65080855
_symmetry_Int_Tables_number   1
_chemical_formula_structural   V51Zn51O256
_chemical_formula_sum   'V51 Zn51 O256'
_cell_volume   5114.13465793
_cell_formula_units_Z   1
loop_
 _symmetry_equiv_pos_site_id
 _symmetry_equiv_pos_as_xyz
  1  'x, y, z'
loop_
 _atom_site_type_symbol
 _atom_site_label
 _atom_site_symmetry_multiplicity
 _atom_site_fract_x
 _atom_site_fract_y
 _atom_site_fract_z
 _atom_site_occupancy
  V  V0  1  0.47185855  0.73713775  0.25313231  1
  V  V1  1  0.87624220  0.24351754  0.11622082  1
  V  V2  1  0.46003525  0.90179921  0.88420687  1
  V  V3  1  0.36135592  0.73439372  0.11126960  1
  V  V4  1  0.61644113  0.24694424  0.36166554  1
  V  V5  1  0.36865667  0.17920100  0.18970884  1
  V  V6  1  0.52961731  0.07474294  0.19610136  1
  V  V7  1  0.88655169  0.09821166  0.75610140  1
  V  V8  1  0.25704724  -0.02559626  0.77409479  1
  V  V9  1  0.71936393  0.51195696  0.74883437  1
  V  V10  1  0.87666537  0.90040278  0.00783789  1
  V  V11  1  0.63857523  0.22601719  0.87250693  1
  V  V12  1  0.36744236  0.30018320  0.62201775  1
  V  V13  1  0.25928310  0.88840354  0.11447673  1
  V  V14  1  0.01046927  0.24554419  0.72077307  1
  V  V15  1  0.62019799  0.38678668  0.24307464  1
  V  V16  1  0.16460933  0.51929170  0.63763512  1
  V  V17  1  0.01762239  0.74340530  0.23773074  1
  V  V18  1  0.75360774  0.10898772  0.36968313  1
  V  V19  1  -0.00012327  0.89200662  0.87864292  1
  V  V20  1  0.75966514  0.75803506  0.02107896  1
  V  V21  1  0.21185547  0.35931101  0.09131924  1
  V  V22  1  0.54742450  0.64232921  0.10542247  1
  V  V23  1  0.18672148  0.20663345  0.42397770  1
  V  V24  1  0.87521504  0.11225182  0.24673487  1
  V  V25  1  0.75140218  0.22350726  -0.00230914  1
  V  V26  1  0.12857485  0.87995330  0.74164512  1
  V  V27  1  0.75382125  0.25885724  0.49202932  1
  V  V28  1  0.12707767  0.75586793  0.90357549  1
  V  V29  1  0.51833988  0.11441729  0.63313499  1
  V  V30  1  0.50056601  -0.00538616  0.03273627  1
  V  V31  1  0.78284943  0.61685094  0.89740389  1
  V  V32  1  0.60754632  0.88459130  0.75808551  1
  V  V33  1  0.86450470  0.26914175  0.62130703  1
  V  V34  1  0.22180696  0.75661903  0.48958312  1
  V  V35  1  0.74947291  0.38808365  0.11612790  1
  V  V36  1  0.84855404  0.58675617  0.25227740  1
  V  V37  1  0.01174684  0.74655377  0.75140507  1
  V  V38  1  0.74691723  0.76175015  0.50950418  1
  V  V39  1  0.36656252  -0.02925271  0.39877930  1
  V  V40  1  0.12253575  0.89535700  0.22780444  1
  V  V41  1  0.13031208  0.61073872  0.00540862  1
  V  V42  1  -0.00286262  0.24533906  0.26072659  1
  V  V43  1  0.49614398  0.49230807  0.00459088  1
  V  V44  1  0.62583954  0.12489422  0.49262429  1
  V  V45  1  0.50402666  0.35794734  0.86755102  1
  V  V46  1  0.64472719  -0.00374458  0.62352633  1
  V  V47  1  -0.00919999  -0.02493420  0.49925003  1
  V  V48  1  -0.01443817  0.61360814  0.12110224  1
  V  V49  1  0.10838423  0.22483160  0.88151281  1
  V  V50  1  0.11179943  0.38652675  0.24325109  1
  Zn  Zn51  1  0.01162632  0.53527450  0.29408939  1
  Zn  Zn52  1  0.17932834  0.69472030  0.68834515  1
  Zn  Zn53  1  0.45931746  0.71149476  0.94239004  1
  Zn  Zn54  1  0.91761517  0.20754305  0.90889034  1
  Zn  Zn55  1  0.55962922  0.06364072  0.79919705  1
  Zn  Zn56  1  0.69150120  0.17518943  0.18002462  1
  Zn  Zn57  1  0.18669499  0.94386174  0.94182414  1
  Zn  Zn58  1  0.07414471  0.57580512  0.82154160  1
  Zn  Zn59  1  0.91048167  0.70670171  0.40269458  1
  Zn  Zn60  1  0.17233344  0.93476915  0.41231375  1
  Zn  Zn61  1  0.82337560  0.80510025  0.87555078  1
  Zn  Zn62  1  0.68305536  0.44194849  0.94464927  1
  Zn  Zn63  1  0.29703234  0.55663804  0.48957571  1
  Zn  Zn64  1  0.49086630  0.41883937  0.67729155  1
  Zn  Zn65  1  0.97147714  0.42348473  0.63939372  1
  Zn  Zn66  1  0.29289422  0.80245657  0.29173939  1
  Zn  Zn67  1  0.01461178  0.76729674  0.54461853  1
  Zn  Zn68  1  0.14414712  0.43442305  0.43204407  1
  Zn  Zn69  1  0.59895256  0.32772437  0.03291710  1
  Zn  Zn70  1  0.31804921  0.56027800  0.05449691  1
  Zn  Zn71  1  0.94523214  0.69878101  0.94063715  1
  Zn  Zn72  1  0.78669981  0.59847340  0.58704052  1
  Zn  Zn73  1  0.30529856  0.80973522  0.94005978  1
  Zn  Zn74  1  0.55226029  0.81520015  0.57925364  1
  Zn  Zn75  1  0.92767662  0.18100967  0.43193070  1
  Zn  Zn76  1  0.46188893  0.15597597  0.92307317  1
  Zn  Zn77  1  0.27933943  0.29077648  0.26984025  1
  Zn  Zn78  1  0.67817536  0.70805496  0.78829086  1
  Zn  Zn79  1  0.92922401  0.42395867  0.18130206  1
  Zn  Zn80  1  0.12125744  0.42602686  0.92683324  1
  Zn  Zn81  1  0.33564479  0.25859666  0.83663050  1
  Zn  Zn82  1  0.06770211  0.06195523  0.79313219  1
  Zn  Zn83  1  0.44558627  0.35501368  0.14871458  1
  Zn  Zn84  1  0.05239409  0.30281248  0.05499750  1
  Zn  Zn85  1  0.54894938  0.79926495  0.03835374  1
  Zn  Zn86  1  0.76974862  0.31768524  0.79131866  1
  Zn  Zn87  1  0.43290186  0.71890352  0.45808148  1
  Zn  Zn88  1  0.18777327  0.20538497  0.63363325  1
  Zn  Zn89  1  0.43514856  0.92467348  0.68551971  1
  Zn  Zn90  1  0.15456409  0.72829896  0.13429147  1
  Zn  Zn91  1  0.43205749  0.91033642  0.20086890  1
  Zn  Zn92  1  0.66522304  0.89378408  0.95794953  1
  Zn  Zn93  1  0.69297128  0.19631824  0.68421263  1
  Zn  Zn94  1  0.76258962  0.60003032  0.10459690  1
  Zn  Zn95  1  0.63394315  0.59200681  0.23681855  1
  Zn  Zn96  1  0.80492292  0.06270919  0.56006487  1
  Zn  Zn97  1  0.17972981  0.18426181  0.17226665  1
  Zn  Zn98  1  0.56413381  0.53747099  0.85571014  1
  Zn  Zn99  1  0.04195423  0.82382321  0.06946865  1
  Zn  Zn100  1  0.78479187  0.28808479  0.28903625  1
  Zn  Zn101  1  0.92839569  0.92372896  0.19899329  1
  O  O102  1  0.12896049  0.09887298  0.10955691  1
  O  O103  1  0.17965435  0.16070389  0.53012484  1
  O  O104  1  0.10082658  0.62916863  0.10818436  1
  O  O105  1  0.12495276  0.61789462  0.61130487  1
  O  O106  1  0.60054996  0.12149723  0.14278653  1
  O  O107  1  0.62911093  0.11388404  0.63203259  1
  O  O108  1  0.64754915  0.62993451  0.12224740  1
  O  O109  1  0.56835809  0.62804990  0.64200998  1
  O  O110  1  0.35404183  0.47886058  0.31492695  1
  O  O111  1  0.40715194  0.33135212  0.88153867  1
  O  O112  1  0.34553011  0.86863228  0.37084980  1
  O  O113  1  0.37092725  0.86781293  0.86280647  1
  O  O114  1  0.98349749  0.44824473  0.51189605  1
  O  O115  1  0.90262799  0.42662118  0.91903318  1
  O  O116  1  0.82396379  0.81796362  0.25775656  1
  O  O117  1  0.89727081  0.88596635  0.87205508  1
  O  O118  1  0.26184052  -0.00843701  0.38569770  1
  O  O119  1  0.26153927  -0.00720613  0.87010784  1
  O  O120  1  0.23597649  0.49530579  0.42717311  1
  O  O121  1  0.28829020  0.49491604  0.86538318  1
  O  O122  1  0.75175135  0.01623978  0.38587566  1
  O  O123  1  0.72393327  0.01960090  0.90901357  1
  O  O124  1  0.83094012  0.50128820  0.43486420  1
  O  O125  1  0.75456959  0.52233695  0.91566127  1
  O  O126  1  0.27911500  0.46374535  0.11116883  1
  O  O127  1  0.25829168  0.54940221  0.60055512  1
  O  O128  1  0.25933898  0.98192190  0.12422412  1
  O  O129  1  0.25844020  1.10376060  0.74688241  1
  O  O130  1  0.75942800  0.48543395  0.11311022  1
  O  O131  1  0.72878432  0.53153434  0.65071300  1
  O  O132  1  0.73464412  0.92597747  0.28490994  1
  O  O133  1  0.74257550  0.98865926  0.62052167  1
  O  O134  1  0.00322553  0.35439267  0.23803289  1
  O  O135  1  0.00174301  0.34478621  0.71630264  1
  O  O136  1  0.01766352  0.86236708  0.21727378  1
  O  O137  1  0.02288358  0.86805741  0.77064284  1
  O  O138  1  0.52398244  0.36437975  0.22736665  1
  O  O139  1  0.52072704  0.36970677  0.77138384  1
  O  O140  1  0.50076561  0.83300079  0.24908177  1
  O  O141  1  0.50599613  0.87414609  0.77463781  1
  O  O142  1  0.45071241  0.13303827  0.23685444  1
  O  O143  1  0.51122643  0.14352819  0.72734547  1
  O  O144  1  0.53501733  0.65447874  0.22080307  1
  O  O145  1  0.50572975  0.68603847  0.79650903  1
  O  O146  1  0.97392725  0.13818300  0.24823859  1
  O  O147  1  0.98869865  0.12779920  0.73986723  1
  O  O148  1  0.99969631  0.63371971  0.23523577  1
  O  O149  1  1.00810114  0.64833829  0.76885288  1
  O  O150  1  0.44756099  0.24276090  0.01891741  1
  O  O151  1  0.35235500  0.32097317  0.52562911  1
  O  O152  1  0.37161536  0.74387499  0.00457689  1
  O  O153  1  0.32380253  0.76547215  0.50327005  1
  O  O154  1  0.87005277  0.24195840  0.00727681  1
  O  O155  1  0.86101381  0.22875180  0.50887787  1
  O  O156  1  0.86501970  0.76836706  -0.01712449  1
  O  O157  1  0.83815700  0.77935360  0.45519622  1
  O  O158  1  0.10229183  0.27468341  0.46088255  1
  O  O159  1  0.08824054  0.22664473  0.97847079  1
  O  O160  1  0.11670001  0.75727454  0.48992133  1
  O  O161  1  0.11454331  0.74769923  1.00412199  1
  O  O162  1  0.64418236  0.23653009  0.48690968  1
  O  O163  1  0.64432168  0.22884419  0.98825762  1
  O  O164  1  0.65145446  0.75970442  0.55282581  1
  O  O165  1  0.65847716  0.78593353  1.01025418  1
  O  O166  1  0.49997160  0.24817441  0.06961281  1
  O  O167  1  0.47171626  0.31775498  0.61717809  1
  O  O168  1  0.48357398  0.74366756  0.11969061  1
  O  O169  1  0.52054705  0.67954553  0.62599750  1
  O  O170  1  0.97647556  0.24749972  0.11990688  1
  O  O171  1  0.96276813  0.22722164  0.62842626  1
  O  O172  1  0.98904376  0.74091988  0.13586362  1
  O  O173  1  1.00788876  0.75446545  0.65282379  1
  O  O174  1  -0.01050876  0.24225577  0.35919647  1
  O  O175  1  0.01001417  0.24283347  0.84072119  1
  O  O176  1  -0.02976534  0.75961640  0.32465164  1
  O  O177  1  0.01084562  0.76473705  0.87256647  1
  O  O178  1  0.52328944  0.24123251  0.37848893  1
  O  O179  1  0.53463947  0.24309776  0.87726693  1
  O  O180  1  0.45901160  0.71359752  0.34831586  1
  O  O181  1  0.50846249  0.82051560  0.93039068  1
  O  O182  1  0.25099765  0.14867637  0.49120692  1
  O  O183  1  0.16659328  0.07448748  1.04695862  1
  O  O184  1  0.22141166  0.65469142  0.47421419  1
  O  O185  1  0.22935077  0.61056617  1.00986400  1
  O  O186  1  0.74371303  0.12486888  0.48998677  1
  O  O187  1  0.76246523  0.13060480  0.99580540  1
  O  O188  1  0.76870476  0.65066645  0.48992937  1
  O  O189  1  0.76392979  0.64969553  1.00030668  1
  O  O190  1  0.19815118  0.38332658  -0.00551974  1
  O  O191  1  0.13527806  0.33307063  0.49774061  1
  O  O192  1  0.25079946  0.88000490  0.00900605  1
  O  O193  1  0.20916583  0.86156994  0.48997118  1
  O  O194  1  0.73822189  0.36824009  0.01558167  1
  O  O195  1  0.75752055  0.35125625  0.47585657  1
  O  O196  1  0.77315694  0.87123637  -0.01692866  1
  O  O197  1  0.75966857  0.85638519  0.53176410  1
  O  O198  1  0.09918323  0.48435739  0.24103291  1
  O  O199  1  0.16896474  0.57673373  0.72810734  1
  O  O200  1  0.11892408  0.98884400  0.21853235  1
  O  O201  1  0.14689555  0.98834859  0.75014147  1
  O  O202  1  0.61745932  0.48367504  0.25550955  1
  O  O203  1  0.62155948  0.49845909  0.76733930  1
  O  O204  1  0.57101017  1.02708528  0.26623978  1
  O  O205  1  0.62488695  0.99225859  0.73385882  1
  O  O206  1  0.38858327  -0.03217079  0.29476739  1
  O  O207  1  0.34394122  -0.02408361  0.72305132  1
  O  O208  1  0.40168455  0.53115635  0.31825186  1
  O  O209  1  0.44990593  0.51942670  0.73633008  1
  O  O210  1  0.88305193  0.01429772  0.23878550  1
  O  O211  1  0.89037943  0.00444041  0.75663112  1
  O  O212  1  0.90053534  0.49720983  0.26787473  1
  O  O213  1  0.91261507  0.52486780  0.67873387  1
  O  O214  1  0.12658545  0.37239785  0.34012746  1
  O  O215  1  0.15766830  0.31862547  0.84255420  1
  O  O216  1  0.12659734  0.88347337  0.33340068  1
  O  O217  1  0.11545611  0.86602493  0.89390996  1
  O  O218  1  0.63108971  0.35202025  0.34415639  1
  O  O219  1  0.60309986  0.36304046  0.91926689  1
  O  O220  1  0.61638223  0.75266612  0.33487238  1
  O  O221  1  0.64373103  0.89109422  0.84886113  1
  O  O222  1  0.37000846  0.15079109  0.10016149  1
  O  O223  1  0.39771397  0.20385856  0.61367116  1
  O  O224  1  0.36564725  0.63634081  0.12334769  1
  O  O225  1  0.41787931  0.56884358  0.69327876  1
  O  O226  1  0.86073647  0.14345261  0.14312693  1
  O  O227  1  0.84482823  0.12571713  0.64925436  1
  O  O228  1  0.87195391  0.62268571  0.15455144  1
  O  O229  1  0.90042572  0.58153568  0.63121429  1
  O  O230  1  0.22060779  0.26075865  0.09265712  1
  O  O231  1  0.26292562  0.28866045  0.62325854  1
  O  O232  1  0.26187481  0.75046502  0.11576310  1
  O  O233  1  0.21789931  0.74615985  0.59199812  1
  O  O234  1  0.75400759  0.24448817  0.10773238  1
  O  O235  1  0.75302010  0.25472536  0.60360132  1
  O  O236  1  0.76939642  0.75318119  0.11457724  1
  O  O237  1  0.78302378  0.71369660  0.59986258  1
  O  O238  1  0.25375411  0.26377619  0.37447312  1
  O  O239  1  0.21605711  0.26451981  0.86551824  1
  O  O240  1  0.23490549  0.76259352  0.38702686  1
  O  O241  1  0.22457865  0.75248047  0.88692058  1
  O  O242  1  0.74831878  0.23254669  0.38051972  1
  O  O243  1  0.75169350  0.25833982  0.89414818  1
  O  O244  1  0.69679463  0.75763819  0.42598331  1
  O  O245  1  0.74956274  0.72472156  0.87302655  1
  O  O246  1  -0.00773781  0.08996326  0.01215077  1
  O  O247  1  -0.02098582  0.07442604  0.46849107  1
  O  O248  1  -0.02226073  0.63128097  0.02294820  1
  O  O249  1  -0.03816022  0.69011035  0.49530144  1
  O  O250  1  0.51138714  0.08450336  -0.00704833  1
  O  O251  1  0.52798644  0.14583206  0.52934440  1
  O  O252  1  0.54310599  0.67148667  0.00748649  1
  O  O253  1  0.53477916  0.60501998  0.47705702  1
  O  O254  1  0.46895563  0.39799362  0.39114787  1
  O  O255  1  0.49080709  0.40186162  1.05245177  1
  O  O256  1  0.50630877  0.79077113  0.48347161  1
  O  O257  1  0.58332229  0.93631234  1.02420780  1
  O  O258  1  0.99715735  0.51186511  0.47265971  1
  O  O259  1  1.01496295  0.38756335  0.98024687  1
  O  O260  1  0.98732776  0.87559302  0.53107716  1
  O  O261  1  0.98740457  0.88001551  0.98905019  1
  O  O262  1  0.51661291  0.40971349  0.44107914  1
  O  O263  1  0.48480846  0.45956351  0.89592499  1
  O  O264  1  0.45875775  0.94454486  0.42905662  1
  O  O265  1  0.48823641  0.99597379  0.85541293  1
  O  O266  1  1.04767484  0.50281318  0.40552951  1
  O  O267  1  1.08568171  0.47089199  0.83404115  1
  O  O268  1  0.97517840  0.93372043  0.40608037  1
  O  O269  1  1.01963474  0.98736946  0.86894082  1
  O  O270  1  -0.01976652  0.06785210  0.07854953  1
  O  O271  1  0.02549776  -0.00695542  0.59390778  1
  O  O272  1  -0.01791301  0.51524398  0.12771804  1
  O  O273  1  0.06931265  0.48489843  0.65575728  1
  O  O274  1  0.47939185  -0.00217020  0.13856169  1
  O  O275  1  0.49003387  0.02118902  0.63324798  1
  O  O276  1  0.51183090  0.54941572  0.10151950  1
  O  O277  1  0.53360902  0.48641978  0.59460088  1
  O  O278  1  0.21451029  0.36399782  0.21361881  1
  O  O279  1  0.31906352  0.55555164  0.84274131  1
  O  O280  1  0.23243781  0.86674526  0.22648742  1
  O  O281  1  0.23340676  0.87325884  0.76511151  1
  O  O282  1  0.73530114  0.36637849  0.22777422  1
  O  O283  1  0.76955228  0.42897408  0.77628252  1
  O  O284  1  0.68364939  0.88948586  0.31826606  1
  O  O285  1  0.76708103  1.00483634  0.85435254  1
  O  O286  1  0.27446741  0.16704491  0.23125397  1
  O  O287  1  0.24994468  0.11285928  0.67334990  1
  O  O288  1  0.26639572  0.62427747  0.28423297  1
  O  O289  1  0.29123820  0.70152671  0.73423137  1
  O  O290  1  0.75911801  0.12256874  0.26173524  1
  O  O291  1  0.78474845  0.11802720  0.70958951  1
  O  O292  1  0.74893966  0.58326742  0.24485688  1
  O  O293  1  0.74173241  0.60713023  0.79089021  1
  O  O294  1  0.38732379  0.06743131  0.39278098  1
  O  O295  1  0.37204600  0.16111503  0.86546490  1
  O  O296  1  0.37843295  0.62737089  0.47373149  1
  O  O297  1  0.44933679  0.65594369  0.84408081  1
  O  O298  1  0.86196970  0.12358138  0.35979694  1
  O  O299  1  0.86977753  0.13105173  0.85031715  1
  O  O300  1  0.86416308  0.63778842  0.33428946  1
  O  O301  1  0.87990222  0.61976085  0.88582603  1
  O  O302  1  0.10881322  0.37288865  0.12091709  1
  O  O303  1  0.20717952  0.44604636  0.69045834  1
  O  O304  1  0.14082128  0.85663062  0.12165907  1
  O  O305  1  0.12620969  0.87191005  0.64859872  1
  O  O306  1  0.63959182  0.37157268  0.12949837  1
  O  O307  1  0.62690283  0.39439146  0.59448889  1
  O  O308  1  0.63755596  0.85972702  0.17920537  1
  O  O309  1  0.60690330  0.90063306  0.62868361  1
  O  O310  1  0.09459642  0.23279100  0.23294812  1
  O  O311  1  0.10743004  0.23034630  0.70120291  1
  O  O312  1  0.11763654  0.74303982  0.24404530  1
  O  O313  1  0.12296134  0.75815114  0.76165073  1
  O  O314  1  0.63363651  0.22844200  0.26372924  1
  O  O315  1  0.66806714  0.25919143  0.77421503  1
  O  O316  1  0.65286295  0.69169619  0.33072920  1
  O  O317  1  0.64529546  0.79462698  0.72947864  1
  O  O318  1  0.37628188  0.28329868  0.20040295  1
  O  O319  1  0.35156796  0.28132517  0.72550654  1
  O  O320  1  0.36828545  0.74358041  0.23034814  1
  O  O321  1  0.35383388  0.70814654  0.69607430  1
  O  O322  1  0.87959106  0.24938215  0.23781696  1
  O  O323  1  0.85024696  0.26951193  0.72331850  1
  O  O324  1  0.77092626  0.77259721  0.27254498  1
  O  O325  1  0.88900295  0.77182628  0.75290746  1
  O  O326  1  0.38038543  0.48838326  0.50567423  1
  O  O327  1  0.41007039  0.54238765  0.99239718  1
  O  O328  1  0.33872311  0.96229432  0.49718016  1
  O  O329  1  0.42992448  0.94366526  0.98585980  1
  O  O330  1  0.81771524  0.49501175  0.50531254  1
  O  O331  1  0.94993155  0.37190621  0.92749021  1
  O  O332  1  0.89044232  0.99084031  0.52518604  1
  O  O333  1  0.87019572  0.99254022  0.98862618  1
  O  O334  1  0.12668768  0.02006259  0.01035612  1
  O  O335  1  0.09225862  -0.01568383  0.47034817  1
  O  O336  1  0.10525722  0.51924905  -0.00502885  1
  O  O337  1  0.14834546  0.47640164  0.54858539  1
  O  O338  1  0.68355206  -0.08969883  0.15925404  1
  O  O339  1  0.62397127  0.02309795  0.52041263  1
  O  O340  1  0.59140661  0.52230871  -0.03098120  1
  O  O341  1  0.60100262  0.45611075  0.56269268  1
  O  O342  1  0.32190061  0.39600705  0.09601652  1
  O  O343  1  0.37315204  0.40213033  0.65267117  1
  O  O344  1  0.36170839  0.86058177  0.12978070  1
  O  O345  1  0.45453126  0.83682967  0.62450343  1
  O  O346  1  0.85664840  0.35589909  0.12563674  1
  O  O347  1  0.88592932  0.36324917  0.59941196  1
  O  O348  1  0.87962025  0.89126156  0.10721208  1
  O  O349  1  0.86758453  0.82526101  0.70668140  1
  O  O350  1  0.14486114  0.14404218  0.37020897  1
  O  O351  1  0.12903033  0.13291458  0.85411855  1
  O  O352  1  0.20577870  0.59046818  0.30204986  1
  O  O353  1  0.10960745  0.64513093  0.90188786  1
  O  O354  1  0.63456019  0.12575121  0.38965124  1
  O  O355  1  0.63411406  0.12972276  0.85728877  1
  O  O356  1  0.55492706  0.55951427  0.42615995  1
  O  O357  1  0.57704708  0.64720852  0.80948664  1
