# generated using pymatgen
data_V51Zn51O256
_symmetry_space_group_name_H-M   'P 1'
_cell_length_a   17.37381030
_cell_length_b   17.98963113
_cell_length_c   17.62346366
_cell_angle_alpha   89.36234406
_cell_angle_beta   91.14507676
_cell_angle_gamma   91.26240089
_symmetry_Int_Tables_number   1
_chemical_formula_structural   V51Zn51O256
_chemical_formula_sum   'V51 Zn51 O256'
_cell_volume   5505.43459328
_cell_formula_units_Z   1
loop_
 _symmetry_equiv_pos_site_id
 _symmetry_equiv_pos_as_xyz
  1  'x, y, z'
loop_
 _atom_site_type_symbol
 _atom_site_label
 _atom_site_symmetry_multiplicity
 _atom_site_fract_x
 _atom_site_fract_y
 _atom_site_fract_z
 _atom_site_occupancy
  V  V0  1  0.25021646  0.19741995  0.81795180  1
  V  V1  1  0.11778989  -0.02640403  0.63465802  1
  V  V2  1  -0.01759239  0.17895778  0.69623191  1
  V  V3  1  0.17441389  0.06514324  0.50731544  1
  V  V4  1  0.52364213  0.49976236  -0.00698283  1
  V  V5  1  0.13445643  0.15605725  -0.02155442  1
  V  V6  1  0.81370364  0.33423799  0.05797592  1
  V  V7  1  0.85974765  0.12520443  0.23877384  1
  V  V8  1  0.53642012  0.69466449  0.47962311  1
  V  V9  1  0.83450344  0.37757083  0.52525413  1
  V  V10  1  0.63947817  -0.00038227  0.67408244  1
  V  V11  1  0.67561645  0.15539629  -0.00664301  1
  V  V12  1  0.10649190  0.63996796  0.03706106  1
  V  V13  1  0.69796572  0.83921693  0.72690697  1
  V  V14  1  0.62925420  0.49313657  0.18760476  1
  V  V15  1  0.64076778  0.73987762  0.89247204  1
  V  V16  1  0.15591976  0.88586540  0.78397912  1
  V  V17  1  0.39904280  0.09562359  0.22241609  1
  V  V18  1  0.52201278  0.92535616  0.89156646  1
  V  V19  1  0.18985312  0.57523524  0.41429163  1
  V  V20  1  0.03226311  0.00225686  -0.03351419  1
  V  V21  1  0.60563875  0.32308292  0.26742340  1
  V  V22  1  0.61258888  0.87212561  0.23311158  1
  V  V23  1  0.33230083  -0.03027646  0.34679828  1
  V  V24  1  0.52000689  0.17848839  0.08737119  1
  V  V25  1  0.21500940  0.81329486  0.60838599  1
  V  V26  1  0.75994355  0.63401642  0.40724711  1
  V  V27  1  0.03126073  0.82843829  0.37160706  1
  V  V28  1  -0.05209415  0.35255541  0.39001767  1
  V  V29  1  0.65920044  0.58102747  0.04224944  1
  V  V30  1  0.38779888  0.36864685  -0.00737947  1
  V  V31  1  0.66373574  0.28488911  0.84134421  1
  V  V32  1  0.76550260  0.74387204  0.02587463  1
  V  V33  1  0.39601059  0.65440411  0.75598854  1
  V  V34  1  0.27121320  0.26343177  0.02053426  1
  V  V35  1  0.57732514  0.14240713  0.47340943  1
  V  V36  1  0.48373213  0.47230879  0.50226668  1
  V  V37  1  0.50710056  0.38598746  0.86480879  1
  V  V38  1  0.81573173  0.07741705  0.84516101  1
  V  V39  1  0.81929227  0.22131039  0.62233600  1
  V  V40  1  0.61592263  0.50140706  0.62502801  1
  V  V41  1  0.30863953  -0.03215096  0.76000568  1
  V  V42  1  0.33631964  0.73698629  0.02396182  1
  V  V43  1  -0.03690562  0.76553962  0.22154974  1
  V  V44  1  0.77139421  0.62825133  0.86918072  1
  V  V45  1  0.39699332  0.94781031  0.00003252  1
  V  V46  1  0.76586931  0.90432719  0.10478640  1
  V  V47  1  0.26749851  0.91494144  0.11111900  1
  V  V48  1  -0.00822081  0.79754985  0.79160337  1
  V  V49  1  -0.00213767  0.40897286  0.85761848  1
  V  V50  1  0.02356481  0.58019226  0.63628010  1
  Zn  Zn51  1  0.63264284  0.18423161  0.67613221  1
  Zn  Zn52  1  0.28746127  0.49465557  0.56986253  1
  Zn  Zn53  1  0.74965693  0.73053380  0.23022003  1
  Zn  Zn54  1  0.70571054  0.98080898  0.95704124  1
  Zn  Zn55  1  0.81508689  0.29652357  0.32927881  1
  Zn  Zn56  1  0.24454892  0.10977610  0.10899712  1
  Zn  Zn57  1  0.71259254  0.44105038  0.92202256  1
  Zn  Zn58  1  0.43979132  0.46511557  0.69296053  1
  Zn  Zn59  1  0.48376392  0.89539756  0.70800269  1
  Zn  Zn60  1  0.01617627  0.29302034  0.54946275  1
  Zn  Zn61  1  0.21787982  0.83061979  0.27991291  1
  Zn  Zn62  1  0.69415461  0.66359549  0.57269871  1
  Zn  Zn63  1  0.38401718  0.14552471  -0.04600618  1
  Zn  Zn64  1  0.39508005  0.58559865  0.43363977  1
  Zn  Zn65  1  0.60010255  0.85913992  0.03430097  1
  Zn  Zn66  1  0.82347867  0.42307927  0.22328029  1
  Zn  Zn67  1  0.95552786  0.99359024  0.77026664  1
  Zn  Zn68  1  0.41613188  0.90127512  0.19753109  1
  Zn  Zn69  1  0.76009427  0.06446438  0.52082297  1
  Zn  Zn70  1  0.83443533  0.71741887  0.69940779  1
  Zn  Zn71  1  0.48576637  0.66410064  0.94791930  1
  Zn  Zn72  1  0.21846956  0.75357106  0.11760080  1
  Zn  Zn73  1  0.28039012  0.38948648  0.86454322  1
  Zn  Zn74  1  0.93991240  0.67802093  0.46714063  1
  Zn  Zn75  1  0.69911143  0.47328311  0.48565542  1
  Zn  Zn76  1  0.61720742  0.07515705  0.83233567  1
  Zn  Zn77  1  0.47287551  0.30545324  0.41225995  1
  Zn  Zn78  1  0.17132150  0.89986663  0.44415581  1
  Zn  Zn79  1  0.34227691  0.82617240  0.85509873  1
  Zn  Zn80  1  0.58735187  0.55793840  0.37333064  1
  Zn  Zn81  1  0.62358286  0.54549075  0.81976974  1
  Zn  Zn82  1  0.07485900  0.83015437  0.05809444  1
  Zn  Zn83  1  0.50940466  0.37764451  0.10928326  1
  Zn  Zn84  1  0.38088028  0.14189963  0.39956601  1
  Zn  Zn85  1  0.06830222  0.30068184  -0.01691100  1
  Zn  Zn86  1  0.87657308  0.18927092  0.43837799  1
  Zn  Zn87  1  0.84937630  0.06171347  0.03009487  1
  Zn  Zn88  1  0.91424083  0.92840680  0.22598629  1
  Zn  Zn89  1  0.69954535  0.20566447  0.16576257  1
  Zn  Zn90  1  0.82376741  0.57015886  0.57255117  1
  Zn  Zn91  1  0.16210658  0.54719887  0.87218310  1
  Zn  Zn92  1  0.14084165  0.65274920  0.22486371  1
  Zn  Zn93  1  0.20719793  0.62776330  0.70001410  1
  Zn  Zn94  1  0.57063257  0.84937757  0.56967078  1
  Zn  Zn95  1  0.63862559  0.95632025  0.41102669  1
  Zn  Zn96  1  0.85744035  0.24865650  0.81422689  1
  Zn  Zn97  1  0.93603795  0.68680742  0.95184432  1
  Zn  Zn98  1  0.09557675  0.07693777  0.80701809  1
  Zn  Zn99  1  0.11816480  0.41849365  0.45923282  1
  Zn  Zn100  1  0.21938248  0.98473207  0.92982145  1
  Zn  Zn101  1  0.24313045  0.11003541  0.64517800  1
  O  O102  1  0.14404306  0.14728153  0.07524367  1
  O  O103  1  0.13142309  0.07321524  0.61650285  1
  O  O104  1  0.11955061  0.60514602  0.13007103  1
  O  O105  1  0.12674327  0.56402479  0.64206166  1
  O  O106  1  0.62608794  0.16057428  0.08622469  1
  O  O107  1  0.57538935  0.15412054  0.57649435  1
  O  O108  1  0.65482335  0.58508101  0.14200904  1
  O  O109  1  0.58530379  0.65983466  0.56060396  1
  O  O110  1  0.34977832  0.41293141  0.30052679  1
  O  O111  1  0.39811556  0.40190777  0.89187263  1
  O  O112  1  0.40320571  0.80131548  0.30551460  1
  O  O113  1  0.40893418  0.90193054  0.90101522  1
  O  O114  1  0.84407009  0.37285806  0.41565322  1
  O  O115  1  0.92818525  0.33495240  0.84460992  1
  O  O116  1  0.88446809  0.97221527  0.42715225  1
  O  O117  1  0.88632968  0.87998590  0.92572644  1
  O  O118  1  0.24655371  -0.09220447  0.35916340  1
  O  O119  1  0.28369661  0.01352378  0.84117130  1
  O  O120  1  0.20222511  0.47387909  0.39605480  1
  O  O121  1  0.23174094  0.47816144  0.83695056  1
  O  O122  1  0.72414713  0.02426143  0.42431935  1
  O  O123  1  0.80760888  0.01853056  0.92849344  1
  O  O124  1  0.70187177  0.54899469  0.40399762  1
  O  O125  1  0.73095039  0.53097089  0.86184723  1
  O  O126  1  0.20615255  0.46641089  0.14423073  1
  O  O127  1  0.27154031  0.55451131  0.65676002  1
  O  O128  1  0.23396408  1.00242704  0.11951203  1
  O  O129  1  0.27075235  1.01039730  0.68095836  1
  O  O130  1  0.72300446  0.47106796  0.20675500  1
  O  O131  1  0.70551211  0.54379956  0.57998815  1
  O  O132  1  0.75713592  0.99281380  0.06728588  1
  O  O133  1  0.69865146  1.01785005  0.60155245  1
  O  O134  1  -0.10586015  0.36806455  0.29033927  1
  O  O135  1  0.00505922  0.40337622  0.76019875  1
  O  O136  1  -0.03550715  0.85117885  0.28669343  1
  O  O137  1  -0.03564330  0.88762405  0.78252823  1
  O  O138  1  0.52257611  0.32058059  0.31800749  1
  O  O139  1  0.49002203  0.41269893  0.77231929  1
  O  O140  1  0.51752429  0.86183289  0.20068499  1
  O  O141  1  0.52708506  0.87597755  0.81061472  1
  O  O142  1  0.58198553  0.05744468  0.24498256  1
  O  O143  1  0.60931961  0.08288683  0.71700755  1
  O  O144  1  0.44314930  0.66168638  0.24151797  1
  O  O145  1  0.49289037  0.68031341  0.74521509  1
  O  O146  1  0.95344127  0.15677044  0.23849482  1
  O  O147  1  1.00901146  0.08727769  0.73021909  1
  O  O148  1  1.02203709  0.67440371  0.23563818  1
  O  O149  1  1.01208644  0.56518322  0.73251249  1
  O  O150  1  0.38191168  0.27144530  -0.00150156  1
  O  O151  1  0.37104908  0.21155704  0.58244165  1
  O  O152  1  0.42897865  0.70332706  0.02677471  1
  O  O153  1  0.38514119  0.80932135  0.48062081  1
  O  O154  1  0.87355889  0.25537968  0.00644835  1
  O  O155  1  0.83795317  0.25262483  0.52066963  1
  O  O156  1  0.86213208  0.73329688  0.02148536  1
  O  O157  1  0.80917210  0.83609116  0.44896319  1
  O  O158  1  0.10417191  0.15883120  0.48300305  1
  O  O159  1  0.17681565  0.25562254  0.97208565  1
  O  O160  1  -0.01602458  0.76623285  0.43352778  1
  O  O161  1  0.12809136  0.73723645  1.03894591  1
  O  O162  1  0.55647502  0.23985123  0.46580772  1
  O  O163  1  0.65864719  0.22991489  0.92969716  1
  O  O164  1  0.54405603  0.79115948  0.47905603  1
  O  O165  1  0.65046104  0.76573498  0.99355777  1
  O  O166  1  0.50912860  0.26747838  0.11146051  1
  O  O167  1  0.40432040  0.27149110  0.59312570  1
  O  O168  1  0.35109124  0.56380253  0.13632274  1
  O  O169  1  0.48547126  0.82230657  0.63355842  1
  O  O170  1  0.91863553  0.28583555  0.05903614  1
  O  O171  1  0.99171040  0.20375153  0.60055755  1
  O  O172  1  1.00605019  0.80131452  0.14219698  1
  O  O173  1  1.05089531  0.67581126  0.64526535  1
  O  O174  1  -0.04413232  0.25606681  0.39176557  1
  O  O175  1  0.08157924  0.34654834  0.87675709  1
  O  O176  1  -0.00405228  0.70278726  0.30544400  1
  O  O177  1  -0.02464305  0.75810916  0.87845596  1
  O  O178  1  0.37616214  0.24756653  0.41251486  1
  O  O179  1  0.50499423  0.29442864  0.86609308  1
  O  O180  1  0.39319368  0.64439358  0.28763217  1
  O  O181  1  0.54140930  0.74415573  0.89674605  1
  O  O182  1  0.26067002  0.10710146  0.53393515  1
  O  O183  1  0.28613494  0.16135332  1.01482911  1
  O  O184  1  0.22765363  0.57943324  0.50992344  1
  O  O185  1  0.27322396  0.67189929  1.06236281  1
  O  O186  1  0.67803115  0.15034340  0.49326716  1
  O  O187  1  0.76953553  0.14506810  1.01147429  1
  O  O188  1  0.71704460  0.69629590  0.46215668  1
  O  O189  1  0.73501144  0.63469291  1.01227168  1
  O  O190  1  0.28236228  0.36777173  -0.01930827  1
  O  O191  1  0.30051524  0.29728682  0.44360097  1
  O  O192  1  0.28877263  0.93033966  -0.00222472  1
  O  O193  1  0.18315149  0.81448564  0.51485075  1
  O  O194  1  0.78129791  0.37742060  -0.02268659  1
  O  O195  1  0.73511082  0.37562275  0.51026973  1
  O  O196  1  0.76650049  0.85060847  0.02245404  1
  O  O197  1  0.63688749  0.90665029  0.50420878  1
  O  O198  1  0.03147958  0.36299026  0.19220340  1
  O  O199  1  0.14965228  0.61753645  0.79185890  1
  O  O200  1  0.05370941  1.03834056  0.16881131  1
  O  O201  1  0.12235325  0.97743361  0.74790760  1
  O  O202  1  0.58918531  0.52067030  0.26830465  1
  O  O203  1  0.61191378  0.54628675  0.71255480  1
  O  O204  1  0.71421366  0.94113824  0.25558851  1
  O  O205  1  0.68713418  0.93882396  0.73944502  1
  O  O206  1  0.39068299  -0.00029959  0.25764967  1
  O  O207  1  0.40383312  -0.04402306  0.74542280  1
  O  O208  1  0.34091022  0.47079557  0.26349360  1
  O  O209  1  0.40021755  0.55664784  0.74411646  1
  O  O210  1  0.87693468  0.02822367  0.24500659  1
  O  O211  1  0.83914553  -0.13636224  0.87690512  1
  O  O212  1  0.90728199  0.54198033  0.26104267  1
  O  O213  1  0.79275493  0.49695985  0.71654460  1
  O  O214  1  0.03640367  0.39685453  0.38169185  1
  O  O215  1  0.06784884  0.48110257  0.86609681  1
  O  O216  1  0.05604788  0.90577453  0.42077706  1
  O  O217  1  0.15404940  0.90712072  0.87659237  1
  O  O218  1  0.67027576  0.36118015  0.34439079  1
  O  O219  1  0.63175646  0.37703331  0.86234744  1
  O  O220  1  0.59956068  0.91680397  0.32008024  1
  O  O221  1  0.62152964  0.91441897  0.93367650  1
  O  O222  1  0.46603571  0.11507205  0.14672868  1
  O  O223  1  0.43336032  0.16775663  0.71021407  1
  O  O224  1  0.41929612  0.55695838  0.15073083  1
  O  O225  1  0.38484068  0.66277356  0.65762204  1
  O  O226  1  0.86489584  0.10980979  0.13676248  1
  O  O227  1  0.81559415  0.13041142  0.59365898  1
  O  O228  1  0.90378467  0.59665612  0.11636239  1
  O  O229  1  0.92105838  0.58325725  0.64143454  1
  O  O230  1  0.25650166  0.27878261  0.10935524  1
  O  O231  1  0.24646577  0.33466596  0.64171563  1
  O  O232  1  0.32458835  0.81333917  0.08410921  1
  O  O233  1  0.20624308  0.72289902  0.64886417  1
  O  O234  1  0.74521010  0.28171942  0.10306250  1
  O  O235  1  0.72745345  0.23409960  0.64893891  1
  O  O236  1  0.74399937  0.73592835  0.12001100  1
  O  O237  1  0.79968161  0.66909103  0.60828463  1
  O  O238  1  0.24331529  0.26022253  0.46159125  1
  O  O239  1  0.25056344  0.29241217  0.82730674  1
  O  O240  1  0.14995434  0.66080299  0.42056108  1
  O  O241  1  0.30788004  0.75987048  0.93122857  1
  O  O242  1  0.77956071  0.21416202  0.38614548  1
  O  O243  1  0.75868406  0.29316209  0.82188745  1
  O  O244  1  0.76181892  0.85716045  0.40152676  1
  O  O245  1  0.75620397  0.72644705  0.91149764  1
  O  O246  1  0.04456906  0.18851293  -0.03347316  1
  O  O247  1  0.04044335  0.12596411  0.46851648  1
  O  O248  1  0.01121182  0.63166521  0.00958680  1
  O  O249  1  0.00583015  0.61795183  0.53900056  1
  O  O250  1  0.48946578  0.16529267  -0.00248363  1
  O  O251  1  0.47549671  0.12698045  0.46943455  1
  O  O252  1  0.56856354  0.60273669  -0.00204389  1
  O  O253  1  0.43760382  0.67174619  0.47910406  1
  O  O254  1  0.46802880  0.38008185  0.48757454  1
  O  O255  1  0.50571486  0.39462428  0.98409037  1
  O  O256  1  0.32295112  0.79369553  0.45159899  1
  O  O257  1  0.49738472  0.91039940  1.00617635  1
  O  O258  1  0.94907553  0.36384335  0.49764884  1
  O  O259  1  0.99132513  0.38374421  0.96079413  1
  O  O260  1  0.91917509  1.03256013  0.44290461  1
  O  O261  1  1.04064415  0.91211875  0.99607449  1
  O  O262  1  0.48233582  0.52114085  0.40989917  1
  O  O263  1  0.55219006  0.49530054  0.89298898  1
  O  O264  1  0.46218892  0.78522153  0.34044444  1
  O  O265  1  0.52751009  1.01595185  0.86158473  1
  O  O266  1  0.92749807  0.54428679  0.32848286  1
  O  O267  1  0.92934760  0.47521064  0.86617869  1
  O  O268  1  0.87658793  1.08610939  0.48340300  1
  O  O269  1  1.01510931  1.01665561  0.86937074  1
  O  O270  1  0.03073615  -0.02442553  0.19090506  1
  O  O271  1  0.02689529  -0.04161063  0.61713516  1
  O  O272  1  0.04705231  0.37197963  0.12371644  1
  O  O273  1  0.02270855  0.49157355  0.59831449  1
  O  O274  1  0.59026148  0.01343036  0.19268866  1
  O  O275  1  0.55783781  -0.04693811  0.64031141  1
  O  O276  1  0.55082904  0.48562994  0.09885175  1
  O  O277  1  0.50260761  0.49281224  0.60852945  1
  O  O278  1  0.22617140  0.28713794  0.28122963  1
  O  O279  1  0.29881374  0.36348081  0.68162999  1
  O  O280  1  0.29629471  0.88786283  0.20942329  1
  O  O281  1  0.26339219  0.87240163  0.77876892  1
  O  O282  1  0.72064722  0.34335785  0.28535313  1
  O  O283  1  0.79320134  0.42898494  0.71631355  1
  O  O284  1  0.77255692  0.90688109  0.22744746  1
  O  O285  1  0.79072934  0.81675123  0.71511767  1
  O  O286  1  0.31159746  0.12727222  0.19542307  1
  O  O287  1  0.24998741  0.18090933  0.72158089  1
  O  O288  1  0.17038773  0.58486967  0.31365726  1
  O  O289  1  0.29168345  0.65039337  0.77640368  1
  O  O290  1  0.75571121  0.12116971  0.21716255  1
  O  O291  1  0.85128889  0.02511429  0.77310282  1
  O  O292  1  0.77119292  0.66986226  0.31712086  1
  O  O293  1  0.79014202  0.65284284  0.77878305  1
  O  O294  1  0.31875717  0.05502623  0.38602571  1
  O  O295  1  0.33530726  0.16840746  0.85769317  1
  O  O296  1  0.28817760  0.59439095  0.39523738  1
  O  O297  1  0.42381994  0.63084143  0.85389212  1
  O  O298  1  0.84984506  0.11295898  0.33656632  1
  O  O299  1  0.87378917  0.15495772  0.86415359  1
  O  O300  1  0.85084900  0.61684099  0.45787236  1
  O  O301  1  0.85904582  0.61557269  0.91171044  1
  O  O302  1  0.09134265  0.31748206  0.09075788  1
  O  O303  1  0.11177907  0.32996314  0.51507755  1
  O  O304  1  0.18074383  0.86292451  0.10487135  1
  O  O305  1  0.15872934  0.87862709  0.66222523  1
  O  O306  1  0.59279125  0.38772391  0.18994754  1
  O  O307  1  0.64090057  0.41719105  0.64663579  1
  O  O308  1  0.65976152  0.88533450  0.13052829  1
  O  O309  1  0.64860008  0.80888602  0.64916024  1
  O  O310  1  0.15597278  0.29071034  0.28310815  1
  O  O311  1  0.03944928  0.23398476  0.74474813  1
  O  O312  1  0.11743978  0.80354608  0.33475096  1
  O  O313  1  0.09757805  0.80418905  0.77880056  1
  O  O314  1  0.62305946  0.23584534  0.23565754  1
  O  O315  1  0.61650581  0.23994462  0.76848996  1
  O  O316  1  0.65732753  0.79105498  0.25260565  1
  O  O317  1  0.66262121  0.79859615  0.81239506  1
  O  O318  1  0.42723446  0.14667398  0.29781393  1
  O  O319  1  0.45370653  0.23298115  0.71737598  1
  O  O320  1  0.21067098  0.73693479  0.22606539  1
  O  O321  1  0.37749932  0.74994041  0.77827041  1
  O  O322  1  0.83752519  0.22429347  0.23772202  1
  O  O323  1  0.88270826  0.21260652  0.71161361  1
  O  O324  1  0.86900975  0.74820451  0.20941099  1
  O  O325  1  0.93942673  0.74678822  0.72635752  1
  O  O326  1  0.38089196  0.50687722  0.51377532  1
  O  O327  1  0.43540270  0.52978666  0.99042830  1
  O  O328  1  0.40124708  0.93252771  0.39684852  1
  O  O329  1  0.40311907  1.03806663  0.97702439  1
  O  O330  1  0.84829129  0.47057508  0.54581930  1
  O  O331  1  0.84446575  0.55892641  1.11357987  1
  O  O332  1  0.88665950  0.89639745  0.57130432  1
  O  O333  1  0.95998995  1.04229393  1.01556430  1
  O  O334  1  0.13123143  0.04635719  -0.03023144  1
  O  O335  1  0.16775812  -0.03352495  0.53896864  1
  O  O336  1  0.19344348  0.42070410  0.19482158  1
  O  O337  1  0.19730168  0.43733813  0.54331276  1
  O  O338  1  0.64228966  0.07573632  -0.04998262  1
  O  O339  1  0.57836060  0.04381138  0.46910821  1
  O  O340  1  0.67375534  0.49248581  0.01394868  1
  O  O341  1  0.58830800  0.48514670  0.50579730  1
  O  O342  1  0.39929311  0.39966488  0.08450483  1
  O  O343  1  0.34856467  0.41869902  0.63914297  1
  O  O344  1  0.38369444  0.94736660  0.10219536  1
  O  O345  1  0.30594308  0.83953699  0.61390695  1
  O  O346  1  0.84860632  0.39954511  0.12049560  1
  O  O347  1  0.85197805  0.33005763  0.61636447  1
  O  O348  1  0.86271358  0.90182818  0.13242880  1
  O  O349  1  0.82839789  0.93251561  0.57891776  1
  O  O350  1  0.16932694  0.04976993  0.41571076  1
  O  O351  1  0.16753454  0.14523815  0.86200917  1
  O  O352  1  0.09935125  0.53190619  0.44335969  1
  O  O353  1  0.15392635  0.58702883  0.96971788  1
  O  O354  1  0.59599065  0.15094594  0.37726273  1
  O  O355  1  0.72430099  0.10555189  0.81962131  1
  O  O356  1  0.57028553  0.66139538  0.39476580  1
  O  O357  1  0.64792695  0.64712604  0.86261195  1
