# generated using pymatgen
data_V51Zn51O256
_symmetry_space_group_name_H-M   'P 1'
_cell_length_a   17.59475921
_cell_length_b   17.87827414
_cell_length_c   17.64621379
_cell_angle_alpha   87.21732319
_cell_angle_beta   93.33680833
_cell_angle_gamma   90.06799344
_symmetry_Int_Tables_number   1
_chemical_formula_structural   V51Zn51O256
_chemical_formula_sum   'V51 Zn51 O256'
_cell_volume   5534.90995208
_cell_formula_units_Z   1
loop_
 _symmetry_equiv_pos_site_id
 _symmetry_equiv_pos_as_xyz
  1  'x, y, z'
loop_
 _atom_site_type_symbol
 _atom_site_label
 _atom_site_symmetry_multiplicity
 _atom_site_fract_x
 _atom_site_fract_y
 _atom_site_fract_z
 _atom_site_occupancy
  V  V0  1  -0.03318327  0.72252190  0.77617940  1
  V  V1  1  0.72778344  0.46136264  0.71400132  1
  V  V2  1  0.77135657  0.73092048  0.48080353  1
  V  V3  1  -0.00197182  0.86537232  0.38371437  1
  V  V4  1  0.90890235  0.21638545  0.08432800  1
  V  V5  1  0.41503838  0.62277320  0.70459978  1
  V  V6  1  0.10571053  0.14411120  0.01585995  1
  V  V7  1  0.01975836  0.63031608  0.10504427  1
  V  V8  1  0.86124080  0.23711292  0.66999490  1
  V  V9  1  0.75404792  0.88964730  0.11097684  1
  V  V10  1  0.25634582  0.54583266  0.24614693  1
  V  V11  1  0.88958536  0.62928635  0.22998136  1
  V  V12  1  0.59342085  0.75752312  0.89648890  1
  V  V13  1  0.03233823  0.38277830  0.88025551  1
  V  V14  1  0.53384990  0.86353966  0.33180301  1
  V  V15  1  0.77442010  0.47977786  0.23594745  1
  V  V16  1  0.75292055  0.75409574  0.00798481  1
  V  V17  1  0.88830690  0.69519206  0.61240484  1
  V  V18  1  0.09554771  -0.00826356  0.61080437  1
  V  V19  1  0.86284000  0.17073220  0.25756507  1
  V  V20  1  0.25479727  0.13746184  0.89331078  1
  V  V21  1  0.09222958  0.24073564  0.43740704  1
  V  V22  1  0.11535624  0.38987478  0.72408939  1
  V  V23  1  0.85991805  -0.00638487  0.33147310  1
  V  V24  1  0.65787034  0.91679245  0.23555513  1
  V  V25  1  0.13906052  0.49154732  0.11948041  1
  V  V26  1  0.26461081  0.62458169  0.41001281  1
  V  V27  1  0.86741700  0.90510147  0.52733292  1
  V  V28  1  0.59027847  0.89954826  0.76816633  1
  V  V29  1  0.30721174  0.33749544  0.25672529  1
  V  V30  1  0.46972371  0.26977050  0.75309195  1
  V  V31  1  0.90165907  0.76399840  0.12039826  1
  V  V32  1  -0.01705065  0.14711601  0.61829491  1
  V  V33  1  0.32852527  0.38707240  -0.02217122  1
  V  V34  1  0.26637457  0.75648532  0.00752934  1
  V  V35  1  0.13978143  0.86643755  0.25322233  1
  V  V36  1  0.23672175  0.39283222  0.58236494  1
  V  V37  1  0.86953111  0.37391874  0.53803559  1
  V  V38  1  0.89729023  0.52216072  0.37167655  1
  V  V39  1  0.51019853  0.18339847  0.13204950  1
  V  V40  1  0.74694817  0.11513699  0.86867378  1
  V  V41  1  0.49193979  -0.06882028  -0.00833749  1
  V  V42  1  0.35293120  -0.05570109  0.83475653  1
  V  V43  1  0.08520868  0.03257852  0.19646096  1
  V  V44  1  0.53382150  0.61052344  0.58647642  1
  V  V45  1  0.71945170  0.19232374  0.35270162  1
  V  V46  1  0.69156930  0.27819111  -0.04276383  1
  V  V47  1  0.75877276  0.63680163  0.86185964  1
  V  V48  1  0.01041407  0.39763765  0.35896640  1
  V  V49  1  0.53386692  0.75204727  0.68658501  1
  V  V50  1  0.25344996  0.62381013  0.79532216  1
  Zn  Zn51  1  0.92380951  0.20060645  0.91802977  1
  Zn  Zn52  1  0.39630858  0.75847458  0.83904194  1
  Zn  Zn53  1  0.14802744  0.87066492  0.51799111  1
  Zn  Zn54  1  0.01132995  0.09563850  0.34512764  1
  Zn  Zn55  1  0.08291860  0.68310937  0.68958059  1
  Zn  Zn56  1  0.71042803  0.70926784  0.17988427  1
  Zn  Zn57  1  0.70462819  0.89061225  0.42776870  1
  Zn  Zn58  1  0.67754222  0.93156499  0.93000965  1
  Zn  Zn59  1  0.41025953  0.26495140  0.42004953  1
  Zn  Zn60  1  0.72224359  0.21229398  0.14824440  1
  Zn  Zn61  1  0.34333832  0.22042835  0.59209001  1
  Zn  Zn62  1  0.07627420  0.31590665  0.07279096  1
  Zn  Zn63  1  0.51415374  0.18935212  0.56219838  1
  Zn  Zn64  1  0.91208418  0.70070217  0.41027809  1
  Zn  Zn65  1  0.41841194  0.09656001  0.01017714  1
  Zn  Zn66  1  0.68970321  0.15893179  0.67275895  1
  Zn  Zn67  1  0.67945244  0.45755707  0.88460310  1
  Zn  Zn68  1  0.17501154  0.21201456  0.62371939  1
  Zn  Zn69  1  0.28064421  0.32103776  0.81843817  1
  Zn  Zn70  1  0.04800074  0.54241007  0.25612314  1
  Zn  Zn71  1  0.96511530  0.90411912  0.20761260  1
  Zn  Zn72  1  0.25412537  0.59278776  0.60874512  1
  Zn  Zn73  1  0.49122129  0.97815434  0.16156992  1
  Zn  Zn74  1  0.70727198  0.68812099  0.65935403  1
  Zn  Zn75  1  0.18126097  0.20464297  0.17534084  1
  Zn  Zn76  1  0.24916462  0.54825775  -0.01851278  1
  Zn  Zn77  1  0.03917207  0.33175849  0.58575857  1
  Zn  Zn78  1  0.29308788  0.08577949  0.71700294  1
  Zn  Zn79  1  0.61788842  0.60087510  0.77226318  1
  Zn  Zn80  1  0.52472860  0.36358379  0.00781775  1
  Zn  Zn81  1  0.91644808  0.22984560  0.44387673  1
  Zn  Zn82  1  0.82660002  0.80987749  0.28839621  1
  Zn  Zn83  1  0.56550105  0.76957862  0.08451564  1
  Zn  Zn84  1  0.19438868  0.70454814  0.16497462  1
  Zn  Zn85  1  0.12094134  0.09443224  0.75361002  1
  Zn  Zn86  1  0.91062103  0.01554509  0.07814347  1
  Zn  Zn87  1  0.79316198  0.59005730  0.09989531  1
  Zn  Zn88  1  0.57991275  0.73881584  0.49433030  1
  Zn  Zn89  1  0.91915729  0.68801249  0.94706281  1
  Zn  Zn90  1  0.77475789  0.33545454  0.79868059  1
  Zn  Zn91  1  0.91205104  0.39802772  0.72600133  1
  Zn  Zn92  1  0.44340071  0.70488614  0.41421014  1
  Zn  Zn93  1  0.79648978  0.55067750  0.54508832  1
  Zn  Zn94  1  0.85235160  0.08444116  0.47908410  1
  Zn  Zn95  1  0.21804674  0.78319247  0.41042462  1
  Zn  Zn96  1  0.44829953  0.46074329  0.66330878  1
  Zn  Zn97  1  0.35073557  0.47480984  0.13454599  1
  Zn  Zn98  1  0.00420615  0.82438948  0.63900158  1
  Zn  Zn99  1  0.07878648  0.55351789  0.80310061  1
  Zn  Zn100  1  0.20384253  0.43576933  0.38223184  1
  Zn  Zn101  1  0.81643696  0.34163027  0.35700681  1
  O  O102  1  0.13590102  0.11449415  0.20848000  1
  O  O103  1  0.07786590  0.15780502  0.66625622  1
  O  O104  1  0.11437575  0.65295468  0.11124630  1
  O  O105  1  0.15743260  0.65385462  0.61418437  1
  O  O106  1  0.60880311  0.19254074  0.14748303  1
  O  O107  1  0.66982238  0.05745194  0.55638071  1
  O  O108  1  0.55271540  0.49110648  0.10962212  1
  O  O109  1  0.62981119  0.63281402  0.58997278  1
  O  O110  1  0.52029510  0.31193199  0.40386839  1
  O  O111  1  0.28794990  0.39864535  0.88800616  1
  O  O112  1  0.43145683  0.84244021  0.28234514  1
  O  O113  1  0.35935729  0.85764210  0.80255362  1
  O  O114  1  0.90617806  0.41160192  0.37980809  1
  O  O115  1  0.92828122  0.36007539  0.84448847  1
  O  O116  1  0.90780945  0.90678009  0.30292558  1
  O  O117  1  0.87756435  0.90941580  0.88716841  1
  O  O118  1  0.31336100  -0.02461280  0.37455696  1
  O  O119  1  0.24424350  -0.06426028  0.84753673  1
  O  O120  1  0.24932604  0.54002219  0.35718898  1
  O  O121  1  0.25921098  0.56150805  0.87120482  1
  O  O122  1  0.78205458  -0.03481043  0.37501990  1
  O  O123  1  0.72692654  0.02562129  0.90387724  1
  O  O124  1  0.80207504  0.51214158  0.34380101  1
  O  O125  1  0.72208063  0.55834083  0.90607754  1
  O  O126  1  0.24309498  0.51514156  0.14356421  1
  O  O127  1  0.26860388  0.47541284  0.64397894  1
  O  O128  1  0.29461209  1.06166200  0.17583777  1
  O  O129  1  0.18529188  0.98738876  0.54819698  1
  O  O130  1  0.78000810  0.49230598  0.13471544  1
  O  O131  1  0.73206358  0.51423474  0.63183082  1
  O  O132  1  0.81057077  0.96590773  0.09909296  1
  O  O133  1  0.66852774  0.98764274  0.54794757  1
  O  O134  1  0.01545603  0.37608599  0.27084763  1
  O  O135  1  0.01626768  0.38228843  0.69773167  1
  O  O136  1  0.04305817  0.85936791  0.28235232  1
  O  O137  1  0.06055915  0.86984552  0.90680057  1
  O  O138  1  0.58613776  0.29445248  0.43918635  1
  O  O139  1  0.47170905  0.36556367  0.71469024  1
  O  O140  1  0.54993897  0.90823827  0.22819633  1
  O  O141  1  0.51379327  0.84039283  0.72180442  1
  O  O142  1  0.48080529  0.21081933  0.21755754  1
  O  O143  1  0.45713525  0.17224918  0.76841454  1
  O  O144  1  0.46051428  0.63591778  0.09982169  1
  O  O145  1  0.53649297  0.63607107  0.69380505  1
  O  O146  1  0.95768778  0.15055593  0.25436236  1
  O  O147  1  1.05492863  0.06028955  0.83604038  1
  O  O148  1  0.99645452  0.63250613  0.21441447  1
  O  O149  1  1.00273838  0.63193801  0.77344310  1
  O  O150  1  0.29189904  0.28598117  0.01340990  1
  O  O151  1  0.41685209  0.21947586  0.51519856  1
  O  O152  1  0.35248777  0.74725317  -0.04135989  1
  O  O153  1  0.37858965  0.85085988  0.48587257  1
  O  O154  1  0.87815029  0.25875130  -0.00105266  1
  O  O155  1  0.84514154  0.30387172  0.47554949  1
  O  O156  1  0.85798702  0.75164520  0.01337352  1
  O  O157  1  0.88409832  0.72471891  0.51100964  1
  O  O158  1  0.10071992  0.25002932  0.53847160  1
  O  O159  1  0.13906404  0.22103897  1.07101225  1
  O  O160  1  0.11410908  0.67189181  0.53405909  1
  O  O161  1  0.17991582  0.78674474  1.04539639  1
  O  O162  1  0.44717102  0.05621084  0.47796806  1
  O  O163  1  0.59919121  0.30371913  0.96207048  1
  O  O164  1  0.67802688  0.76954885  0.47101735  1
  O  O165  1  0.62687077  0.75682350  0.99277828  1
  O  O166  1  0.50943553  0.27677331  0.09368472  1
  O  O167  1  0.44271975  0.23988463  0.65451663  1
  O  O168  1  0.51290605  0.66550565  0.05489686  1
  O  O169  1  0.52103321  0.76028546  0.58960981  1
  O  O170  1  0.99286797  0.25770616  0.11323561  1
  O  O171  1  0.96118257  0.24909408  0.62073646  1
  O  O172  1  0.99346662  0.74122513  0.10699813  1
  O  O173  1  0.99166458  0.71222594  0.61566007  1
  O  O174  1  0.00629084  0.29116455  0.41088580  1
  O  O175  1  -0.02781742  0.29089207  0.85343348  1
  O  O176  1  -0.00432261  0.77245876  0.40054627  1
  O  O177  1  -0.04643157  0.75172046  0.86451139  1
  O  O178  1  0.39223829  0.05826202  0.52333787  1
  O  O179  1  0.48201055  0.28197723  0.84931587  1
  O  O180  1  0.53351368  0.56124150  0.24762500  1
  O  O181  1  0.49784177  0.76883139  0.89149257  1
  O  O182  1  0.26438649  0.13593513  0.37196862  1
  O  O183  1  0.34353867  0.10818078  0.93079471  1
  O  O184  1  0.26810889  0.59691601  0.50414029  1
  O  O185  1  0.25697819  0.65606168  1.00315158  1
  O  O186  1  0.77383509  0.13680460  0.42212388  1
  O  O187  1  0.72013627  0.09445490  1.10404024  1
  O  O188  1  0.75722101  0.63687955  0.47909918  1
  O  O189  1  0.72965906  0.66954357  1.05509675  1
  O  O190  1  0.26485993  0.33960169  0.05407571  1
  O  O191  1  0.23581650  0.42507762  0.49178041  1
  O  O192  1  0.30696185  0.84414726  0.01914434  1
  O  O193  1  0.23271794  0.81338562  0.50835663  1
  O  O194  1  0.72733103  0.35480829  -0.10641160  1
  O  O195  1  0.81023701  0.44747788  0.51947851  1
  O  O196  1  0.73535054  0.86206944  0.00643042  1
  O  O197  1  0.78573740  0.85565175  0.50135086  1
  O  O198  1  0.14857016  0.51886101  0.23046572  1
  O  O199  1  0.13391334  0.48126166  0.73758805  1
  O  O200  1  0.05868642  1.02028788  0.28918633  1
  O  O201  1  0.14095097  1.00297299  0.69663475  1
  O  O202  1  0.68453048  0.49801755  0.25168422  1
  O  O203  1  0.65542995  0.49617036  0.77511990  1
  O  O204  1  0.67166979  1.00397204  0.25017930  1
  O  O205  1  0.55010112  0.97686026  0.79268505  1
  O  O206  1  0.38738247  -0.09346456  0.26849994  1
  O  O207  1  0.35690766  0.01004658  0.76083169  1
  O  O208  1  0.35197004  0.52654733  0.23792678  1
  O  O209  1  0.43784952  0.53414045  0.74173714  1
  O  O210  1  0.83895551  0.06375453  0.26037853  1
  O  O211  1  0.98300709  0.03726394  0.80672072  1
  O  O212  1  0.88525391  0.53116384  0.23641098  1
  O  O213  1  0.82133212  0.44543467  0.76079721  1
  O  O214  1  0.10313049  0.40004810  0.40085041  1
  O  O215  1  0.10990077  0.35817931  0.82521032  1
  O  O216  1  0.07937395  0.89573423  0.42706790  1
  O  O217  1  0.08034832  0.92652551  0.93918631  1
  O  O218  1  0.59299098  0.23356664  0.48326322  1
  O  O219  1  0.58291852  0.44929148  0.94116437  1
  O  O220  1  0.64220156  0.87017831  0.33435924  1
  O  O221  1  0.63378929  0.84729152  0.85830541  1
  O  O222  1  0.40987219  0.16826219  0.10133011  1
  O  O223  1  0.26963563  0.15365580  0.63637026  1
  O  O224  1  0.42081053  0.58108989  0.07222066  1
  O  O225  1  0.41895518  0.62829216  0.60769273  1
  O  O226  1  0.91281470  0.12285555  0.06894863  1
  O  O227  1  0.91214568  0.13850607  0.68292775  1
  O  O228  1  0.89106647  0.64338868  0.11951014  1
  O  O229  1  0.87602180  0.60206766  0.61543228  1
  O  O230  1  0.25258427  0.26500055  0.22061881  1
  O  O231  1  0.26596582  0.30033448  0.58314005  1
  O  O232  1  0.29198453  0.72494344  0.10530957  1
  O  O233  1  0.34145559  0.84860744  0.64345686  1
  O  O234  1  0.72314260  0.26711534  0.05081615  1
  O  O235  1  0.78011812  0.20457984  0.62774209  1
  O  O236  1  0.77847023  0.78604080  0.11721584  1
  O  O237  1  0.78287678  0.72715731  0.59459069  1
  O  O238  1  0.19947700  0.25530482  0.42858428  1
  O  O239  1  0.25991186  0.23081424  0.87659903  1
  O  O240  1  0.34278368  0.68271600  0.39226603  1
  O  O241  1  0.20892574  0.76795684  0.92538261  1
  O  O242  1  0.72229016  0.28767361  0.36791145  1
  O  O243  1  0.69372107  0.19016977  0.91454095  1
  O  O244  1  0.80841819  0.75771750  0.38563884  1
  O  O245  1  0.74665203  0.72674608  0.91115379  1
  O  O246  1  0.02700024  0.17040178  -0.04018676  1
  O  O247  1  -0.06162971  0.14869561  0.52101282  1
  O  O248  1  -0.00866055  0.63008777  0.00983779  1
  O  O249  1  0.09698716  0.61647839  0.49707711  1
  O  O250  1  0.51812229  0.15016248  0.03323461  1
  O  O251  1  0.51351890  0.08695561  0.49930129  1
  O  O252  1  0.62187327  0.47486364  0.10454666  1
  O  O253  1  0.51122995  0.64697493  0.48914784  1
  O  O254  1  0.56466803  0.37277160  0.56568516  1
  O  O255  1  0.41995225  0.35818424  0.97313233  1
  O  O256  1  0.52139577  0.77734769  0.39119714  1
  O  O257  1  0.49756958  0.84779256  1.04307973  1
  O  O258  1  0.96362134  0.39886615  0.53489670  1
  O  O259  1  1.05351025  0.36537607  0.97349508  1
  O  O260  1  0.93108467  0.89646988  0.45139797  1
  O  O261  1  0.90235581  0.91699961  0.95511808  1
  O  O262  1  0.49717412  0.37405278  0.54143180  1
  O  O263  1  0.54800494  0.52665395  0.93615015  1
  O  O264  1  0.51073486  0.93204084  0.38234088  1
  O  O265  1  0.42909936  0.94242000  0.90787106  1
  O  O266  1  1.00272324  0.50466232  0.34697601  1
  O  O267  1  1.02762094  0.47828455  0.86103115  1
  O  O268  1  0.91976525  1.04550949  0.39238826  1
  O  O269  1  0.97445619  0.96799381  0.80034804  1
  O  O270  1  -0.00658529  -0.00309581  0.15603988  1
  O  O271  1  0.00986116  0.04138210  0.60995118  1
  O  O272  1  0.03897448  0.52744094  0.12577674  1
  O  O273  1  0.01797760  0.54781512  0.63823259  1
  O  O274  1  0.51929370  0.08765063  0.16868956  1
  O  O275  1  0.46669751  -0.00514144  0.63355017  1
  O  O276  1  0.49848632  0.43852776  0.08666588  1
  O  O277  1  0.51924616  0.51598964  0.59690824  1
  O  O278  1  0.25283403  0.40747614  0.29228841  1
  O  O279  1  0.21856853  0.34259295  0.72366386  1
  O  O280  1  0.20505568  0.85757830  0.32781407  1
  O  O281  1  0.29603088  0.89853037  0.62451095  1
  O  O282  1  0.79254570  0.38585279  0.25458874  1
  O  O283  1  0.70360365  0.36925263  0.70564163  1
  O  O284  1  0.75593298  0.87321030  0.22406506  1
  O  O285  1  0.65469946  0.92261332  0.70734703  1
  O  O286  1  0.32379465  0.08551680  0.23525996  1
  O  O287  1  0.22521558  0.10443359  0.80173127  1
  O  O288  1  0.25236152  0.64152656  0.23719182  1
  O  O289  1  0.30592502  0.61206284  0.70742228  1
  O  O290  1  0.74710980  0.17966192  0.25374701  1
  O  O291  1  0.72050110  0.12653451  0.77392351  1
  O  O292  1  0.78464501  0.63833483  0.21723575  1
  O  O293  1  0.73059271  0.63926768  0.76343383  1
  O  O294  1  0.33352943  0.13080492  0.38534696  1
  O  O295  1  0.27692026  -0.02453926  0.90374650  1
  O  O296  1  0.43793463  0.50042390  0.42387703  1
  O  O297  1  0.30005483  0.70159675  0.82108468  1
  O  O298  1  0.86978818  0.22739764  0.33579190  1
  O  O299  1  0.84217028  0.13565174  0.88361090  1
  O  O300  1  0.90914821  0.62883820  0.33453584  1
  O  O301  1  0.85411066  0.62809274  0.87514860  1
  O  O302  1  0.12824272  0.39689985  0.12373790  1
  O  O303  1  0.13711534  0.39321441  0.61070172  1
  O  O304  1  0.15070712  0.95425264  0.19726797  1
  O  O305  1  0.07743260  0.89353274  0.59660078  1
  O  O306  1  0.53126942  0.39986169  0.26040756  1
  O  O307  1  0.58971446  0.16814485  0.63769286  1
  O  O308  1  0.66124796  0.91948174  0.12424855  1
  O  O309  1  0.52861584  0.99380470  0.60567612  1
  O  O310  1  0.16010102  0.26211379  0.35833541  1
  O  O311  1  0.16296252  0.28296885  0.71541653  1
  O  O312  1  0.15332199  0.79557194  0.19669327  1
  O  O313  1  0.04110654  0.77933770  0.73881135  1
  O  O314  1  0.59625034  0.37657705  0.25767146  1
  O  O315  1  0.56716951  0.26980186  0.74398077  1
  O  O316  1  0.61705747  0.75408928  0.17962582  1
  O  O317  1  0.62973996  0.75234298  0.70339656  1
  O  O318  1  0.36796217  0.29843898  0.32941707  1
  O  O319  1  0.36944236  0.29501101  0.76229688  1
  O  O320  1  0.53988382  0.58944345  0.30943050  1
  O  O321  1  0.43985899  0.71146636  0.74546071  1
  O  O322  1  0.84436210  0.22122745  0.16447431  1
  O  O323  1  0.84197947  0.25899766  0.76058612  1
  O  O324  1  0.88944602  0.74706740  0.22404059  1
  O  O325  1  0.88420240  0.72826906  0.71305182  1
  O  O326  1  0.42666125  0.44291767  0.38981989  1
  O  O327  1  0.32871495  0.47619968  1.02139792  1
  O  O328  1  0.27057490  0.98609137  0.42530771  1
  O  O329  1  0.45398197  0.99716794  1.05456415  1
  O  O330  1  0.90064985  0.55004850  0.46073247  1
  O  O331  1  0.92212288  0.43018934  1.09959803  1
  O  O332  1  0.84069923  0.99540084  0.53974863  1
  O  O333  1  0.93117717  0.98639671  0.97109947  1
  O  O334  1  0.08833495  0.07100516  0.07607636  1
  O  O335  1  0.13859335  0.04989693  0.53141706  1
  O  O336  1  0.15402483  0.51927452  0.02581511  1
  O  O337  1  0.02818212  0.52960227  0.57364608  1
  O  O338  1  0.57997934  -0.04153636  -0.02963401  1
  O  O339  1  0.63794119  -0.03444823  0.47961056  1
  O  O340  1  0.47703522  0.52612327  -0.06859310  1
  O  O341  1  0.64751647  0.44308248  0.41954837  1
  O  O342  1  0.36059045  0.37606144  0.18538127  1
  O  O343  1  0.33589135  0.43961126  0.61764841  1
  O  O344  1  0.38973154  0.94007312  0.19991511  1
  O  O345  1  0.41090302  0.90694320  0.50842622  1
  O  O346  1  0.90867681  0.38619104  0.15162274  1
  O  O347  1  0.85710420  0.34197954  0.63725024  1
  O  O348  1  0.91210449  0.86008371  0.12204558  1
  O  O349  1  0.90631215  0.86676634  0.61146866  1
  O  O350  1  0.06914841  0.15096734  0.41869543  1
  O  O351  1  0.18282600  0.11722098  0.95822632  1
  O  O352  1  0.18823860  0.68205163  0.38915140  1
  O  O353  1  0.15486182  0.63597739  0.77239496  1
  O  O354  1  0.62815681  0.17137946  0.35157954  1
  O  O355  1  0.67555321  0.07224752  1.05288141  1
  O  O356  1  0.58341601  0.46711928  0.40382454  1
  O  O357  1  0.60815653  0.67456835  0.85227926  1
