# generated using pymatgen
data_V51Zn51O256
_symmetry_space_group_name_H-M   'P 1'
_cell_length_a   17.49446277
_cell_length_b   17.42092262
_cell_length_c   17.54142926
_cell_angle_alpha   90.91585532
_cell_angle_beta   91.48906677
_cell_angle_gamma   89.76292118
_symmetry_Int_Tables_number   1
_chemical_formula_structural   V51Zn51O256
_chemical_formula_sum   'V51 Zn51 O256'
_cell_volume   5343.57065043
_cell_formula_units_Z   1
loop_
 _symmetry_equiv_pos_site_id
 _symmetry_equiv_pos_as_xyz
  1  'x, y, z'
loop_
 _atom_site_type_symbol
 _atom_site_label
 _atom_site_symmetry_multiplicity
 _atom_site_fract_x
 _atom_site_fract_y
 _atom_site_fract_z
 _atom_site_occupancy
  V  V0  1  0.15841973  0.63998858  0.49615207  1
  V  V1  1  0.77845932  0.01698779  0.74930555  1
  V  V2  1  0.87709545  0.29348990  0.08145635  1
  V  V3  1  0.76450159  0.09827964  0.92236643  1
  V  V4  1  0.77038999  0.86681429  0.63856670  1
  V  V5  1  0.84638211  0.79722745  0.12991198  1
  V  V6  1  0.51523679  0.47362155  0.54137893  1
  V  V7  1  0.17485780  -0.04702621  0.11968325  1
  V  V8  1  0.36352386  0.14176236  0.26543798  1
  V  V9  1  0.10021374  0.75631971  0.35427398  1
  V  V10  1  0.31744745  0.32211776  0.07678544  1
  V  V11  1  0.88092710  0.86130332  0.48909778  1
  V  V12  1  0.68471133  0.49206197  0.14098142  1
  V  V13  1  0.49718189  0.89185848  0.86405331  1
  V  V14  1  0.24614179  0.50048137  0.69429365  1
  V  V15  1  0.74874143  0.74051594  0.50220066  1
  V  V16  1  0.75638282  0.60453014  0.37458005  1
  V  V17  1  0.25966264  0.65101929  0.36617489  1
  V  V18  1  0.75795289  0.63192924  0.86699954  1
  V  V19  1  0.11146972  0.24864755  0.90189728  1
  V  V20  1  -0.03230817  0.78406798  0.25072787  1
  V  V21  1  0.88955805  -0.02080769  0.88753241  1
  V  V22  1  0.37866946  0.92415655  0.01173883  1
  V  V23  1  0.61183271  0.63008904  0.51311420  1
  V  V24  1  0.02870169  0.56254921  -0.04016080  1
  V  V25  1  0.65912817  0.23677635  0.88450652  1
  V  V26  1  0.64110662  0.60250943  0.01960374  1
  V  V27  1  0.63365755  0.75281704  0.84512010  1
  V  V28  1  0.26536218  0.59170773  0.89148855  1
  V  V29  1  0.18890938  0.75361235  0.87547658  1
  V  V30  1  0.08569487  0.57905410  0.11688148  1
  V  V31  1  0.50594027  0.11716048  0.63841823  1
  V  V32  1  0.07102456  -0.05050737  0.63382239  1
  V  V33  1  0.86461931  0.48394383  0.86360160  1
  V  V34  1  -0.02249529  0.73684101  0.77711903  1
  V  V35  1  0.13264937  0.11597376  0.03282287  1
  V  V36  1  0.58228030  0.40411434  0.23989344  1
  V  V37  1  0.72052200  0.76249293  0.01708015  1
  V  V38  1  -0.01982614  0.49012719  0.52329434  1
  V  V39  1  0.62404925  0.72731482  0.34382153  1
  V  V40  1  0.24094932  0.53760764  0.22164277  1
  V  V41  1  0.13882566  0.29606641  0.35956187  1
  V  V42  1  0.40264640  0.50625850  0.38411137  1
  V  V43  1  0.15274787  0.85394229  0.74460547  1
  V  V44  1  0.01607995  0.13561276  0.64048449  1
  V  V45  1  0.88339015  0.72147235  0.62015416  1
  V  V46  1  0.88388889  0.08171855  0.26520186  1
  V  V47  1  0.64317393  0.88189046  0.74452712  1
  V  V48  1  0.27598815  0.37264753  0.56247661  1
  V  V49  1  0.37993592  0.59856499  0.75140953  1
  V  V50  1  0.14238899  0.06519729  0.52947066  1
  Zn  Zn51  1  0.68596130  0.18257085  0.70654675  1
  Zn  Zn52  1  0.43714736  0.14059009  0.44916377  1
  Zn  Zn53  1  0.13323070  0.49934544  0.38575467  1
  Zn  Zn54  1  0.57182230  0.57802833  0.29248055  1
  Zn  Zn55  1  0.93104285  0.67994914  0.42601845  1
  Zn  Zn56  1  0.47558748  0.26653875  0.17187417  1
  Zn  Zn57  1  0.70497521  0.28582827  0.18091310  1
  Zn  Zn58  1  0.47107525  0.25816897  0.96770354  1
  Zn  Zn59  1  0.24029087  0.39035810  0.84694482  1
  Zn  Zn60  1  0.69473707  0.68295233  0.68300289  1
  Zn  Zn61  1  0.18480441  0.21445962  0.18840206  1
  Zn  Zn62  1  0.64744245  0.45970668  0.41497316  1
  Zn  Zn63  1  0.34253193  0.30886759  0.39767010  1
  Zn  Zn64  1  0.14005849  0.76374635  0.06939016  1
  Zn  Zn65  1  0.18780372  0.66166183  0.69358516  1
  Zn  Zn66  1  0.07794454  0.41640506  0.92373514  1
  Zn  Zn67  1  0.44509105  0.29784147  0.56267092  1
  Zn  Zn68  1  0.23265827  0.50696726  0.02993835  1
  Zn  Zn69  1  0.60023625  0.05112336  0.81861448  1
  Zn  Zn70  1  0.54508840  0.57172113  0.85802383  1
  Zn  Zn71  1  0.29599150  0.07243166  0.66164358  1
  Zn  Zn72  1  0.06851769  0.77085808  0.56253448  1
  Zn  Zn73  1  0.87208781  0.78823656  0.92059002  1
  Zn  Zn74  1  0.95451365  0.16330300  0.93777250  1
  Zn  Zn75  1  0.94393770  0.56970686  0.69741998  1
  Zn  Zn76  1  0.44779891  0.93587984  0.70303067  1
  Zn  Zn77  1  1.04810457  0.10866358  0.40943659  1
  Zn  Zn78  1  0.04356816  0.28887013  0.05413409  1
  Zn  Zn79  1  0.18727271  0.93977384  0.93553352  1
  Zn  Zn80  1  0.80628012  0.55537521  0.54953593  1
  Zn  Zn81  1  0.45485618  0.67693582  0.40094338  1
  Zn  Zn82  1  0.05565137  0.03700745  0.80110997  1
  Zn  Zn83  1  0.04517014  0.92217293  0.44561765  1
  Zn  Zn84  1  0.69883261  0.67341314  0.19093846  1
  Zn  Zn85  1  0.81543549  0.30307766  0.92249191  1
  Zn  Zn86  1  0.88264317  0.01049118  0.60086347  1
  Zn  Zn87  1  0.39479182  0.42001019  0.22629422  1
  Zn  Zn88  1  0.52473593  0.78279807  0.00133562  1
  Zn  Zn89  1  0.81636299  0.23558896  0.32408863  1
  Zn  Zn90  1  0.62875242  0.89968883  0.37797901  1
  Zn  Zn91  1  0.30908927  0.07394397  0.07337684  1
  Zn  Zn92  1  0.04475530  -0.02935084  0.26868064  1
  Zn  Zn93  1  0.10092091  0.57838417  0.79695221  1
  Zn  Zn94  1  0.60835872  0.84722155  0.53806377  1
  Zn  Zn95  1  0.58858035  0.09978170  0.33945724  1
  Zn  Zn96  1  0.78588146  0.79973434  0.32296311  1
  Zn  Zn97  1  0.05604818  0.30310315  0.55276618  1
  Zn  Zn98  1  0.30476319  0.81246859  0.35624095  1
  Zn  Zn99  1  0.68652792  0.43963391  0.93381160  1
  Zn  Zn100  1  0.82467231  -0.00253986  0.07549629  1
  Zn  Zn101  1  0.94379165  0.45335456  0.04267664  1
  O  O102  1  0.12931678  0.13592546  0.12824165  1
  O  O103  1  0.09391717  0.05267346  0.63916425  1
  O  O104  1  0.09834447  0.67540101  0.10881745  1
  O  O105  1  0.15017153  0.68016102  0.58992565  1
  O  O106  1  0.61858708  0.11094092  0.23030507  1
  O  O107  1  0.60806079  0.13051414  0.64176756  1
  O  O108  1  0.64524517  0.59931012  0.12245814  1
  O  O109  1  0.62659495  0.62963546  0.60918316  1
  O  O110  1  0.39242367  0.41500250  0.34090172  1
  O  O111  1  0.32629544  0.31805781  0.86909244  1
  O  O112  1  0.36784336  0.87720506  0.44215106  1
  O  O113  1  0.41609544  0.89755931  0.81263760  1
  O  O114  1  0.86275258  0.35773448  0.31368448  1
  O  O115  1  0.85999132  0.38627223  0.86729348  1
  O  O116  1  0.85702164  0.84808994  0.39457026  1
  O  O117  1  0.86762204  0.88452250  0.86714709  1
  O  O118  1  0.22797829  -0.02706442  0.34640796  1
  O  O119  1  0.16317044  0.02683700  0.86132024  1
  O  O120  1  0.31685970  0.55729507  0.38279594  1
  O  O121  1  0.24466430  0.49399765  0.88816467  1
  O  O122  1  0.65868656  0.09858783  0.44023858  1
  O  O123  1  0.76691539  0.01178724  0.85801239  1
  O  O124  1  0.73737967  0.50738463  0.38426208  1
  O  O125  1  0.76707915  0.51856159  0.87753675  1
  O  O126  1  0.18906398  0.53927477  0.13155859  1
  O  O127  1  0.24352253  0.46784381  0.59714900  1
  O  O128  1  0.26200811  0.99497761  0.13591190  1
  O  O129  1  0.22904247  1.03821810  0.81707204  1
  O  O130  1  0.77441059  0.50770489  0.15818759  1
  O  O131  1  0.73959464  0.47256215  0.59988888  1
  O  O132  1  0.63767763  1.05216642  0.18954463  1
  O  O133  1  0.78487742  0.97178954  0.64342518  1
  O  O134  1  -0.00468092  0.39796732  0.24536266  1
  O  O135  1  -0.17203230  0.35225839  0.68484966  1
  O  O136  1  -0.02258106  0.87858604  0.26245276  1
  O  O137  1  0.03821982  0.80137424  0.74541873  1
  O  O138  1  0.49971639  0.44634039  0.20864588  1
  O  O139  1  0.58003184  0.40387588  0.80570999  1
  O  O140  1  0.44979752  0.87607941  0.28104223  1
  O  O141  1  0.54272697  0.88836299  0.74438290  1
  O  O142  1  0.46117430  0.16998196  0.25509912  1
  O  O143  1  0.52535701  0.10904611  0.74201689  1
  O  O144  1  0.36169311  0.74687663  0.17479893  1
  O  O145  1  0.47299673  0.57164461  0.77985122  1
  O  O146  1  0.97222887  0.05430991  0.22707694  1
  O  O147  1  1.02153439  0.12148871  0.73868089  1
  O  O148  1  0.91051346  0.60123810  0.22546455  1
  O  O149  1  1.01140012  0.63967269  0.76114479  1
  O  O150  1  0.37243491  0.27092226  0.01110363  1
  O  O151  1  0.40874794  0.24391410  0.46873437  1
  O  O152  1  0.44017410  0.70626535  0.01623178  1
  O  O153  1  0.43700254  0.89308220  0.43435882  1
  O  O154  1  0.89069654  0.25051443  -0.01008233  1
  O  O155  1  0.86269200  0.21705048  0.48474360  1
  O  O156  1  0.83170645  0.77271484  0.02089931  1
  O  O157  1  0.86043211  0.73090828  0.50434999  1
  O  O158  1  0.10304397  0.25338799  0.45483874  1
  O  O159  1  0.12471125  0.23148089  1.00548322  1
  O  O160  1  0.09226252  0.72014601  0.45704739  1
  O  O161  1  0.14427014  0.76362247  0.96161490  1
  O  O162  1  0.73082264  0.30554301  0.46855851  1
  O  O163  1  0.58510744  0.17825649  1.08431285  1
  O  O164  1  0.64172394  0.74014585  0.50541906  1
  O  O165  1  0.62452421  0.71465641  1.02189190  1
  O  O166  1  0.38776082  0.33319318  0.15475777  1
  O  O167  1  0.49231281  0.22108874  0.63810763  1
  O  O168  1  0.42242933  0.72699828  0.20480007  1
  O  O169  1  0.49253852  0.81576854  0.58058782  1
  O  O170  1  0.96512346  0.27741531  0.12742919  1
  O  O171  1  1.02869357  0.23424670  0.62947819  1
  O  O172  1  0.94682876  0.77606681  0.14323913  1
  O  O173  1  0.97742143  0.71956258  0.60043129  1
  O  O174  1  0.05605270  0.22373978  0.39253649  1
  O  O175  1  0.01453535  0.23958120  0.88277640  1
  O  O176  1  -0.02084502  0.73811686  0.34741368  1
  O  O177  1  -0.03660276  0.76033654  0.86991421  1
  O  O178  1  0.55354074  0.25985795  0.39444190  1
  O  O179  1  0.56828772  0.24026681  0.92013514  1
  O  O180  1  0.53638390  0.75474247  0.37333385  1
  O  O181  1  0.54495672  0.78727486  0.88303846  1
  O  O182  1  0.22690505  0.08509800  0.57986163  1
  O  O183  1  0.22902551  0.11612484  1.00873614  1
  O  O184  1  0.25405675  0.66060966  0.47647704  1
  O  O185  1  0.27344214  0.60342048  0.98832460  1
  O  O186  1  0.80712170  0.16982979  0.48366305  1
  O  O187  1  0.75583242  0.06743431  1.01355225  1
  O  O188  1  0.73271208  0.62301175  0.49668823  1
  O  O189  1  0.72645633  0.62076607  0.97538041  1
  O  O190  1  0.38961293  0.34533068  -0.16428638  1
  O  O191  1  0.30215405  0.38704684  0.47219982  1
  O  O192  1  0.28971758  0.91515766  -0.03337634  1
  O  O193  1  0.31608757  1.01374724  0.47311101  1
  O  O194  1  0.64551687  0.21910864  0.08740302  1
  O  O195  1  0.67505007  0.34761071  0.48113843  1
  O  O196  1  0.69209649  0.85062899  0.01627694  1
  O  O197  1  0.75454073  0.84109500  0.50518339  1
  O  O198  1  0.06389316  0.56268207  0.20604473  1
  O  O199  1  0.15076050  0.54905430  0.70100814  1
  O  O200  1  0.12025616  0.97703162  0.19690721  1
  O  O201  1  0.08965525  0.94583720  0.73776504  1
  O  O202  1  0.63155889  0.50875293  0.23226609  1
  O  O203  1  0.53791257  0.42532353  0.75253187  1
  O  O204  1  0.63486162  0.99489812  0.31109410  1
  O  O205  1  0.66705010  0.98415726  0.74732743  1
  O  O206  1  0.38650584  0.04460273  0.26228645  1
  O  O207  1  0.35751972  -0.00776998  0.69489286  1
  O  O208  1  0.32643613  0.49964364  0.19794627  1
  O  O209  1  0.35043061  0.51304619  0.69369179  1
  O  O210  1  0.85596893  -0.00324576  0.30273236  1
  O  O211  1  0.87291118  0.00291956  0.76608655  1
  O  O212  1  0.83412270  0.40216104  0.26608921  1
  O  O213  1  0.89543636  0.51090996  0.77719422  1
  O  O214  1  0.11458853  0.39076629  0.37133518  1
  O  O215  1  0.14641827  0.34424346  0.87921812  1
  O  O216  1  0.09910596  0.84948367  0.37488935  1
  O  O217  1  0.16091460  0.86023953  0.85153305  1
  O  O218  1  0.58798389  0.40852338  0.33908538  1
  O  O219  1  0.70246167  0.33125064  0.91851762  1
  O  O220  1  0.67048800  0.81963831  0.31835372  1
  O  O221  1  0.65954177  0.86450334  0.84081644  1
  O  O222  1  0.35589512  0.14466627  0.16271737  1
  O  O223  1  0.40633202  0.12066990  0.65527591  1
  O  O224  1  0.41861500  0.60199917  0.08691712  1
  O  O225  1  0.38448580  0.67672180  0.70123309  1
  O  O226  1  0.84609943  0.06374589  0.17202659  1
  O  O227  1  0.92358129  0.11041251  0.61492239  1
  O  O228  1  0.91519956  0.53421061  0.24398257  1
  O  O229  1  0.86159835  0.62141044  0.62820668  1
  O  O230  1  0.24602389  0.27054438  0.11689554  1
  O  O231  1  0.22689024  0.27342677  0.55225281  1
  O  O232  1  0.46374966  0.65559826  0.07237931  1
  O  O233  1  0.26994780  0.85942791  0.55890444  1
  O  O234  1  0.79831919  0.25976522  0.12719682  1
  O  O235  1  0.71154317  0.25309661  0.61506440  1
  O  O236  1  0.74786413  0.74544308  0.12414607  1
  O  O237  1  0.76209250  0.73920359  0.61330383  1
  O  O238  1  0.23417129  0.28182634  0.37719989  1
  O  O239  1  0.31961161  0.23065277  0.74344101  1
  O  O240  1  0.20947849  0.75065524  0.34957190  1
  O  O241  1  0.28022969  0.75372028  0.89405345  1
  O  O242  1  0.87054316  0.26257386  0.42263911  1
  O  O243  1  0.75983658  0.20391198  0.91708006  1
  O  O244  1  0.74087478  0.72298468  0.39512172  1
  O  O245  1  0.72621276  0.74458721  0.90175881  1
  O  O246  1  0.04152837  0.10962953  -0.01354791  1
  O  O247  1  0.05318619  0.12096480  0.52856292  1
  O  O248  1  0.02699703  0.65292736  -0.05679406  1
  O  O249  1  0.00239629  0.58957475  0.46804753  1
  O  O250  1  0.51110292  0.22039369  0.07602996  1
  O  O251  1  0.50571509  0.11786757  0.53851278  1
  O  O252  1  0.55961073  0.57976248  -0.03061693  1
  O  O253  1  0.51745783  0.65059558  0.49367902  1
  O  O254  1  0.52040432  0.37500953  0.54432339  1
  O  O255  1  0.48656209  0.40807239  0.99428053  1
  O  O256  1  0.58884943  0.92428097  0.46904116  1
  O  O257  1  0.46348409  0.87649040  0.96201456  1
  O  O258  1  1.01670379  0.39729929  0.52009059  1
  O  O259  1  1.03097154  0.38959438  1.01396986  1
  O  O260  1  0.98189628  0.84637580  0.49425098  1
  O  O261  1  0.99299188  0.93150768  1.09656893  1
  O  O262  1  0.47082431  0.57015469  0.34300074  1
  O  O263  1  0.59592689  0.46573335  0.86615815  1
  O  O264  1  0.49763074  1.07871563  0.38608389  1
  O  O265  1  0.53487972  0.98185815  0.87022749  1
  O  O266  1  1.00990799  0.52356883  0.41976263  1
  O  O267  1  1.05677014  0.51097102  0.87128347  1
  O  O268  1  1.04112836  1.00179150  0.37267738  1
  O  O269  1  0.98543700  0.99594545  0.87311667  1
  O  O270  1  -0.00757022  -0.00004645  0.08143262  1
  O  O271  1  -0.02326253  -0.05273159  0.62525384  1
  O  O272  1  -0.00685624  0.55377494  0.06633412  1
  O  O273  1  -0.00111501  0.52567352  0.61384561  1
  O  O274  1  0.54130003  -0.12341073  0.14989015  1
  O  O275  1  0.50374410  0.01548133  0.63164046  1
  O  O276  1  0.43678174  0.45142613  -0.03131019  1
  O  O277  1  0.50510038  0.50902240  0.62607882  1
  O  O278  1  0.19733105  0.48579106  0.28690868  1
  O  O279  1  0.23530319  0.41697775  0.74104094  1
  O  O280  1  0.23926272  0.91049452  0.31271960  1
  O  O281  1  0.23376011  0.88987513  0.71907553  1
  O  O282  1  0.71991706  0.25197611  0.28342352  1
  O  O283  1  0.67761646  0.45485175  0.70803519  1
  O  O284  1  0.65550952  0.97786505  0.24000958  1
  O  O285  1  0.76672699  0.85633340  0.73323711  1
  O  O286  1  0.26250466  0.14166018  0.25243090  1
  O  O287  1  0.21357494  0.06889766  0.75218043  1
  O  O288  1  0.26065875  0.63109345  0.26330170  1
  O  O289  1  0.26531147  0.59739943  0.75452106  1
  O  O290  1  0.79165010  0.11736822  0.30188329  1
  O  O291  1  0.76619603  0.11092173  0.72711493  1
  O  O292  1  0.74928241  0.62753638  0.27874480  1
  O  O293  1  0.74640594  0.63519836  0.76950601  1
  O  O294  1  0.35542939  0.12522383  0.36480167  1
  O  O295  1  0.37596125  0.06993668  0.86896845  1
  O  O296  1  0.35221528  0.71202276  0.37405080  1
  O  O297  1  0.35708338  0.61071270  0.85957108  1
  O  O298  1  0.93819686  0.10493696  0.35111194  1
  O  O299  1  0.86714896  0.10125653  0.90509022  1
  O  O300  1  0.85249823  0.60855847  0.39282943  1
  O  O301  1  0.84727880  0.65774875  0.88358878  1
  O  O302  1  0.05542106  0.40290649  0.21243640  1
  O  O303  1  0.17441200  0.32569126  0.58238242  1
  O  O304  1  0.18008360  0.85453913  0.10971151  1
  O  O305  1  0.11177998  0.85056713  0.63123435  1
  O  O306  1  0.66501846  0.39138565  0.16448302  1
  O  O307  1  0.69752897  0.32276287  0.62907714  1
  O  O308  1  0.54008799  0.80550632  0.11871936  1
  O  O309  1  0.66231303  0.86728688  0.63381426  1
  O  O310  1  0.12787099  0.26598642  0.26403017  1
  O  O311  1  0.28214852  0.19914014  0.69089624  1
  O  O312  1  0.07127844  0.75518430  0.25307645  1
  O  O313  1  0.17705252  0.75058063  0.75995081  1
  O  O314  1  0.56469637  0.30516495  0.22178810  1
  O  O315  1  0.65529286  0.24834352  0.78740238  1
  O  O316  1  0.60247177  0.68825134  0.25350452  1
  O  O317  1  0.63685922  0.76113071  0.74462134  1
  O  O318  1  0.35821645  0.24413619  0.29274548  1
  O  O319  1  0.36925473  0.14011324  0.86744415  1
  O  O320  1  0.37891431  0.87253776  0.27385809  1
  O  O321  1  0.30351519  0.81051826  0.59653801  1
  O  O322  1  0.89306951  0.18824597  0.25205283  1
  O  O323  1  0.85941016  0.29013118  0.67255039  1
  O  O324  1  0.85215828  0.77769063  0.23903481  1
  O  O325  1  0.88818408  0.74265650  0.72143302  1
  O  O326  1  0.43030910  0.49745773  0.47977290  1
  O  O327  1  0.45329136  0.31050854  0.85615064  1
  O  O328  1  0.36982487  1.05188854  0.50258701  1
  O  O329  1  0.39346520  1.02277681  1.02824717  1
  O  O330  1  0.88275545  0.48453581  0.51396861  1
  O  O331  1  0.92547510  0.51510784  0.94075440  1
  O  O332  1  0.87005894  0.95801537  0.50154062  1
  O  O333  1  0.88068869  0.97412336  0.98617119  1
  O  O334  1  0.13980351  -0.00463963  0.03021571  1
  O  O335  1  0.11284213  -0.03779909  0.53046933  1
  O  O336  1  0.11888895  0.53779242  0.00872172  1
  O  O337  1  0.14624354  0.54327009  0.49610718  1
  O  O338  1  0.54105311  -0.06594932  0.10612453  1
  O  O339  1  0.66185186  0.15912351  0.47998467  1
  O  O340  1  0.67007085  0.49140394  0.03319775  1
  O  O341  1  0.60112982  0.51753316  0.49803523  1
  O  O342  1  0.28318459  0.40848787  0.04280220  1
  O  O343  1  0.35609681  0.34274857  0.61139257  1
  O  O344  1  0.37936058  0.88227237  0.09471034  1
  O  O345  1  0.44076024  0.86089550  0.60307333  1
  O  O346  1  0.86040449  0.39048534  0.06586704  1
  O  O347  1  0.73569840  0.48294844  0.67678313  1
  O  O348  1  0.83097958  0.89287855  0.12645493  1
  O  O349  1  0.86525816  0.83944943  0.60444986  1
  O  O350  1  0.16136568  0.08310219  0.43670553  1
  O  O351  1  0.16064252  0.18508639  0.85409344  1
  O  O352  1  0.16075630  0.61804974  0.37441286  1
  O  O353  1  0.17499240  0.64300335  0.86414140  1
  O  O354  1  0.58859584  0.22123257  0.34608512  1
  O  O355  1  0.66218283  0.12071631  0.87937220  1
  O  O356  1  0.63160381  0.62870653  0.38749203  1
  O  O357  1  0.62411550  0.65333955  0.85148403  1
