# generated using pymatgen
data_V51Zn51O256
_symmetry_space_group_name_H-M   'P 1'
_cell_length_a   17.04874232
_cell_length_b   17.41645194
_cell_length_c   17.75971837
_cell_angle_alpha   89.82099949
_cell_angle_beta   88.18696720
_cell_angle_gamma   89.92461748
_symmetry_Int_Tables_number   1
_chemical_formula_structural   V51Zn51O256
_chemical_formula_sum   'V51 Zn51 O256'
_cell_volume   5270.69880336
_cell_formula_units_Z   1
loop_
 _symmetry_equiv_pos_site_id
 _symmetry_equiv_pos_as_xyz
  1  'x, y, z'
loop_
 _atom_site_type_symbol
 _atom_site_label
 _atom_site_symmetry_multiplicity
 _atom_site_fract_x
 _atom_site_fract_y
 _atom_site_fract_z
 _atom_site_occupancy
  V  V0  1  0.00143976  0.53034806  0.50796048  1
  V  V1  1  0.66420747  0.84835634  0.68163009  1
  V  V2  1  0.22180954  0.26969869  -0.00171657  1
  V  V3  1  0.51845726  0.89061407  0.34740099  1
  V  V4  1  0.24671586  0.31678015  0.49451132  1
  V  V5  1  0.45444153  0.22588755  0.75632275  1
  V  V6  1  0.62209180  0.23571667  0.38718148  1
  V  V7  1  0.61218107  0.34824040  0.72138027  1
  V  V8  1  0.32851874  0.73249480  0.06953089  1
  V  V9  1  0.38145758  0.37139594  -0.00205341  1
  V  V10  1  -0.02409878  0.70853045  0.27688868  1
  V  V11  1  0.54214076  0.63496788  0.12055262  1
  V  V12  1  0.35679883  0.30289380  0.62282993  1
  V  V13  1  0.24404084  0.04173115  0.74148222  1
  V  V14  1  0.50504993  0.48693447  0.51834200  1
  V  V15  1  0.65043504  0.74300379  0.36496964  1
  V  V16  1  0.74738795  0.23100084  0.04724552  1
  V  V17  1  0.61960360  0.61933954  0.50050354  1
  V  V18  1  0.27351884  0.83715055  0.71659070  1
  V  V19  1  0.61778798  -0.01050139  0.57028384  1
  V  V20  1  0.80038115  0.88514472  0.09410103  1
  V  V21  1  0.87863219  0.42190830  0.55626275  1
  V  V22  1  0.38838948  0.86911886  0.45340492  1
  V  V23  1  0.14828321  0.42073872  0.78065098  1
  V  V24  1  0.38072074  0.52332678  0.88967200  1
  V  V25  1  0.87790230  0.90651296  -0.06863255  1
  V  V26  1  0.72000588  0.00817987  0.76499299  1
  V  V27  1  0.27512695  0.74408736  0.47455518  1
  V  V28  1  0.38704937  0.48965665  0.34333408  1
  V  V29  1  0.40760449  0.71141515  0.66893536  1
  V  V30  1  0.88403032  0.71963801  0.11561580  1
  V  V31  1  -0.01387583  0.21978907  0.22322811  1
  V  V32  1  0.74393131  0.57425214  0.36858685  1
  V  V33  1  0.01416599  0.60195914  0.12691817  1
  V  V34  1  0.84552036  0.12764236  0.78727616  1
  V  V35  1  0.90389752  0.91514435  0.46980211  1
  V  V36  1  0.14079047  0.48860888  0.14544764  1
  V  V37  1  0.87869232  0.56704549  0.26586767  1
  V  V38  1  0.11129097  0.92733410  0.74082987  1
  V  V39  1  -0.03202384  0.16331596  0.66168853  1
  V  V40  1  0.25891490  0.37222593  0.14360140  1
  V  V41  1  0.13605606  0.50714254  0.62399347  1
  V  V42  1  0.57369233  0.79411896  0.85534482  1
  V  V43  1  0.25016020  0.59939298  0.33938105  1
  V  V44  1  0.51728849  0.50369998  0.01871426  1
  V  V45  1  0.02900580  0.66062443  0.62730698  1
  V  V46  1  0.21583042  0.13762504  0.87163990  1
  V  V47  1  0.68635958  0.86414368  0.24598121  1
  V  V48  1  0.11405229  0.86643883  0.26496986  1
  V  V49  1  0.48121542  0.73702898  0.25387007  1
  V  V50  1  0.54379153  0.02439203  0.03482561  1
  Zn  Zn51  1  0.54087951  0.30170930  0.56500165  1
  Zn  Zn52  1  0.68072812  0.93192943  0.94627815  1
  Zn  Zn53  1  0.79969195  0.60198014  0.56755923  1
  Zn  Zn54  1  0.98232752  0.34865717  0.70787334  1
  Zn  Zn55  1  0.65084365  0.54670355  0.69593564  1
  Zn  Zn56  1  0.48123875  0.84286747  0.12901167  1
  Zn  Zn57  1  0.81246574  0.97533926  0.32880471  1
  Zn  Zn58  1  0.66175265  0.18193627  0.71130636  1
  Zn  Zn59  1  0.40531243  -0.02918034  0.62543198  1
  Zn  Zn60  1  0.23729452  0.66136690  0.61521449  1
  Zn  Zn61  1  0.22055105  0.93773854  0.88055887  1
  Zn  Zn62  1  1.05152927  0.88288484  0.93101165  1
  Zn  Zn63  1  0.75228176  0.27696807  0.84444784  1
  Zn  Zn64  1  0.29516889  0.54634449  0.05877939  1
  Zn  Zn65  1  0.63043164  0.05113254  0.29377790  1
  Zn  Zn66  1  0.17962714  0.91192007  0.44998207  1
  Zn  Zn67  1  0.35432292  0.38346121  0.79016264  1
  Zn  Zn68  1  0.08626523  0.50746316  0.34345038  1
  Zn  Zn69  1  0.43215836  0.32780774  0.43233040  1
  Zn  Zn70  1  0.46509171  0.53394736  0.70992547  1
  Zn  Zn71  1  0.13835332  0.29125226  0.64277925  1
  Zn  Zn72  1  0.78199699  0.12178898  0.57723957  1
  Zn  Zn73  1  0.53622206  0.59843580  0.33084947  1
  Zn  Zn74  1  0.18563700  0.69101525  0.18453200  1
  Zn  Zn75  1  0.83951480  0.52514203  0.08667206  1
  Zn  Zn76  1  0.19582195  0.46307825  0.95664269  1
  Zn  Zn77  1  0.40405816  0.62685092  0.47053990  1
  Zn  Zn78  1  0.08707051  0.38438649  0.47586967  1
  Zn  Zn79  1  0.63901435  0.19581834  0.18842807  1
  Zn  Zn80  1  0.53660860  0.59977523  0.85069153  1
  Zn  Zn81  1  0.71031746  0.66694626  0.20454072  1
  Zn  Zn82  1  0.17999312  0.18133664  0.15127318  1
  Zn  Zn83  1  0.91372054  0.95938668  0.74747871  1
  Zn  Zn84  1  0.31354890  0.47973990  0.56064120  1
  Zn  Zn85  1  0.94860556  0.41792348  0.16987284  1
  Zn  Zn86  1  -0.01140627  0.52848510  0.72944654  1
  Zn  Zn87  1  0.44042557  0.87733738  0.78241430  1
  Zn  Zn88  1  0.51848858  0.05684425  0.71507167  1
  Zn  Zn89  1  0.91520781  1.03675497  0.16022510  1
  Zn  Zn90  1  0.39309915  0.73430122  0.87278327  1
  Zn  Zn91  1  0.56227616  0.31810358  0.05025561  1
  Zn  Zn92  1  0.39427687  0.57946727  0.18558239  1
  Zn  Zn93  1  0.93429109  0.10417354  0.43103241  1
  Zn  Zn94  1  0.69253256  0.42503726  0.46551047  1
  Zn  Zn95  1  0.54915170  0.79944067  0.53259981  1
  Zn  Zn96  1  0.11674956  0.81756170  0.59486778  1
  Zn  Zn97  1  0.79776672  0.20125407  0.30121501  1
  Zn  Zn98  1  0.90132697  0.10185888  0.97422716  1
  Zn  Zn99  1  0.92889770  0.70697034  0.46563906  1
  Zn  Zn100  1  0.03897069  0.18006916  0.03674108  1
  Zn  Zn101  1  0.21808762  0.38887667  0.33505787  1
  O  O102  1  0.11536454  0.12606536  0.08585536  1
  O  O103  1  0.01795311  0.25687247  0.65773360  1
  O  O104  1  0.11332819  0.61141207  0.15461920  1
  O  O105  1  0.12710528  0.64276762  0.64360537  1
  O  O106  1  0.56979584  0.12235287  0.23521987  1
  O  O107  1  0.53055621  0.03326979  0.60111307  1
  O  O108  1  0.63610468  0.61529024  0.14176144  1
  O  O109  1  0.62245288  0.63004918  0.59146959  1
  O  O110  1  0.37878393  0.39222260  0.36565668  1
  O  O111  1  0.38108756  0.39655102  0.90001009  1
  O  O112  1  0.40644457  0.90259093  0.36060545  1
  O  O113  1  0.47408290  0.82376784  0.87336076  1
  O  O114  1  0.88737301  0.29812133  0.43912164  1
  O  O115  1  0.76348611  0.38620102  0.87367015  1
  O  O116  1  0.91927108  0.94749359  0.37015496  1
  O  O117  1  0.87399877  0.90317978  0.83541321  1
  O  O118  1  0.20744674  0.01974329  0.41950148  1
  O  O119  1  0.26231958  0.04213150  0.85389288  1
  O  O120  1  0.26563991  0.49479630  0.34339804  1
  O  O121  1  0.28164664  0.52749876  0.89655182  1
  O  O122  1  0.72353523  0.03740664  0.34893824  1
  O  O123  1  0.72411390  -0.01718385  0.85712996  1
  O  O124  1  0.72349749  0.48070622  0.36914470  1
  O  O125  1  0.77447034  0.64012843  0.78062666  1
  O  O126  1  0.25727154  0.47867058  0.15144484  1
  O  O127  1  0.23396750  0.54409470  0.60806819  1
  O  O128  1  0.28334844  0.98414647  0.12430342  1
  O  O129  1  0.32087512  0.88143225  0.64748938  1
  O  O130  1  0.65257326  0.44869888  0.17119011  1
  O  O131  1  0.74880061  0.55197813  0.64802636  1
  O  O132  1  0.82438753  0.97445411  0.11987529  1
  O  O133  1  0.70550886  1.03807023  0.59558723  1
  O  O134  1  -0.03474129  0.32384126  0.22191693  1
  O  O135  1  -0.01471281  0.43296264  0.77395465  1
  O  O136  1  0.01308882  0.83604196  0.26398159  1
  O  O137  1  0.01531984  0.92598521  0.71499082  1
  O  O138  1  0.45380388  0.34119073  0.22125700  1
  O  O139  1  0.54178694  0.26747074  0.94221521  1
  O  O140  1  0.50638798  0.84642636  0.25122666  1
  O  O141  1  0.59862316  0.82579801  0.76094831  1
  O  O142  1  0.39957770  0.05981874  0.21440808  1
  O  O143  1  0.43020508  0.13584190  0.71131072  1
  O  O144  1  0.49170231  0.62881691  0.22840357  1
  O  O145  1  0.55942348  0.58048165  0.74695951  1
  O  O146  1  0.98877337  0.12010349  0.21032105  1
  O  O147  1  0.94904957  0.12199736  0.75493451  1
  O  O148  1  0.98055700  0.60294406  0.26921198  1
  O  O149  1  0.97087691  0.63509099  0.70776910  1
  O  O150  1  0.38893064  0.27796283  -0.00383190  1
  O  O151  1  0.35288065  0.29126959  0.50688301  1
  O  O152  1  0.33993939  0.73491564  -0.02740194  1
  O  O153  1  0.38671706  0.76654659  0.46482867  1
  O  O154  1  0.80648644  0.14795508  0.04551196  1
  O  O155  1  0.87764440  0.28930162  0.50832080  1
  O  O156  1  0.89503094  0.69962093  0.02633095  1
  O  O157  1  0.88210461  0.81760001  0.44845864  1
  O  O158  1  0.14075853  0.30169558  0.52741742  1
  O  O159  1  0.12486927  0.26335297  0.99374679  1
  O  O160  1  0.19499708  0.75432539  0.53903815  1
  O  O161  1  0.18741728  0.78359300  0.94995148  1
  O  O162  1  0.59148042  0.23402679  0.48842504  1
  O  O163  1  0.67587204  0.30639043  1.02793802  1
  O  O164  1  0.61325832  0.72426153  0.46913396  1
  O  O165  1  0.74575952  0.62284197  1.00040608  1
  O  O166  1  0.56642203  0.26314618  0.14057754  1
  O  O167  1  0.44956493  0.25726055  0.60960937  1
  O  O168  1  0.52154332  0.73831696  0.14642905  1
  O  O169  1  0.46735795  0.75962801  0.60306935  1
  O  O170  1  1.00746270  0.24806520  0.12197044  1
  O  O171  1  1.06576925  0.19130725  0.48575812  1
  O  O172  1  0.98674545  0.70527907  0.15970990  1
  O  O173  1  1.02377806  0.75847575  0.62116947  1
  O  O174  1  -0.00335266  0.22743669  0.31961689  1
  O  O175  1  -0.05940548  0.38087784  0.89165547  1
  O  O176  1  -0.01388665  0.71108328  0.37328683  1
  O  O177  1  -0.00311115  0.72523511  0.83502524  1
  O  O178  1  0.51585056  0.26321428  0.38187408  1
  O  O179  1  0.43010398  0.21296697  0.84440008  1
  O  O180  1  0.52295381  0.71739693  0.34239504  1
  O  O181  1  0.58097928  0.69859563  0.86964050  1
  O  O182  1  0.21113836  0.06696978  0.48271473  1
  O  O183  1  0.25510713  0.17808078  0.95868798  1
  O  O184  1  0.31402776  0.66438558  0.52905755  1
  O  O185  1  0.11028368  0.78154957  0.94769067  1
  O  O186  1  0.83244041  0.10322757  0.48247585  1
  O  O187  1  0.67183130  0.15952198  1.07875817  1
  O  O188  1  0.72728037  0.60138420  0.47006096  1
  O  O189  1  0.76604558  0.54467396  1.00865092  1
  O  O190  1  0.25907226  0.37222137  0.00191466  1
  O  O191  1  0.24996428  0.41390423  0.49490951  1
  O  O192  1  0.18472110  0.92945663  -0.01132105  1
  O  O193  1  0.27819452  0.85434755  0.45280240  1
  O  O194  1  0.82957262  0.28775567  0.04906790  1
  O  O195  1  0.78619786  0.41088021  0.52041201  1
  O  O196  1  0.78416412  0.89059996  -0.00856030  1
  O  O197  1  0.80207384  0.93858702  0.44021902  1
  O  O198  1  0.13153346  0.48623493  0.24147737  1
  O  O199  1  0.12244094  0.51079399  0.72983550  1
  O  O200  1  0.09712482  0.96303619  0.26820066  1
  O  O201  1  0.14608390  1.01745938  0.70518338  1
  O  O202  1  0.72411336  0.45401858  0.17688085  1
  O  O203  1  0.63715924  0.43952838  0.74146904  1
  O  O204  1  0.64550177  0.95295977  0.23541585  1
  O  O205  1  0.62243005  1.01216532  0.74368217  1
  O  O206  1  0.41996676  -0.00622194  0.22859913  1
  O  O207  1  0.31195724  0.03943142  0.67167340  1
  O  O208  1  0.38809235  0.49176186  0.24731445  1
  O  O209  1  0.40373811  0.48744678  0.79285287  1
  O  O210  1  0.85977005  0.03864798  0.25333598  1
  O  O211  1  0.83072582  0.02799167  0.73258397  1
  O  O212  1  0.89198017  0.47235755  0.25599810  1
  O  O213  1  0.80448464  0.42093826  0.81244009  1
  O  O214  1  0.10821612  0.40144849  0.37092914  1
  O  O215  1  0.13083833  0.43233721  0.87661183  1
  O  O216  1  0.11675393  0.87049695  0.36803868  1
  O  O217  1  0.10248713  0.92618942  0.84066844  1
  O  O218  1  0.65873983  0.33038151  0.41604079  1
  O  O219  1  0.58216441  0.24720779  0.88597732  1
  O  O220  1  0.62515998  0.84856974  0.35048478  1
  O  O221  1  0.63197773  0.83674923  0.91872780  1
  O  O222  1  0.26690413  0.05466636  0.11807613  1
  O  O223  1  0.40832964  0.07416754  0.42815685  1
  O  O224  1  0.35185896  0.63576445  0.10302851  1
  O  O225  1  0.40728198  0.61476864  0.65622720  1
  O  O226  1  0.94948507  0.09546544  0.07165503  1
  O  O227  1  0.87428915  0.16242614  0.62497003  1
  O  O228  1  0.89412766  0.59348816  0.15361688  1
  O  O229  1  0.84707711  0.69315753  0.53437678  1
  O  O230  1  0.23765449  0.26348417  0.10128688  1
  O  O231  1  0.25569485  0.27369087  0.61069186  1
  O  O232  1  0.23064478  0.74259338  0.09859578  1
  O  O233  1  0.29643692  0.73474309  0.68102082  1
  O  O234  1  0.73567070  0.25996656  0.14644802  1
  O  O235  1  0.69809034  0.18539724  0.60885612  1
  O  O236  1  0.78653356  0.70303814  0.13233407  1
  O  O237  1  0.86215331  0.74752687  0.68174025  1
  O  O238  1  0.23733025  0.29573226  0.40178241  1
  O  O239  1  0.23866010  0.30080982  0.88678075  1
  O  O240  1  0.24934701  0.70128772  0.39310137  1
  O  O241  1  0.22546873  0.81838369  0.89218442  1
  O  O242  1  0.72183021  0.20516064  0.39428720  1
  O  O243  1  0.73595360  0.22657444  0.94812351  1
  O  O244  1  0.74314274  0.74272970  0.38323883  1
  O  O245  1  0.83185716  0.71762119  0.86050640  1
  O  O246  1  -0.03612734  0.19173788  -0.03532470  1
  O  O247  1  -0.00664876  0.18607250  0.49322553  1
  O  O248  1  0.01332976  0.60859489  0.03575353  1
  O  O249  1  0.00141475  0.63846349  0.52743579  1
  O  O250  1  0.54838696  0.06762312  0.11958493  1
  O  O251  1  0.39784223  0.12922198  0.47045672  1
  O  O252  1  0.53770450  0.62964881  0.02465669  1
  O  O253  1  0.51578827  0.60347291  0.48229214  1
  O  O254  1  0.50414773  0.38605884  0.49751227  1
  O  O255  1  0.48838241  0.39568436  1.02614247  1
  O  O256  1  0.50609785  0.85795456  0.44655747  1
  O  O257  1  0.56998655  0.98668301  0.93882687  1
  O  O258  1  0.97682712  0.41585422  0.51018932  1
  O  O259  1  0.98890203  0.38104085  0.94074763  1
  O  O260  1  0.99499362  0.87060167  0.48534830  1
  O  O261  1  0.95097311  0.84334021  0.95614783  1
  O  O262  1  0.48847761  0.50499693  0.36257037  1
  O  O263  1  0.50612634  0.51743544  0.91873288  1
  O  O264  1  0.53969646  0.98318387  0.33952186  1
  O  O265  1  0.54150394  1.11270405  0.99181442  1
  O  O266  1  0.99804311  0.53577378  0.41347611  1
  O  O267  1  0.79011277  0.49088852  0.80235582  1
  O  O268  1  1.02322053  1.07942788  0.37386384  1
  O  O269  1  1.06339384  0.98056063  0.99701396  1
  O  O270  1  -0.00318145  -0.03086170  0.14833123  1
  O  O271  1  0.02388786  0.10239196  0.61529279  1
  O  O272  1  0.02744404  0.49266265  0.13473201  1
  O  O273  1  0.02708469  0.53131241  0.62177393  1
  O  O274  1  0.52825670  -0.07324584  0.07829343  1
  O  O275  1  0.45426458  -0.03804644  0.72135477  1
  O  O276  1  0.49097642  0.53666355  0.11834673  1
  O  O277  1  0.50653083  0.48803064  0.61267659  1
  O  O278  1  0.25311561  0.34567432  0.23529854  1
  O  O279  1  0.24621146  0.41358990  0.76636544  1
  O  O280  1  0.21613144  0.85574376  0.27397951  1
  O  O281  1  0.23885649  0.93136356  0.76909277  1
  O  O282  1  0.79047519  0.30620090  0.29618265  1
  O  O283  1  0.67678521  0.28169490  0.76600460  1
  O  O284  1  0.77518561  0.88243681  0.27983634  1
  O  O285  1  0.73656554  0.91222191  0.71018004  1
  O  O286  1  0.24919654  0.09455758  0.18475842  1
  O  O287  1  0.22346435  0.13845667  0.76206860  1
  O  O288  1  0.25629685  0.63024610  0.24722985  1
  O  O289  1  0.15399043  0.65449609  0.83157830  1
  O  O290  1  0.72129251  0.14213611  0.24634902  1
  O  O291  1  0.73198570  0.11683860  0.77075896  1
  O  O292  1  0.77006118  0.58879866  0.25981201  1
  O  O293  1  0.77115208  0.69995904  0.82275724  1
  O  O294  1  0.28827292  0.13248213  0.34013425  1
  O  O295  1  0.21931162  0.24933449  0.83771262  1
  O  O296  1  0.35824075  0.59395536  0.37355313  1
  O  O297  1  0.40936733  0.61996420  0.87182934  1
  O  O298  1  0.86666694  0.14176791  0.35704305  1
  O  O299  1  0.84773005  0.10299556  0.87939497  1
  O  O300  1  0.85127914  0.58075159  0.36761941  1
  O  O301  1  0.86794523  0.57198105  0.88171839  1
  O  O302  1  0.14740818  0.39137514  0.12047416  1
  O  O303  1  0.14561816  0.41233362  0.62358976  1
  O  O304  1  0.13289979  0.87790440  0.16962978  1
  O  O305  1  0.15980786  0.84078559  0.69828716  1
  O  O306  1  0.50297745  0.39105325  0.22943219  1
  O  O307  1  0.62294412  0.33673016  0.62466071  1
  O  O308  1  0.71523001  0.85353872  0.14241284  1
  O  O309  1  0.61292271  0.88174909  0.59604275  1
  O  O310  1  0.09579161  0.21642561  0.22080595  1
  O  O311  1  0.11100205  0.33366282  0.74655214  1
  O  O312  1  0.11282586  0.75541334  0.25651590  1
  O  O313  1  -0.00710266  0.67650897  0.88460242  1
  O  O314  1  0.62285084  0.26556355  0.29223250  1
  O  O315  1  0.51728632  0.31878217  0.75437145  1
  O  O316  1  0.66185117  0.75341273  0.25653360  1
  O  O317  1  0.71143588  0.77129747  0.65698983  1
  O  O318  1  0.32186729  0.17368989  0.29345309  1
  O  O319  1  0.36495348  0.28767863  0.72910314  1
  O  O320  1  0.38660190  0.74085537  0.26452191  1
  O  O321  1  0.44326064  0.72999206  0.75501508  1
  O  O322  1  0.88301237  0.20258165  0.21834983  1
  O  O323  1  0.83834011  0.22780171  0.79143386  1
  O  O324  1  0.88175707  0.72538495  0.26689016  1
  O  O325  1  0.88920082  0.80109650  0.71670992  1
  O  O326  1  0.40314302  0.51000975  0.49880286  1
  O  O327  1  0.38306116  0.50149353  0.99903911  1
  O  O328  1  0.39398573  0.93743191  0.52300779  1
  O  O329  1  0.44425487  1.00941172  1.02800843  1
  O  O330  1  0.89147861  0.52559471  0.54903208  1
  O  O331  1  0.90663357  0.52835861  0.91992471  1
  O  O332  1  0.95073686  1.00617019  0.48948155  1
  O  O333  1  0.91204669  0.99279613  0.95904769  1
  O  O334  1  0.13820526  -0.00921512  0.00983565  1
  O  O335  1  0.12062376  -0.08917928  0.54048270  1
  O  O336  1  0.18253444  0.52949477  0.04348377  1
  O  O337  1  0.10526946  0.50582995  0.51438908  1
  O  O338  1  0.64926592  -0.00260087  0.03781329  1
  O  O339  1  0.61692789  -0.00838244  0.47883455  1
  O  O340  1  0.61059027  0.48423842  0.02505701  1
  O  O341  1  0.61272900  0.50259808  0.49313650  1
  O  O342  1  0.35549778  0.37251591  0.10896781  1
  O  O343  1  0.36178520  0.40019720  0.62508494  1
  O  O344  1  0.37831254  0.80869721  0.10764355  1
  O  O345  1  0.33507986  0.82563006  0.79360616  1
  O  O346  1  0.87965083  0.42551928  0.09080403  1
  O  O347  1  0.88775212  0.38883541  0.64519150  1
  O  O348  1  0.88061668  0.82722865  0.11695682  1
  O  O349  1  0.86250443  0.92083429  0.55948610  1
  O  O350  1  0.20749604  0.13734283  0.46926432  1
  O  O351  1  0.12462419  0.12090321  0.89461664  1
  O  O352  1  0.15278730  0.59557605  0.36465405  1
  O  O353  1  0.12569747  0.62503926  0.88879259  1
  O  O354  1  0.60258525  0.13733497  0.37871660  1
  O  O355  1  0.55153428  0.16558536  0.73990252  1
  O  O356  1  0.64746425  0.62753130  0.35095021  1
  O  O357  1  0.69839340  0.63599847  0.94960486  1
