# generated using pymatgen
data_V51Zn51O256
_symmetry_space_group_name_H-M   'P 1'
_cell_length_a   17.43683260
_cell_length_b   17.89883351
_cell_length_c   17.76763387
_cell_angle_alpha   89.02271170
_cell_angle_beta   90.93371589
_cell_angle_gamma   89.66145418
_symmetry_Int_Tables_number   1
_chemical_formula_structural   V51Zn51O256
_chemical_formula_sum   'V51 Zn51 O256'
_cell_volume   5543.61110907
_cell_formula_units_Z   1
loop_
 _symmetry_equiv_pos_site_id
 _symmetry_equiv_pos_as_xyz
  1  'x, y, z'
loop_
 _atom_site_type_symbol
 _atom_site_label
 _atom_site_symmetry_multiplicity
 _atom_site_fract_x
 _atom_site_fract_y
 _atom_site_fract_z
 _atom_site_occupancy
  V  V0  1  0.61527059  0.15388218  0.56109291  1
  V  V1  1  0.61938559  0.19380122  0.32337063  1
  V  V2  1  0.71079628  0.36872566  0.61918964  1
  V  V3  1  0.15513293  0.16328738  0.35929295  1
  V  V4  1  0.10680207  0.20374831  -0.01239778  1
  V  V5  1  0.07314877  0.39633512  0.72904978  1
  V  V6  1  0.06279417  0.50105860  0.60602334  1
  V  V7  1  0.89915641  0.46231577  0.89708398  1
  V  V8  1  0.53242248  0.61974540  0.61209577  1
  V  V9  1  0.05950995  0.87555484  0.36305484  1
  V  V10  1  0.46059560  0.84930288  0.89608732  1
  V  V11  1  0.13756844  0.24860672  0.80939448  1
  V  V12  1  0.25868866  0.59734294  0.41681896  1
  V  V13  1  0.14540307  0.36305422  0.21452476  1
  V  V14  1  0.39372363  0.03047087  0.43644572  1
  V  V15  1  0.40185861  0.59503095  0.27858862  1
  V  V16  1  0.02148271  0.50385324  0.04618321  1
  V  V17  1  0.50871204  0.04499190  0.02222003  1
  V  V18  1  0.64061826  0.77843462  0.89937569  1
  V  V19  1  0.80064068  0.12854616  0.48938769  1
  V  V20  1  0.61506460  0.74810465  0.37542530  1
  V  V21  1  0.62510104  -0.02737573  0.15428072  1
  V  V22  1  0.16604574  0.89056652  0.72401907  1
  V  V23  1  -0.04460297  0.72001914  0.69281391  1
  V  V24  1  0.51233416  -0.01020129  0.57242928  1
  V  V25  1  0.46649946  0.29921383  0.30864468  1
  V  V26  1  0.76656468  0.39701922  0.17004427  1
  V  V27  1  0.81147266  -0.05716120  0.20754713  1
  V  V28  1  0.00182952  -0.02570292  0.49295483  1
  V  V29  1  0.35938469  0.90138552  0.04226612  1
  V  V30  1  0.62137545  0.50785050  0.09683916  1
  V  V31  1  -0.00740526  0.22864735  0.70783841  1
  V  V32  1  0.07415337  0.02743001  0.11742548  1
  V  V33  1  0.69161973  0.10566715  0.02568436  1
  V  V34  1  0.37835403  0.02104865  0.91410802  1
  V  V35  1  0.11177872  0.10256710  0.51262544  1
  V  V36  1  0.67212473  0.26108343  0.89679832  1
  V  V37  1  0.45454878  0.79701706  0.71764340  1
  V  V38  1  0.32406270  0.44652428  0.62597322  1
  V  V39  1  0.15434034  0.56290826  0.18685590  1
  V  V40  1  0.81429550  0.09650262  0.30364411  1
  V  V41  1  -0.00488198  0.37823382  0.41987490  1
  V  V42  1  0.02848163  -0.00519018  -0.05113472  1
  V  V43  1  0.86820913  0.00741577  0.84790499  1
  V  V44  1  0.33479766  0.39359014  -0.01393532  1
  V  V45  1  0.27258983  0.48345090  0.28486014  1
  V  V46  1  0.25112360  0.75896113  0.48250681  1
  V  V47  1  0.81044360  0.40024245  0.48998047  1
  V  V48  1  0.42010967  0.15113466  0.82105116  1
  V  V49  1  0.10048722  0.62701675  0.50659207  1
  V  V50  1  0.50209606  0.62871611  0.10345641  1
  Zn  Zn51  1  0.12837305  0.38572531  0.92573030  1
  Zn  Zn52  1  0.07745300  0.80610988  0.55330806  1
  Zn  Zn53  1  0.30025954  0.62493015  0.59764527  1
  Zn  Zn54  1  0.66590191  0.50101656  0.52551213  1
  Zn  Zn55  1  0.56374022  0.66825705  0.78297581  1
  Zn  Zn56  1  0.97568806  0.14533228  0.86555237  1
  Zn  Zn57  1  0.81506449  -0.03632134  0.41044428  1
  Zn  Zn58  1  0.58334464  0.60299958  0.27798330  1
  Zn  Zn59  1  0.37344746  0.71808211  0.99211033  1
  Zn  Zn60  1  0.98631827  0.90174854  0.17097293  1
  Zn  Zn61  1  0.52842501  0.43794436  0.62934628  1
  Zn  Zn62  1  0.06121789  0.53283890  0.34660401  1
  Zn  Zn63  1  0.80854029  0.26500420  0.76916081  1
  Zn  Zn64  1  0.77559657  0.27475572  0.36323365  1
  Zn  Zn65  1  0.41862506  0.70121230  0.41663675  1
  Zn  Zn66  1  0.32982769  0.32393690  0.78594225  1
  Zn  Zn67  1  0.26662857  0.28076907  0.29543068  1
  Zn  Zn68  1  0.51636023  0.46917979  0.38357149  1
  Zn  Zn69  1  0.71277937  0.16270288  0.16986347  1
  Zn  Zn70  1  0.05271867  0.34107230  0.09239195  1
  Zn  Zn71  1  0.97111317  0.70698236  0.39991946  1
  Zn  Zn72  1  0.48223348  0.15536691  0.42932044  1
  Zn  Zn73  1  0.41653606  0.97120864  0.73981986  1
  Zn  Zn74  1  0.90064368  0.81701580  0.30043743  1
  Zn  Zn75  1  0.35226734  0.87811768  0.40033679  1
  Zn  Zn76  1  0.87855778  0.02097388  0.04804228  1
  Zn  Zn77  1  0.54741919  0.35625283  0.00423364  1
  Zn  Zn78  1  0.01471094  0.06075483  0.30410934  1
  Zn  Zn79  1  0.93104829  0.37714395  0.61821271  1
  Zn  Zn80  1  0.62574218  0.35519598  0.42991426  1
  Zn  Zn81  1  0.97759180  0.89490660  0.67629684  1
  Zn  Zn82  1  0.45331597  0.95696089  0.19160875  1
  Zn  Zn83  1  0.00435640  0.56875259  0.76658972  1
  Zn  Zn84  1  0.55985706  0.80413906  0.57476640  1
  Zn  Zn85  1  0.19787208  0.95156914  0.44565468  1
  Zn  Zn86  1  0.73427134  0.41914727  0.98155434  1
  Zn  Zn87  1  0.33192489  0.56597926  0.09852266  1
  Zn  Zn88  1  0.07809845  0.29563857  0.55093694  1
  Zn  Zn89  1  0.18192132  0.44473031  0.48081895  1
  Zn  Zn90  1  0.55809974  0.81470101  0.05712246  1
  Zn  Zn91  1  0.95832031  0.42711788  0.23231585  1
  Zn  Zn92  1  0.58273469  0.09233640  0.87920820  1
  Zn  Zn93  1  0.61741944  0.27402389  0.71088020  1
  Zn  Zn94  1  0.97860566  0.18588896  0.43552970  1
  Zn  Zn95  1  0.81062495  0.81372654  0.79674721  1
  Zn  Zn96  1  0.15597343  0.17273515  0.17109924  1
  Zn  Zn97  1  0.56205222  0.01657161  0.33498660  1
  Zn  Zn98  1  0.13498836  0.69548738  0.32907622  1
  Zn  Zn99  1  0.43683993  0.22319103  0.99503236  1
  Zn  Zn100  1  0.08753350  0.07475040  0.76358782  1
  Zn  Zn101  1  0.21862620  0.04448770  0.01726194  1
  O  O102  1  0.09964356  0.24037558  0.08024867  1
  O  O103  1  0.14910886  0.10539145  0.59728904  1
  O  O104  1  0.14623286  0.64793951  0.22921532  1
  O  O105  1  0.09209645  0.60147397  0.60521569  1
  O  O106  1  0.65797417  0.06836983  0.11788184  1
  O  O107  1  0.61159285  0.18610852  0.65039804  1
  O  O108  1  0.57183770  0.57669941  0.17403069  1
  O  O109  1  0.58976405  0.69528603  0.60189115  1
  O  O110  1  0.36972409  0.28880486  0.32667734  1
  O  O111  1  0.33679023  0.39265131  0.88052790  1
  O  O112  1  0.40329271  0.95849945  0.34304790  1
  O  O113  1  0.37303149  0.92198696  0.90834602  1
  O  O114  1  0.80422396  0.36581480  0.39882885  1
  O  O115  1  0.95736437  0.37178511  0.91526624  1
  O  O116  1  0.87785798  0.75322304  0.37690527  1
  O  O117  1  0.89519954  0.90518787  0.81531645  1
  O  O118  1  0.30716146  -0.02797863  0.43351963  1
  O  O119  1  0.28758958  0.04733523  0.92843400  1
  O  O120  1  0.23915280  0.49616802  0.38759845  1
  O  O121  1  0.17588208  0.55858232  0.86976474  1
  O  O122  1  0.80580639  -0.01712459  0.30055548  1
  O  O123  1  0.77534614  0.00044313  0.85280322  1
  O  O124  1  0.75186341  0.55524715  0.31984584  1
  O  O125  1  0.80208167  0.46332762  0.90749532  1
  O  O126  1  0.25323690  0.52418820  0.18354428  1
  O  O127  1  0.30356681  0.53805973  0.65416328  1
  O  O128  1  0.16303820  1.08009716  0.11625275  1
  O  O129  1  0.28394936  1.16482647  0.65859597  1
  O  O130  1  0.69155624  0.46698767  0.17052799  1
  O  O131  1  0.71166642  0.46129059  0.63191500  1
  O  O132  1  0.73127432  0.94830581  0.15085250  1
  O  O133  1  0.74825746  0.89694442  0.46904761  1
  O  O134  1  0.04359236  0.35496545  0.21333879  1
  O  O135  1  -0.02315003  0.38460939  0.72682660  1
  O  O136  1  -0.00639980  0.86864433  0.27508903  1
  O  O137  1  0.06533968  0.89935956  0.75195809  1
  O  O138  1  0.48382388  0.32059903  0.22202286  1
  O  O139  1  0.53870290  0.45819946  0.74547526  1
  O  O140  1  0.47375958  0.95131720  0.29957848  1
  O  O141  1  0.43746482  0.87367570  0.78993993  1
  O  O142  1  0.38997992  0.10700285  0.24352317  1
  O  O143  1  0.51716740  0.15447128  0.81000275  1
  O  O144  1  0.48839361  0.55331357  0.32228814  1
  O  O145  1  0.52242300  0.60663442  0.70855039  1
  O  O146  1  0.92842215  0.18416542  0.16119951  1
  O  O147  1  1.02112591  0.13871244  0.69457753  1
  O  O148  1  0.90395999  0.59861756  0.29661473  1
  O  O149  1  0.90833004  0.65882497  0.64277326  1
  O  O150  1  0.34370635  0.29332344  -0.02072300  1
  O  O151  1  0.28393968  0.24870535  0.51718729  1
  O  O152  1  0.33108501  0.81147821  0.02219915  1
  O  O153  1  0.34819331  0.78264809  0.43911200  1
  O  O154  1  0.92300061  0.26625751  0.03045027  1
  O  O155  1  0.86739166  0.19482358  0.45987047  1
  O  O156  1  0.98711368  0.79409461  0.04592157  1
  O  O157  1  0.74298508  0.67373192  0.60954656  1
  O  O158  1  0.08028186  0.20155934  0.49748816  1
  O  O159  1  0.12175664  0.27556481  0.91546661  1
  O  O160  1  0.14025209  0.72057619  0.51466979  1
  O  O161  1  0.15335564  0.80258471  1.03143080  1
  O  O162  1  0.70857518  0.16707744  0.52386541  1
  O  O163  1  0.70686576  0.19225702  1.06291100  1
  O  O164  1  0.60715402  0.77593967  0.46984746  1
  O  O165  1  0.64374396  0.77887460  0.99496399  1
  O  O166  1  0.48172276  0.29180845  0.06538223  1
  O  O167  1  0.50027538  0.40822166  0.78620964  1
  O  O168  1  0.52598417  0.72014484  0.10674498  1
  O  O169  1  0.45974581  0.81464160  0.62069086  1
  O  O170  1  0.93903921  0.32935548  0.07245064  1
  O  O171  1  0.99124049  0.28225046  0.61502943  1
  O  O172  1  0.92068156  0.71545157  0.18488520  1
  O  O173  1  0.99785091  0.79419252  0.63235219  1
  O  O174  1  -0.02763506  0.29438710  0.38732664  1
  O  O175  1  0.01675533  0.23272195  0.81001515  1
  O  O176  1  0.06110011  0.76849270  0.36101071  1
  O  O177  1  0.02226501  0.67041278  0.74977881  1
  O  O178  1  0.51407246  0.20649900  0.33433924  1
  O  O179  1  0.50598624  0.28777154  0.93334001  1
  O  O180  1  0.51178798  0.76082761  0.38709765  1
  O  O181  1  0.42788139  0.76083218  0.90266744  1
  O  O182  1  0.18781154  0.10678209  0.43798469  1
  O  O183  1  0.18466443  0.14957741  0.98386982  1
  O  O184  1  0.22479634  0.59346099  0.50860999  1
  O  O185  1  0.24471107  0.63829104  1.07338016  1
  O  O186  1  0.78199763  0.06794855  0.40964158  1
  O  O187  1  0.77965738  0.06467348  1.02019659  1
  O  O188  1  0.74136164  0.63358069  0.55425669  1
  O  O189  1  0.83710756  0.63989243  1.05431325  1
  O  O190  1  0.23485167  0.40086935  -0.03634264  1
  O  O191  1  0.37976036  0.38686133  0.45383994  1
  O  O192  1  0.27552303  0.94929251  0.04983062  1
  O  O193  1  0.21830487  0.84705853  0.48895414  1
  O  O194  1  0.78513626  0.39046063  0.07701301  1
  O  O195  1  0.70966952  0.35329413  0.51565732  1
  O  O196  1  0.95400132  0.76339315  -0.00900236  1
  O  O197  1  0.79611494  0.83679964  0.48818932  1
  O  O198  1  0.12056282  0.49922813  0.25376703  1
  O  O199  1  0.07472862  0.50297355  0.71441442  1
  O  O200  1  0.03490127  1.06827795  0.19646938  1
  O  O201  1  0.14308852  0.99118228  0.72264701  1
  O  O202  1  0.68540641  0.53377831  0.30568976  1
  O  O203  1  0.57020720  0.46260664  0.90734993  1
  O  O204  1  0.61224107  0.97815561  0.24851764  1
  O  O205  1  0.61240362  1.00813584  0.81187726  1
  O  O206  1  0.36820872  0.05622686  0.20133673  1
  O  O207  1  0.38711916  0.05174531  0.80694496  1
  O  O208  1  0.36263922  0.45782474  0.28146852  1
  O  O209  1  0.38674139  0.59678584  0.84649771  1
  O  O210  1  0.89019090  -0.03290122  0.15076030  1
  O  O211  1  0.90472181  -0.05122881  0.74859181  1
  O  O212  1  0.90459101  0.55820864  0.23889679  1
  O  O213  1  0.90352606  0.36086532  0.85965978  1
  O  O214  1  0.08719892  0.36919787  0.46551411  1
  O  O215  1  0.10799329  0.40122702  0.82040508  1
  O  O216  1  0.15378255  0.89434704  0.35234683  1
  O  O217  1  0.21311824  0.89186650  0.81161466  1
  O  O218  1  0.65860032  0.26726537  0.37997636  1
  O  O219  1  0.65903707  0.33717044  0.96059135  1
  O  O220  1  0.63526808  0.83185746  0.33318997  1
  O  O221  1  0.56169590  0.84262222  0.87711116  1
  O  O222  1  0.35054844  0.16340240  0.07917858  1
  O  O223  1  0.33262058  0.12373240  0.63231459  1
  O  O224  1  0.41460506  0.58823418  0.18086572  1
  O  O225  1  0.42808309  0.63363104  0.58130253  1
  O  O226  1  0.85297923  0.25393649  0.01703618  1
  O  O227  1  0.67811452  -0.01633588  0.70842677  1
  O  O228  1  0.96156503  0.66999493  0.15302937  1
  O  O229  1  0.79390144  0.57931156  0.74279001  1
  O  O230  1  0.30704100  0.19585789  0.12852220  1
  O  O231  1  0.26555822  0.42343749  0.54803320  1
  O  O232  1  0.17864210  0.79044579  0.09499601  1
  O  O233  1  0.28686742  0.72568992  0.56739360  1
  O  O234  1  0.75525014  0.28914327  0.18443705  1
  O  O235  1  0.83714078  0.07492248  0.55483468  1
  O  O236  1  0.80217482  0.69931520  0.04773645  1
  O  O237  1  0.69201916  0.82588042  0.67796877  1
  O  O238  1  0.18980155  0.25240337  0.36977213  1
  O  O239  1  0.22585919  0.28599579  0.80650386  1
  O  O240  1  0.23373082  0.69843471  0.39497155  1
  O  O241  1  0.22162491  0.64350800  0.99859975  1
  O  O242  1  0.76833705  0.18321319  0.31771326  1
  O  O243  1  0.76504056  0.26499747  0.86557508  1
  O  O244  1  0.71055025  0.72928597  0.39359424  1
  O  O245  1  0.72805394  0.80449141  0.86175275  1
  O  O246  1  0.02282764  0.15962087  -0.03615530  1
  O  O247  1  0.00556451  0.07862084  0.49417692  1
  O  O248  1  0.01374315  0.61853679  0.01236895  1
  O  O249  1  0.00806107  0.64982009  0.48622462  1
  O  O250  1  0.49685195  0.13546804  0.03824279  1
  O  O251  1  0.54727953  0.19924592  0.50521567  1
  O  O252  1  0.41143969  0.63234275  0.04691834  1
  O  O253  1  0.47135637  0.65220621  0.51735588  1
  O  O254  1  0.35163338  0.25933306  0.53272146  1
  O  O255  1  0.43174167  0.41781241  0.97515887  1
  O  O256  1  0.54099802  0.91027204  0.53280522  1
  O  O257  1  0.47597597  0.86999662  0.99562502  1
  O  O258  1  0.92296275  0.40098486  0.48599750  1
  O  O259  1  1.07026680  0.42587069  1.00904851  1
  O  O260  1  1.04159641  0.87027864  0.46650036  1
  O  O261  1  1.03075163  0.90508627  0.93414581  1
  O  O262  1  0.51482495  0.36167883  0.37030077  1
  O  O263  1  0.53354536  0.52056125  0.89592725  1
  O  O264  1  0.49622904  1.04264226  0.41565952  1
  O  O265  1  0.49013324  1.03291155  0.91837736  1
  O  O266  1  0.99529994  0.44450009  0.34251924  1
  O  O267  1  1.05999196  0.59350187  0.96274545  1
  O  O268  1  1.02659917  0.97430323  0.37023256  1
  O  O269  1  1.03836811  1.04219854  0.85822280  1
  O  O270  1  -0.00886000  0.03116382  0.05197410  1
  O  O271  1  -0.00765349  -0.04431150  0.58760813  1
  O  O272  1  -0.01943009  0.47143343  0.12507365  1
  O  O273  1  -0.03206003  0.48757523  0.60066978  1
  O  O274  1  0.52394520  0.00642713  0.12033742  1
  O  O275  1  0.50066117  -0.01969354  0.66661840  1
  O  O276  1  0.55692392  0.58325554  0.03880165  1
  O  O277  1  0.57606719  0.53467312  0.58338214  1
  O  O278  1  0.22379484  0.39229038  0.28087504  1
  O  O279  1  0.30616336  0.38917843  0.70205522  1
  O  O280  1  0.30765154  0.81791308  0.25592136  1
  O  O281  1  0.25271647  0.91261794  0.68019255  1
  O  O282  1  0.72462643  0.32635837  0.24505485  1
  O  O283  1  0.73320947  0.30732886  0.69742823  1
  O  O284  1  0.82465363  0.85033085  0.22730366  1
  O  O285  1  0.76233879  0.84987318  0.69110648  1
  O  O286  1  0.18824240  0.13013280  0.27617211  1
  O  O287  1  0.37800052  0.22550998  0.77454862  1
  O  O288  1  0.30004864  0.58685795  0.30408584  1
  O  O289  1  0.40219825  0.54911707  0.80024542  1
  O  O290  1  0.79397861  0.09408299  0.20707108  1
  O  O291  1  0.65544841  0.03298687  0.75275625  1
  O  O292  1  0.72335282  0.64788788  0.18433956  1
  O  O293  1  0.75572180  0.63085690  0.76727817  1
  O  O294  1  0.37020411  0.12183623  0.42607638  1
  O  O295  1  0.39686177  0.15695942  0.91576051  1
  O  O296  1  0.35364901  0.60884578  0.43710473  1
  O  O297  1  0.27119956  0.66948095  0.94998704  1
  O  O298  1  0.90960098  0.10585291  0.31469133  1
  O  O299  1  0.88628800  0.10017585  0.82214309  1
  O  O300  1  0.97952895  0.61526966  0.32823237  1
  O  O301  1  0.92877251  0.51912939  0.82462619  1
  O  O302  1  0.16086900  0.39579719  0.12870830  1
  O  O303  1  0.10439840  0.40649850  0.62419205  1
  O  O304  1  0.08793299  0.93600184  0.14421314  1
  O  O305  1  0.13759486  0.86829562  0.62840458  1
  O  O306  1  0.56663488  0.43264070  0.07717516  1
  O  O307  1  0.60531878  0.35523868  0.63037426  1
  O  O308  1  0.60100146  0.88424023  0.12735424  1
  O  O309  1  0.65887543  0.85508875  0.61693336  1
  O  O310  1  0.18208028  0.27049892  0.21202581  1
  O  O311  1  0.09987056  0.28970906  0.71753257  1
  O  O312  1  0.23966451  0.80497391  0.24216436  1
  O  O313  1  0.16628114  0.79448548  0.74043057  1
  O  O314  1  0.63020880  0.20088116  0.22961757  1
  O  O315  1  0.61712460  0.27884774  0.81828353  1
  O  O316  1  0.59970955  0.71702718  0.27822986  1
  O  O317  1  0.54627727  0.76592082  0.74056302  1
  O  O318  1  0.34005113  0.22804954  0.18641682  1
  O  O319  1  0.46418782  0.35580097  0.74964344  1
  O  O320  1  0.41413793  0.68514089  0.30101161  1
  O  O321  1  0.39217971  0.72915220  0.73150916  1
  O  O322  1  0.91779919  0.23693725  0.20285933  1
  O  O323  1  0.89446141  0.23292754  0.71866052  1
  O  O324  1  0.77856720  0.67327773  0.21968998  1
  O  O325  1  0.89407190  0.76686382  0.75266490  1
  O  O326  1  0.40432442  0.45115952  0.44999869  1
  O  O327  1  0.32625247  0.49057406  1.01336761  1
  O  O328  1  0.41775988  1.01713423  0.53464789  1
  O  O329  1  0.40643832  1.00876419  1.02089856  1
  O  O330  1  0.77593392  0.48879239  0.48800121  1
  O  O331  1  0.93906378  0.50251719  0.98102059  1
  O  O332  1  0.91073195  0.95542576  0.46007428  1
  O  O333  1  0.90983598  0.99781417  0.94192745  1
  O  O334  1  0.11562593  0.00397832  0.00099231  1
  O  O335  1  0.11712298  -0.00433151  0.49950196  1
  O  O336  1  0.10361358  0.55231707  0.10296936  1
  O  O337  1  0.09483105  0.50987854  0.50704557  1
  O  O338  1  0.61011502  0.04167003  -0.01082422  1
  O  O339  1  0.58950850  0.05843098  0.56167159  1
  O  O340  1  0.68602694  0.51123444  0.02637472  1
  O  O341  1  0.60827910  0.45952036  0.44270764  1
  O  O342  1  0.33025697  0.36541361  0.07892641  1
  O  O343  1  0.42124159  0.44060795  0.60369571  1
  O  O344  1  0.39597593  0.89122325  0.13333971  1
  O  O345  1  0.35082480  0.94857281  0.65407037  1
  O  O346  1  0.84915748  0.41998351  0.21770508  1
  O  O347  1  0.82442094  0.36715044  0.58904521  1
  O  O348  1  0.93946602  0.83770972  0.08931313  1
  O  O349  1  0.78730782  0.80459048  0.55065883  1
  O  O350  1  0.05355489  0.15372141  0.35253258  1
  O  O351  1  0.15384468  0.15595491  0.79895350  1
  O  O352  1  0.12387644  0.60421497  0.39852586  1
  O  O353  1  0.23092906  0.56082730  0.82742819  1
  O  O354  1  0.62919533  0.10360741  0.35351248  1
  O  O355  1  0.65680632  0.16403667  0.92861834  1
  O  O356  1  0.60430688  0.64588605  0.38591993  1
  O  O357  1  0.61616147  0.68820473  0.87243614  1
