# generated using pymatgen
data_V51Zn51O256
_symmetry_space_group_name_H-M   'P 1'
_cell_length_a   17.40601311
_cell_length_b   17.73840782
_cell_length_c   17.87509989
_cell_angle_alpha   90.45872577
_cell_angle_beta   89.33486843
_cell_angle_gamma   91.75986144
_symmetry_Int_Tables_number   1
_chemical_formula_structural   V51Zn51O256
_chemical_formula_sum   'V51 Zn51 O256'
_cell_volume   5515.88925000
_cell_formula_units_Z   1
loop_
 _symmetry_equiv_pos_site_id
 _symmetry_equiv_pos_as_xyz
  1  'x, y, z'
loop_
 _atom_site_type_symbol
 _atom_site_label
 _atom_site_symmetry_multiplicity
 _atom_site_fract_x
 _atom_site_fract_y
 _atom_site_fract_z
 _atom_site_occupancy
  V  V0  1  0.10531369  0.70043247  0.43681344  1
  V  V1  1  0.74789161  0.11792767  0.35948716  1
  V  V2  1  0.86402545  0.87705079  0.51539409  1
  V  V3  1  0.06192001  0.46445809  0.63482997  1
  V  V4  1  0.13433081  0.86801764  0.73808542  1
  V  V5  1  0.89279924  0.31524431  -0.01489394  1
  V  V6  1  0.27386196  0.36190532  0.61557843  1
  V  V7  1  0.85824793  0.21664572  0.63044414  1
  V  V8  1  0.44570361  -0.01162596  0.37711438  1
  V  V9  1  0.14225206  0.32861648  0.74513026  1
  V  V10  1  0.37721927  0.14731754  0.22208604  1
  V  V11  1  -0.02328145  0.01279090  0.50728292  1
  V  V12  1  0.66282236  0.37585499  0.75148873  1
  V  V13  1  0.24842951  0.03295539  0.74992099  1
  V  V14  1  0.71927788  0.65322080  0.88315297  1
  V  V15  1  0.26736792  0.52160760  0.72805526  1
  V  V16  1  0.72561352  0.74636226  0.52838416  1
  V  V17  1  0.20148801  0.67935043  0.90966326  1
  V  V18  1  0.55272854  0.46169403  0.03786841  1
  V  V19  1  0.62973110  0.28170242  0.89030006  1
  V  V20  1  0.00566639  0.88388224  0.86978126  1
  V  V21  1  0.51673331  0.34817827  0.40898630  1
  V  V22  1  0.50104812  0.26385571  0.22808982  1
  V  V23  1  0.64936284  0.03780253  0.12146021  1
  V  V24  1  -0.02066580  0.63011538  0.62875790  1
  V  V25  1  0.85863906  0.55642124  0.40805272  1
  V  V26  1  0.13394043  -0.00941382  0.60834767  1
  V  V27  1  0.34673265  0.36978256  0.01812042  1
  V  V28  1  0.64661390  0.36971746  0.26414747  1
  V  V29  1  0.87231267  -0.00409815  0.85873139  1
  V  V30  1  -0.00430146  0.60272940  0.05019621  1
  V  V31  1  0.01719370  0.10183731  0.67045464  1
  V  V32  1  0.91573555  0.77866079  0.10741575  1
  V  V33  1  -0.01470947  0.75839917  0.75790494  1
  V  V34  1  0.36423252  0.44176559  0.34531075  1
  V  V35  1  0.48745487  0.25613282  0.76389230  1
  V  V36  1  0.88559865  0.57905390  0.19343676  1
  V  V37  1  -0.01075043  0.14300668  0.16738727  1
  V  V38  1  0.47474509  0.38974659  0.86879361  1
  V  V39  1  0.12790024  0.52063771  0.16607427  1
  V  V40  1  0.38103903  0.80094607  0.54906303  1
  V  V41  1  0.48195939  0.14066238  0.64975079  1
  V  V42  1  0.01684008  0.81630312  0.32023276  1
  V  V43  1  0.74544197  0.88522616  0.66379784  1
  V  V44  1  0.84612290  0.62429982  0.76363626  1
  V  V45  1  0.85667051  0.75985069  0.64745521  1
  V  V46  1  0.73138882  0.03925919  0.74738004  1
  V  V47  1  0.91329350  0.36584445  0.53234470  1
  V  V48  1  0.65602291  0.81849716  0.32251203  1
  V  V49  1  0.74196974  0.38406104  0.59147124  1
  V  V50  1  0.22108829  0.13845461  0.90975390  1
  Zn  Zn51  1  0.26076010  0.50299305  0.49792044  1
  Zn  Zn52  1  0.96096069  0.13038185  0.97106461  1
  Zn  Zn53  1  0.35085197  0.26055574  0.35106160  1
  Zn  Zn54  1  0.17485349  0.13655711  0.25800255  1
  Zn  Zn55  1  0.68316590  0.22135444  0.67963488  1
  Zn  Zn56  1  0.80447858  0.81883795  0.83078496  1
  Zn  Zn57  1  0.24317637  0.50291211  0.01520211  1
  Zn  Zn58  1  0.18617418  0.83949805  0.37414781  1
  Zn  Zn59  1  0.70986506  0.53752599  0.29333710  1
  Zn  Zn60  1  0.44880509  0.17787958  0.45011030  1
  Zn  Zn61  1  0.54257502  0.35195475  0.60610943  1
  Zn  Zn62  1  0.69408509  0.32971356  0.06931159  1
  Zn  Zn63  1  0.34541514  0.18684183  0.04286234  1
  Zn  Zn64  1  0.94804306  0.94195501  0.20668859  1
  Zn  Zn65  1  0.78587240  0.57384109  0.59116155  1
  Zn  Zn66  1  0.80009020  0.27338031  0.80576272  1
  Zn  Zn67  1  0.82902191  0.86865689  0.31656073  1
  Zn  Zn68  1  0.67655179  0.20523108  0.19768869  1
  Zn  Zn69  1  0.15103815  0.45322140  0.87955364  1
  Zn  Zn70  1  0.59688712  -0.00364920  0.62998914  1
  Zn  Zn71  1  0.66541719  0.71011291  0.74553287  1
  Zn  Zn72  1  0.55986977  0.73041618  0.45283038  1
  Zn  Zn73  1  0.32115180  0.45929659  0.17205221  1
  Zn  Zn74  1  0.69573649  0.46350292  0.93599182  1
  Zn  Zn75  1  0.82656501  0.70963393  0.28678519  1
  Zn  Zn76  1  0.92801568  0.94059751  0.69754223  1
  Zn  Zn77  1  0.16992358  0.61915354  0.59220815  1
  Zn  Zn78  1  0.50739546  0.28588419  1.02587045  1
  Zn  Zn79  1  0.80472811  0.16335919  0.07891448  1
  Zn  Zn80  1  0.50690526  0.46348787  0.23330591  1
  Zn  Zn81  1  0.60282655  0.54176400  0.82571166  1
  Zn  Zn82  1  0.70788580  1.07421510  0.92885261  1
  Zn  Zn83  1  0.56519862  0.81300985  0.62285925  1
  Zn  Zn84  1  0.42137386  0.56247854  0.99179560  1
  Zn  Zn85  1  0.05752331  0.76334939  -0.00131510  1
  Zn  Zn86  1  0.41949614  0.43755092  0.69897093  1
  Zn  Zn87  1  0.65822850  0.90967158  0.49719585  1
  Zn  Zn88  1  0.77629953  0.39297088  0.40255923  1
  Zn  Zn89  1  0.55797871  0.09229983  0.29865296  1
  Zn  Zn90  1  0.04190065  0.68551924  0.19313538  1
  Zn  Zn91  1  0.30716995  0.30465649  0.82727911  1
  Zn  Zn92  1  0.04710824  0.81067238  0.57341966  1
  Zn  Zn93  1  0.77642089  0.04223623  0.55748829  1
  Zn  Zn94  1  0.18759978  0.18654303  0.65839030  1
  Zn  Zn95  1  0.97022639  0.43988287  0.11259431  1
  Zn  Zn96  1  0.41840080  0.95837708  0.67320070  1
  Zn  Zn97  1  0.11786985  0.61044297  0.74933914  1
  Zn  Zn98  1  0.08435421  0.96575481  0.36579410  1
  Zn  Zn99  1  0.90385982  0.70760978  0.93053238  1
  Zn  Zn100  1  0.91635685  0.70856807  0.46004555  1
  Zn  Zn101  1  0.03987790  0.56410614  0.33915181  1
  O  O102  1  0.08857129  0.12347908  0.18910978  1
  O  O103  1  0.11597924  0.09763992  0.62900229  1
  O  O104  1  0.08057611  0.60030578  0.11882911  1
  O  O105  1  0.07924244  0.64634895  0.65018147  1
  O  O106  1  0.62857572  0.14198757  0.11858742  1
  O  O107  1  0.60977586  0.15185067  0.61770563  1
  O  O108  1  0.59779619  0.71659866  0.12359209  1
  O  O109  1  0.59045736  0.54923048  0.58531141  1
  O  O110  1  0.31463269  0.35866035  0.33164105  1
  O  O111  1  0.37687707  0.37959527  0.88735341  1
  O  O112  1  0.42487759  0.89881596  0.34903058  1
  O  O113  1  0.49380066  0.75172115  0.87005802  1
  O  O114  1  0.87974897  0.37909738  0.44325703  1
  O  O115  1  0.86108021  0.27704444  0.89790817  1
  O  O116  1  0.84132467  0.87559442  0.42453729  1
  O  O117  1  0.86710534  0.89557240  0.87853471  1
  O  O118  1  0.36223258  -0.00576222  0.42864999  1
  O  O119  1  0.23561670  0.06040277  0.84797668  1
  O  O120  1  0.30667460  0.49956344  0.39395123  1
  O  O121  1  0.23139352  0.49723627  0.81442016  1
  O  O122  1  0.71425853  0.02513179  0.33984204  1
  O  O123  1  0.75485096  0.02182103  0.84904270  1
  O  O124  1  0.77978156  0.50183510  0.37061440  1
  O  O125  1  0.71315624  0.54618063  0.87845525  1
  O  O126  1  0.22735951  0.50863359  0.13947603  1
  O  O127  1  0.24347692  0.45331803  0.65999838  1
  O  O128  1  0.26397133  0.95977628  0.07497953  1
  O  O129  1  0.22145280  0.99008933  0.57742461  1
  O  O130  1  0.60458790  0.64983489  0.10820305  1
  O  O131  1  0.73225138  0.47896763  0.61254876  1
  O  O132  1  0.75342307  1.07559591  0.12323761  1
  O  O133  1  0.76769273  0.99105567  0.65968147  1
  O  O134  1  -0.05133122  0.35960346  0.26955109  1
  O  O135  1  -0.06416102  0.37708385  0.76539149  1
  O  O136  1  0.02417700  0.90697702  0.27503778  1
  O  O137  1  -0.01972823  0.86812687  0.75965406  1
  O  O138  1  0.50189006  0.35726942  0.26316675  1
  O  O139  1  0.47798212  0.37307131  0.76921130  1
  O  O140  1  0.61532148  0.85401740  0.24695969  1
  O  O141  1  0.48867471  0.89537685  0.73532445  1
  O  O142  1  0.48576412  0.15575977  0.24893092  1
  O  O143  1  0.50370507  0.15719539  0.75178513  1
  O  O144  1  0.50235201  0.64035880  0.24269008  1
  O  O145  1  0.55130853  0.52641802  0.63892323  1
  O  O146  1  0.96744508  0.18988187  0.24625911  1
  O  O147  1  1.02299730  0.09460028  0.76073368  1
  O  O148  1  0.96517892  0.61411987  0.24349978  1
  O  O149  1  0.96558230  0.65649641  0.75149622  1
  O  O150  1  0.39614774  0.27570021  0.00817139  1
  O  O151  1  0.34613922  0.18506702  0.42293855  1
  O  O152  1  0.46075490  0.70962444  0.01061621  1
  O  O153  1  0.46732520  0.77766305  0.49186849  1
  O  O154  1  0.89002723  0.21283361  0.01402383  1
  O  O155  1  0.90601466  0.26856615  0.55117349  1
  O  O156  1  0.87622162  0.76378075  0.01927986  1
  O  O157  1  0.84921347  0.76052507  0.53717670  1
  O  O158  1  0.13525266  0.11171985  0.41877453  1
  O  O159  1  0.19206665  0.27934631  1.10163035  1
  O  O160  1  0.11523047  0.73459624  0.52881086  1
  O  O161  1  0.15698903  0.72927501  0.98218413  1
  O  O162  1  0.59264162  0.17282071  0.54486507  1
  O  O163  1  0.61894704  0.27941301  0.99084116  1
  O  O164  1  0.62271655  0.76935871  0.53374644  1
  O  O165  1  0.54637018  0.84725216  1.00725419  1
  O  O166  1  0.51002583  0.26665756  0.13397186  1
  O  O167  1  0.49891078  0.26594095  0.66481652  1
  O  O168  1  0.43046260  0.69902420  0.07558967  1
  O  O169  1  0.45132902  0.79526658  0.62721106  1
  O  O170  1  1.02382613  0.22415576  0.12394155  1
  O  O171  1  0.96085318  0.17640308  0.64613776  1
  O  O172  1  1.00948895  0.73221064  0.09859892  1
  O  O173  1  0.96818696  0.75774677  0.64559202  1
  O  O174  1  0.04880568  0.24023494  0.41955550  1
  O  O175  1  0.05679631  0.15874753  0.91494268  1
  O  O176  1  0.01311057  0.72552397  0.40141011  1
  O  O177  1  -0.02925022  0.77092571  0.85780836  1
  O  O178  1  0.47900003  0.25980574  0.37790877  1
  O  O179  1  0.51919849  0.28814653  0.87183338  1
  O  O180  1  0.58577282  0.75306221  0.35314540  1
  O  O181  1  0.61313151  0.83897164  0.98580608  1
  O  O182  1  0.18218933  0.16586350  0.42234216  1
  O  O183  1  0.27586319  0.12517563  0.98661493  1
  O  O184  1  0.24573103  0.60352565  0.52002338  1
  O  O185  1  0.27803947  0.61517472  0.96040235  1
  O  O186  1  0.75934364  0.08327784  0.45196641  1
  O  O187  1  0.75676697  0.14821676  0.98687639  1
  O  O188  1  0.72293776  0.65424630  0.55810646  1
  O  O189  1  0.70929109  0.67343861  0.97131207  1
  O  O190  1  0.25888466  0.35107089  -0.01117775  1
  O  O191  1  0.27012926  0.40117499  0.52669640  1
  O  O192  1  0.38000473  0.83717901  0.00151572  1
  O  O193  1  0.19352359  0.93915124  0.35645974  1
  O  O194  1  0.79521194  0.32360320  0.01975932  1
  O  O195  1  0.72228409  0.37433902  0.49979198  1
  O  O196  1  0.79900888  0.89465992  0.04524204  1
  O  O197  1  0.75082674  0.86692144  0.54787500  1
  O  O198  1  0.11391750  0.54269541  0.25814558  1
  O  O199  1  0.07997954  0.50570600  0.72133079  1
  O  O200  1  0.34909089  0.89855247  0.19575368  1
  O  O201  1  0.16195403  0.98043474  0.72129781  1
  O  O202  1  0.62071655  0.47146851  0.26454253  1
  O  O203  1  0.62805917  0.46430934  0.75443440  1
  O  O204  1  0.62173260  1.06128534  0.21603740  1
  O  O205  1  0.63762534  1.01593927  0.73633888  1
  O  O206  1  0.39438164  0.04032474  0.30538346  1
  O  O207  1  0.32971268  -0.01593213  0.73178803  1
  O  O208  1  0.39146132  0.48242319  0.25360216  1
  O  O209  1  0.36751840  0.52519120  0.73062853  1
  O  O210  1  0.84883236  -0.05365457  0.24852142  1
  O  O211  1  0.87593108  0.01503311  0.76506528  1
  O  O212  1  0.89548108  0.48494055  0.18083703  1
  O  O213  1  0.86115945  0.53475919  0.76525897  1
  O  O214  1  0.03246529  0.30017850  0.39120120  1
  O  O215  1  0.10894679  0.36746769  0.82791681  1
  O  O216  1  0.07314058  0.85440393  0.39830753  1
  O  O217  1  0.10357134  0.88854851  0.83586170  1
  O  O218  1  0.60578737  0.36477230  0.37275079  1
  O  O219  1  0.65744480  0.37688823  0.87299196  1
  O  O220  1  0.66226375  0.88675154  0.39439922  1
  O  O221  1  0.55843612  0.89753869  0.84180629  1
  O  O222  1  0.38295843  0.13365488  0.12823917  1
  O  O223  1  0.39210904  0.14685310  0.63051838  1
  O  O224  1  0.40643279  0.62703304  0.09155192  1
  O  O225  1  0.36035223  0.70525130  0.56011077  1
  O  O226  1  0.88782754  0.14161740  0.14647726  1
  O  O227  1  0.81709542  0.13541569  0.59935266  1
  O  O228  1  0.90369539  0.61085799  0.09742892  1
  O  O229  1  0.86450945  0.64728214  0.64892153  1
  O  O230  1  0.23597846  0.22940758  0.12096937  1
  O  O231  1  0.23094139  0.27260153  0.60640868  1
  O  O232  1  0.28204785  0.75119689  0.09987831  1
  O  O233  1  0.34793015  0.81936581  0.46072525  1
  O  O234  1  0.75060717  0.24282458  0.12837525  1
  O  O235  1  0.76453531  0.27466152  0.61967435  1
  O  O236  1  0.86750343  0.73767270  0.18124603  1
  O  O237  1  0.75275766  0.77005875  0.65430148  1
  O  O238  1  0.15928636  0.30073976  0.25428043  1
  O  O239  1  0.24414828  0.22227933  0.87193074  1
  O  O240  1  0.18559137  0.73742816  0.38680783  1
  O  O241  1  0.25892160  0.73800034  0.86585663  1
  O  O242  1  0.75277044  0.20465131  0.41078522  1
  O  O243  1  0.71041965  0.23413500  0.86691981  1
  O  O244  1  0.73522515  0.74227786  0.43728230  1
  O  O245  1  0.72143925  0.74910591  0.83843457  1
  O  O246  1  -0.00858251  0.10231857  0.06798045  1
  O  O247  1  -0.02318769  0.10461141  0.50899840  1
  O  O248  1  -0.00368402  0.65482262  -0.03102495  1
  O  O249  1  -0.02669659  0.65083460  0.53713367  1
  O  O250  1  0.53572730  0.10320404  -0.07425023  1
  O  O251  1  0.51044114  0.16684139  0.54217289  1
  O  O252  1  0.53158751  0.54722957  0.00085780  1
  O  O253  1  0.56325157  0.61541893  0.45663910  1
  O  O254  1  0.52696936  0.33792578  0.50251469  1
  O  O255  1  0.49834052  0.39143826  0.98503522  1
  O  O256  1  0.56370115  0.90746158  0.56308733  1
  O  O257  1  0.43284044  0.78383942  0.87039915  1
  O  O258  1  1.00041959  0.40729262  0.55872739  1
  O  O259  1  0.98943646  0.30762899  0.96021877  1
  O  O260  1  0.96301726  0.86334110  0.52118273  1
  O  O261  1  1.02320013  0.85808194  0.96112003  1
  O  O262  1  0.45024495  0.42752702  0.39534358  1
  O  O263  1  0.50921138  0.48106907  0.86546418  1
  O  O264  1  0.52385533  0.98275294  0.30614341  1
  O  O265  1  0.51182831  0.93218044  0.80277887  1
  O  O266  1  0.94498701  0.52242974  0.37538527  1
  O  O267  1  0.96282071  0.43011546  0.80169359  1
  O  O268  1  0.98502951  0.99251143  0.41290042  1
  O  O269  1  0.98270389  0.97812307  0.87099155  1
  O  O270  1  -0.01810720  0.04507699  0.19973900  1
  O  O271  1  -0.01589988  0.01100952  0.63299466  1
  O  O272  1  -0.01056003  0.51067197  0.02731603  1
  O  O273  1  -0.02722684  0.53300701  0.63125491  1
  O  O274  1  0.55975088  0.00102958  0.10056463  1
  O  O275  1  0.49372426  0.03951475  0.64465354  1
  O  O276  1  0.51777276  0.46103590  0.12625648  1
  O  O277  1  0.49706425  0.45652853  0.61851671  1
  O  O278  1  0.13476921  0.36176522  0.28128550  1
  O  O279  1  0.24407614  0.33799990  0.74507271  1
  O  O280  1  0.30826971  0.85446363  0.23297447  1
  O  O281  1  0.22185355  0.84225969  0.74305789  1
  O  O282  1  0.73517787  0.36501874  0.30315731  1
  O  O283  1  0.75931202  0.36856643  0.76033540  1
  O  O284  1  0.75025524  0.78872851  0.29385600  1
  O  O285  1  0.76086099  0.88727297  0.75728556  1
  O  O286  1  0.28295799  0.12456068  0.24673162  1
  O  O287  1  0.25595563  0.11436429  0.70389703  1
  O  O288  1  0.28560127  0.67871110  0.24018100  1
  O  O289  1  0.22462107  0.60476451  0.69614942  1
  O  O290  1  0.74805047  0.16301860  0.26836256  1
  O  O291  1  0.72993857  0.13372572  0.73373547  1
  O  O292  1  0.79574464  0.59718428  0.23883959  1
  O  O293  1  0.74977819  0.62997336  0.74170997  1
  O  O294  1  0.48857634  0.08635088  0.39553150  1
  O  O295  1  0.45346017  -0.03823177  0.94506994  1
  O  O296  1  0.36686039  0.64969272  0.36761478  1
  O  O297  1  0.35071519  0.62369769  0.93082099  1
  O  O298  1  0.84245947  0.10561722  0.33530069  1
  O  O299  1  0.88629969  0.07015125  0.92156099  1
  O  O300  1  0.85460020  0.65347287  0.38282956  1
  O  O301  1  0.83369447  0.65204917  0.86605503  1
  O  O302  1  0.07494045  0.44121811  0.14708010  1
  O  O303  1  0.09902563  0.37246203  0.66574175  1
  O  O304  1  0.22385602  0.75437614  0.13889089  1
  O  O305  1  0.10621311  0.88542437  0.63687242  1
  O  O306  1  0.66506547  0.36240487  0.16929872  1
  O  O307  1  0.64837115  0.35658027  0.64780535  1
  O  O308  1  0.68928864  0.95774768  0.14894846  1
  O  O309  1  0.64702167  0.88164361  0.66643060  1
  O  O310  1  0.16762771  0.24194846  0.30443279  1
  O  O311  1  0.12142395  0.23408296  0.73706526  1
  O  O312  1  0.07242554  0.76113326  0.26117821  1
  O  O313  1  0.08496524  0.76956486  0.74357794  1
  O  O314  1  0.60451196  0.25970184  0.25597544  1
  O  O315  1  0.61533710  0.28072378  0.76712231  1
  O  O316  1  0.51083786  0.70779780  0.23019703  1
  O  O317  1  0.58022274  0.73160929  0.68726803  1
  O  O318  1  0.38357968  0.24603456  0.23955436  1
  O  O319  1  0.39313535  0.24773974  0.78551167  1
  O  O320  1  0.35053005  0.70260980  0.22475080  1
  O  O321  1  0.29185865  0.81004630  0.59063481  1
  O  O322  1  0.88249144  0.33770157  0.25487534  1
  O  O323  1  0.85605922  0.23141458  0.72708481  1
  O  O324  1  0.91788572  0.79616281  0.31490309  1
  O  O325  1  0.86602651  0.75925942  0.74874161  1
  O  O326  1  0.42480243  0.62162300  0.39325176  1
  O  O327  1  0.35075975  0.47742325  1.01467234  1
  O  O328  1  0.50211907  0.96912714  0.45277029  1
  O  O329  1  0.41630641  0.99791697  0.99100379  1
  O  O330  1  0.85076766  0.55062480  0.50260463  1
  O  O331  1  0.88630773  0.40337599  0.94621859  1
  O  O332  1  0.87015777  0.98181143  0.52835118  1
  O  O333  1  0.82761993  0.95174250  1.01592829  1
  O  O334  1  0.21936024  -0.09217244  0.09292114  1
  O  O335  1  0.08059284  -0.01389202  0.52490484  1
  O  O336  1  0.14744488  0.49894484  -0.02726460  1
  O  O337  1  0.12479820  0.50590069  0.57592720  1
  O  O338  1  0.66065210  0.03332520  0.02238863  1
  O  O339  1  0.66812021  0.00932656  0.54386209  1
  O  O340  1  0.65313319  0.43850277  0.03082025  1
  O  O341  1  0.64568002  0.61387163  0.35742460  1
  O  O342  1  0.34078872  0.37023421  0.11562756  1
  O  O343  1  0.36915357  0.35782882  0.63759784  1
  O  O344  1  0.39744983  0.85423497  0.06575740  1
  O  O345  1  0.40048713  0.89924521  0.57799193  1
  O  O346  1  0.92341866  0.34702577  0.07558637  1
  O  O347  1  0.84750800  0.39817676  0.59883089  1
  O  O348  1  0.93859031  0.87236940  0.12460677  1
  O  O349  1  0.86313912  0.86662661  0.63858962  1
  O  O350  1  0.12501473  0.07728856  0.34395316  1
  O  O351  1  0.11975812  0.13538307  0.95037732  1
  O  O352  1  0.10274509  0.60366519  0.42198107  1
  O  O353  1  0.13501002  0.63732179  0.84953526  1
  O  O354  1  0.64121557  0.13555150  0.35641448  1
  O  O355  1  0.60133252  0.12725362  0.90380842  1
  O  O356  1  0.60135139  0.57465295  0.40652714  1
  O  O357  1  0.62074891  0.64647338  0.83595000  1
