# generated using pymatgen
data_V51Zn51O256
_symmetry_space_group_name_H-M   'P 1'
_cell_length_a   17.65708947
_cell_length_b   17.31939905
_cell_length_c   17.44823073
_cell_angle_alpha   88.60747126
_cell_angle_beta   88.89681892
_cell_angle_gamma   90.48013571
_symmetry_Int_Tables_number   1
_chemical_formula_structural   V51Zn51O256
_chemical_formula_sum   'V51 Zn51 O256'
_cell_volume   5333.07301512
_cell_formula_units_Z   1
loop_
 _symmetry_equiv_pos_site_id
 _symmetry_equiv_pos_as_xyz
  1  'x, y, z'
loop_
 _atom_site_type_symbol
 _atom_site_label
 _atom_site_symmetry_multiplicity
 _atom_site_fract_x
 _atom_site_fract_y
 _atom_site_fract_z
 _atom_site_occupancy
  V  V0  1  0.29197888  0.67090995  0.91709199  1
  V  V1  1  0.26734990  0.09022369  0.35290315  1
  V  V2  1  0.01035499  0.86566603  0.36395421  1
  V  V3  1  0.00682623  0.62825463  0.16899881  1
  V  V4  1  0.74644926  0.23639520  0.49926930  1
  V  V5  1  0.10518496  0.49764108  0.11338540  1
  V  V6  1  0.58927749  -0.04352570  0.63454918  1
  V  V7  1  0.14366441  0.44542549  0.74645463  1
  V  V8  1  0.00604685  -0.02159625  0.50878699  1
  V  V9  1  0.90140363  0.49772142  0.45027502  1
  V  V10  1  0.87016323  0.75387998  0.61019861  1
  V  V11  1  0.51945233  0.81886610  0.87845542  1
  V  V12  1  0.29608327  0.38937515  0.13548876  1
  V  V13  1  0.25006277  0.61689113  0.38617567  1
  V  V14  1  0.00634551  0.84180854  0.85114367  1
  V  V15  1  0.59786257  0.85314993  0.21165126  1
  V  V16  1  0.75134621  0.76000358  -0.03598019  1
  V  V17  1  0.14507637  0.37786874  0.24645917  1
  V  V18  1  0.49812022  -0.02641578  0.49389091  1
  V  V19  1  0.15365155  0.68359237  0.04983829  1
  V  V20  1  0.92486461  0.45871669  -0.01205948  1
  V  V21  1  0.62078673  0.11744695  -0.02941646  1
  V  V22  1  0.84149669  0.08111023  0.21981974  1
  V  V23  1  0.65298390  -0.00948008  0.11408778  1
  V  V24  1  0.15866179  0.82491504  0.76588692  1
  V  V25  1  0.50515110  0.38441359  0.85998729  1
  V  V26  1  0.72738334  0.09755854  0.36931193  1
  V  V27  1  0.73546681  0.00288858  0.75108070  1
  V  V28  1  0.60325334  0.12655530  0.52818862  1
  V  V29  1  0.77288809  0.47533839  0.71503264  1
  V  V30  1  0.26841266  0.87114637  0.63283924  1
  V  V31  1  0.21567806  0.25336662  -0.01958665  1
  V  V32  1  0.48474025  0.57619515  0.58280100  1
  V  V33  1  0.65501373  0.29689082  0.86537663  1
  V  V34  1  0.63061060  0.59569663  0.49273293  1
  V  V35  1  -0.05644074  0.26975284  0.25082429  1
  V  V36  1  0.38153238  0.68008261  0.23309303  1
  V  V37  1  0.88552797  0.62657717  0.72340375  1
  V  V38  1  -0.00451563  -0.02056340  0.00063255  1
  V  V39  1  0.66781127  0.59783316  0.01692186  1
  V  V40  1  0.53850211  0.47785597  0.02174285  1
  V  V41  1  0.46296998  0.34209102  0.37237342  1
  V  V42  1  0.80007487  0.86122408  0.47225277  1
  V  V43  1  0.40698613  -0.05483090  0.35748874  1
  V  V44  1  0.88904745  0.04660924  0.85000950  1
  V  V45  1  0.61134121  0.23732788  0.34467714  1
  V  V46  1  0.70682275  0.82901100  0.67811897  1
  V  V47  1  0.75983260  0.22636773  0.00017412  1
  V  V48  1  0.77716470  0.58533868  0.86326778  1
  V  V49  1  0.32715021  0.96387396  0.02320373  1
  V  V50  1  0.23502756  0.71761082  0.53273160  1
  Zn  Zn51  1  0.47071768  0.38008756  0.66101597  1
  Zn  Zn52  1  0.96400553  0.46619619  0.64926345  1
  Zn  Zn53  1  0.97720408  0.89008014  0.68220606  1
  Zn  Zn54  1  0.73911898  0.42601185  0.98344232  1
  Zn  Zn55  1  0.14267172  0.53805295  0.92439300  1
  Zn  Zn56  1  0.56892118  0.00842339  0.82815656  1
  Zn  Zn57  1  0.71357710  0.40784234  0.41556548  1
  Zn  Zn58  1  0.99386124  0.47330391  0.26603590  1
  Zn  Zn59  1  0.59055061  0.02568389  0.30535839  1
  Zn  Zn60  1  0.86981644  0.63466013  0.02904653  1
  Zn  Zn61  1  0.83002098  0.80677014  0.79897571  1
  Zn  Zn62  1  0.54389488  0.27148016  0.00067009  1
  Zn  Zn63  1  0.40112865  0.87844605  0.17525451  1
  Zn  Zn64  1  0.92884170  0.15404852  0.96467852  1
  Zn  Zn65  1  0.88846446  0.71062494  0.40875518  1
  Zn  Zn66  1  0.62285936  0.50655706  0.83022808  1
  Zn  Zn67  1  0.58690955  0.32319584  0.51545703  1
  Zn  Zn68  1  0.29415655  0.42535031  0.44024713  1
  Zn  Zn69  1  0.04752916  0.61628812  0.36823189  1
  Zn  Zn70  1  0.68675008  0.19637792  0.68925903  1
  Zn  Zn71  1  0.81022403  0.04202984  0.03560109  1
  Zn  Zn72  1  0.47880263  0.66382068  0.98808140  1
  Zn  Zn73  1  0.94727242  0.28860839  0.44349179  1
  Zn  Zn74  1  0.31652838  0.37389616  0.82913804  1
  Zn  Zn75  1  0.05058300  0.12634087  0.79005050  1
  Zn  Zn76  1  0.11477096  0.36879225  0.53913314  1
  Zn  Zn77  1  0.49036063  0.38067712  0.18070578  1
  Zn  Zn78  1  0.64086039  0.89192704  0.40059383  1
  Zn  Zn79  1  0.32701191  0.84930152  0.84818157  1
  Zn  Zn80  1  0.94141311  0.94096047  0.19518274  1
  Zn  Zn81  1  0.14588873  0.87041119  0.97318022  1
  Zn  Zn82  1  0.14787602  0.85989373  0.48656510  1
  Zn  Zn83  1  -0.06106044  0.11653072  0.37506180  1
  Zn  Zn84  1  0.97658249  0.63256034  0.88099681  1
  Zn  Zn85  1  0.23419151  0.64373568  0.72896246  1
  Zn  Zn86  1  0.15152354  0.24932408  0.68451681  1
  Zn  Zn87  1  0.45117233  0.15650031  0.42429266  1
  Zn  Zn88  1  0.36153328  0.56205429  0.06258081  1
  Zn  Zn89  1  0.24486427  0.09255973  0.15328096  1
  Zn  Zn90  1  0.74961500  0.79674769  0.31229473  1
  Zn  Zn91  1  0.82993368  0.37903484  0.85800464  1
  Zn  Zn92  1  0.38821812  0.75572825  0.43507151  1
  Zn  Zn93  1  0.66010654  0.93167628  0.93740444  1
  Zn  Zn94  1  0.24104452  0.61085243  0.19479903  1
  Zn  Zn95  1  0.23815756  0.52142086  0.57547042  1
  Zn  Zn96  1  0.77550133  0.28441601  0.30611031  1
  Zn  Zn97  1  0.69000562  0.17745459  0.17816368  1
  Zn  Zn98  1  0.73705989  0.01192443  0.54670961  1
  Zn  Zn99  1  0.58776839  0.78432813  0.05987964  1
  Zn  Zn100  1  0.66250976  0.70505203  0.80853113  1
  Zn  Zn101  1  0.04295211  0.32201850  0.09043547  1
  O  O102  1  0.19077963  0.17932100  0.17978779  1
  O  O103  1  0.02699357  0.22675052  0.64456179  1
  O  O104  1  0.17123418  0.53138167  0.17494718  1
  O  O105  1  0.04567746  0.63465082  0.59988528  1
  O  O106  1  0.64516925  0.08990340  0.13072337  1
  O  O107  1  0.60022726  0.15300069  0.62027818  1
  O  O108  1  0.68289339  0.59215506  0.10799714  1
  O  O109  1  0.59286795  0.56244045  0.59056050  1
  O  O110  1  0.36926734  0.35748131  0.39549915  1
  O  O111  1  0.41154006  0.36302527  0.87639654  1
  O  O112  1  0.40056194  0.84855266  0.37329470  1
  O  O113  1  0.32932821  0.93449201  0.92659184  1
  O  O114  1  0.91416025  0.39544070  0.46150108  1
  O  O115  1  0.92095103  0.42070414  0.89742415  1
  O  O116  1  0.81390916  0.86748605  0.37495900  1
  O  O117  1  0.92297876  0.86510239  0.79014735  1
  O  O118  1  0.29581042  -0.00807649  0.38034494  1
  O  O119  1  0.15146804  0.02471131  0.66337955  1
  O  O120  1  0.29175273  0.52863511  0.38939042  1
  O  O121  1  0.27226684  0.51894016  0.91640839  1
  O  O122  1  0.68723469  0.00354260  0.37755885  1
  O  O123  1  0.68402117  -0.01267814  0.83632000  1
  O  O124  1  0.80247110  0.47047978  0.44832865  1
  O  O125  1  0.77845773  0.48838955  0.87926083  1
  O  O126  1  0.29230025  0.47371785  0.08629765  1
  O  O127  1  0.28800359  0.56688558  0.66441890  1
  O  O128  1  0.17294419  1.01789243  0.14283651  1
  O  O129  1  0.28899197  0.96423393  0.63117700  1
  O  O130  1  0.80177298  0.54843457  0.22213200  1
  O  O131  1  0.76632780  0.45696320  0.62350605  1
  O  O132  1  0.74462489  0.97035936  0.09506946  1
  O  O133  1  0.71207437  0.96616727  0.65588123  1
  O  O134  1  -0.04860460  0.36680307  0.26099775  1
  O  O135  1  0.04431793  0.45985364  0.73276999  1
  O  O136  1  0.00167804  0.92204577  0.28126929  1
  O  O137  1  0.05386463  0.85346575  0.75231981  1
  O  O138  1  0.46029480  0.22488223  0.21076819  1
  O  O139  1  0.51511141  0.37322658  0.76192097  1
  O  O140  1  0.50276122  0.85817634  0.21771049  1
  O  O141  1  0.40980739  0.98067047  0.75638268  1
  O  O142  1  0.49145459  0.05581974  0.20613438  1
  O  O143  1  0.45215533  0.17884775  0.75872663  1
  O  O144  1  0.48068453  0.68001766  0.16450569  1
  O  O145  1  0.46282358  0.56700234  0.67799937  1
  O  O146  1  0.92312213  0.11258235  0.26390214  1
  O  O147  1  0.98565830  0.20328343  0.69980666  1
  O  O148  1  1.00165312  0.59254093  0.27053358  1
  O  O149  1  0.97588662  0.63646427  0.74525483  1
  O  O150  1  0.30660093  0.21644090  -0.01678998  1
  O  O151  1  0.39505779  0.21981788  0.50702687  1
  O  O152  1  0.39800968  0.88736415  0.05477573  1
  O  O153  1  0.35166311  0.74386868  0.54090360  1
  O  O154  1  0.85798959  0.22560350  -0.00511217  1
  O  O155  1  0.83906250  0.24893306  0.47397472  1
  O  O156  1  0.83482008  0.74351123  0.00870214  1
  O  O157  1  0.85297595  0.76929490  0.50275391  1
  O  O158  1  0.17627988  0.29570061  0.59226513  1
  O  O159  1  0.13053264  0.30162572  1.01363519  1
  O  O160  1  0.14680655  0.74693930  0.50589888  1
  O  O161  1  0.12311755  0.77226446  1.02479874  1
  O  O162  1  0.59697997  0.21693479  0.48075123  1
  O  O163  1  0.65951031  0.22468463  0.95109683  1
  O  O164  1  0.62239062  0.69217475  0.51218080  1
  O  O165  1  0.66788851  0.71405578  1.00717151  1
  O  O166  1  0.52741248  0.28829571  0.11546178  1
  O  O167  1  0.44075585  0.24986075  0.56102795  1
  O  O168  1  0.47841749  0.71858555  0.09991809  1
  O  O169  1  0.49277480  0.67487256  0.59669840  1
  O  O170  1  0.99453645  0.25467859  0.16509087  1
  O  O171  1  1.03715343  0.30808312  0.49725841  1
  O  O172  1  1.04612601  0.71324224  0.18331899  1
  O  O173  1  0.95252078  0.80036682  0.61792175  1
  O  O174  1  -0.04027944  0.23116047  0.35122373  1
  O  O175  1  -0.01938526  0.28209796  0.84364664  1
  O  O176  1  -0.03549576  0.77759330  0.34933005  1
  O  O177  1  -0.01378426  0.75067482  0.88193194  1
  O  O178  1  0.50017594  0.23977423  0.36165384  1
  O  O179  1  0.55286986  0.28302542  0.88115550  1
  O  O180  1  0.49094946  0.75573518  0.45598971  1
  O  O181  1  0.51904434  0.76944774  0.96936280  1
  O  O182  1  0.24396606  0.12032495  0.44379238  1
  O  O183  1  0.18300962  0.16935495  1.02485814  1
  O  O184  1  0.23621398  0.61308564  0.50612794  1
  O  O185  1  0.32637948  0.49078624  0.87772145  1
  O  O186  1  0.70743809  0.11834847  0.49262257  1
  O  O187  1  0.73751336  0.12334169  0.98839614  1
  O  O188  1  0.71899871  0.59692654  0.52617607  1
  O  O189  1  0.76930611  0.60785768  0.97277526  1
  O  O190  1  0.25208766  0.33689091  -0.08286358  1
  O  O191  1  0.19208395  0.44205583  0.50165383  1
  O  O192  1  0.24307470  0.90028535  0.01678760  1
  O  O193  1  0.25122595  0.84041338  0.53266646  1
  O  O194  1  0.83588227  0.44526530  0.02996699  1
  O  O195  1  0.70390904  0.33064728  0.49713025  1
  O  O196  1  0.73098506  0.85615274  -0.03221909  1
  O  O197  1  0.70458168  0.84439649  0.47973829  1
  O  O198  1  0.09612270  0.44122611  0.30185809  1
  O  O199  1  0.16919862  0.54769403  0.75348305  1
  O  O200  1  0.03917696  1.06273005  0.18829630  1
  O  O201  1  0.14625435  1.08545107  0.62722899  1
  O  O202  1  0.68015547  0.44355691  0.20115081  1
  O  O203  1  0.67433097  0.48943414  0.73474371  1
  O  O204  1  0.62838683  0.96494799  0.21789147  1
  O  O205  1  0.57316165  1.00126043  0.71836975  1
  O  O206  1  0.39004472  -0.05218063  0.26253104  1
  O  O207  1  0.25801398  0.04943820  0.77779473  1
  O  O208  1  0.47128150  0.66601536  0.29589645  1
  O  O209  1  0.38531055  0.41925876  0.71862521  1
  O  O210  1  0.84451203  -0.01640323  0.23109092  1
  O  O211  1  0.83255670  0.00097427  0.77788348  1
  O  O212  1  0.91199419  0.48966720  0.34775503  1
  O  O213  1  0.88663695  0.51797068  0.70389583  1
  O  O214  1  0.20917318  0.33550202  0.38560405  1
  O  O215  1  0.13122229  0.45083587  0.84939129  1
  O  O216  1  0.10392777  0.85425972  0.38346434  1
  O  O217  1  0.11726712  0.84996758  0.86906489  1
  O  O218  1  0.62546801  0.33170597  0.36951936  1
  O  O219  1  0.64951247  0.39438300  0.85545287  1
  O  O220  1  0.64198043  0.83452769  0.30728056  1
  O  O221  1  0.55681940  0.91270282  0.89210086  1
  O  O222  1  0.33931796  0.13025788  0.12797675  1
  O  O223  1  0.42739244  0.15062460  0.70026905  1
  O  O224  1  0.35500835  0.60813062  0.16418094  1
  O  O225  1  0.39806487  0.58749501  0.54615734  1
  O  O226  1  0.84796599  0.10158653  0.12288617  1
  O  O227  1  0.88293706  0.12199484  0.63688504  1
  O  O228  1  0.92001129  0.64184809  0.12687330  1
  O  O229  1  0.88545354  0.65275861  0.61609111  1
  O  O230  1  0.24760467  0.30984949  0.06742904  1
  O  O231  1  0.28238145  0.24352647  0.71260120  1
  O  O232  1  0.21897038  0.69397683  0.11826217  1
  O  O233  1  0.23172361  0.70199987  0.62970658  1
  O  O234  1  0.73172156  0.24368143  0.09167880  1
  O  O235  1  0.74584418  0.22124920  0.59707781  1
  O  O236  1  0.76809136  0.76493241  0.15498220  1
  O  O237  1  0.68699990  0.73577398  0.70274487  1
  O  O238  1  0.28587162  0.18034674  0.31064689  1
  O  O239  1  0.18266892  0.22292227  0.89501735  1
  O  O240  1  0.28736286  0.71255695  0.42354114  1
  O  O241  1  0.28695114  0.76776872  0.91813977  1
  O  O242  1  0.71931209  0.21512087  0.38077794  1
  O  O243  1  0.75344545  0.32186353  0.93167487  1
  O  O244  1  0.79849092  0.70659913  0.35074176  1
  O  O245  1  0.76064697  0.73961272  0.86442684  1
  O  O246  1  0.00259601  0.08118961  -0.01486683  1
  O  O247  1  -0.08894844  0.13904819  0.57371540  1
  O  O248  1  0.08082768  0.61470744  0.08068649  1
  O  O249  1  -0.01244267  0.67610739  0.43625433  1
  O  O250  1  0.54662961  0.15762931  0.01934189  1
  O  O251  1  0.51156567  0.08584606  0.49107743  1
  O  O252  1  0.56277190  0.59502799  0.00581686  1
  O  O253  1  0.52461514  0.58573789  0.47825736  1
  O  O254  1  0.51068767  0.37517986  0.45036357  1
  O  O255  1  0.53428996  0.38374079  0.97994427  1
  O  O256  1  0.55243582  0.89810363  0.46563717  1
  O  O257  1  0.39734598  1.02960598  1.00329682  1
  O  O258  1  1.17279813  0.28666347  0.42527554  1
  O  O259  1  0.99140560  0.40277118  1.03528595  1
  O  O260  1  0.96678191  0.90489045  0.44996187  1
  O  O261  1  0.98170900  0.90817140  0.92404528  1
  O  O262  1  0.48947855  0.39084156  0.28908377  1
  O  O263  1  0.52108637  0.48647706  0.86698943  1
  O  O264  1  0.49812864  0.99030479  0.36352703  1
  O  O265  1  0.44023872  1.02022731  0.80553852  1
  O  O266  1  1.00050683  0.52103307  0.43518655  1
  O  O267  1  1.07783774  0.60230096  0.87272020  1
  O  O268  1  0.98853235  1.06574619  0.45926832  1
  O  O269  1  0.98364368  1.04887939  0.81780312  1
  O  O270  1  -0.05128452  -0.04280114  0.08638299  1
  O  O271  1  -0.02692682  -0.02907205  0.60393412  1
  O  O272  1  0.01184800  0.51022033  0.15338291  1
  O  O273  1  0.04162957  0.43637063  0.58337469  1
  O  O274  1  0.50142575  0.05032224  0.13647258  1
  O  O275  1  0.49608504  -0.04584898  0.59789934  1
  O  O276  1  0.54950593  0.45322392  0.11610896  1
  O  O277  1  0.47497713  0.47554472  0.57754607  1
  O  O278  1  0.24951529  0.38473496  0.22557206  1
  O  O279  1  0.23737448  0.40668044  0.76259752  1
  O  O280  1  0.19079449  0.83307020  0.21139448  1
  O  O281  1  0.25059318  0.86866156  0.77693426  1
  O  O282  1  0.76064842  0.38938094  0.32276882  1
  O  O283  1  0.79656119  0.38572339  0.75651065  1
  O  O284  1  0.76237299  0.82951396  0.19889309  1
  O  O285  1  0.73918270  0.86764281  0.76312927  1
  O  O286  1  0.26973014  0.04951284  0.25617082  1
  O  O287  1  0.13739783  0.17273396  0.75601189  1
  O  O288  1  0.28512859  0.65316630  0.28567442  1
  O  O289  1  0.29495588  0.64541119  0.82387014  1
  O  O290  1  0.74817672  0.11388668  0.26153025  1
  O  O291  1  0.72397324  0.09757228  0.73084754  1
  O  O292  1  0.76575784  0.70025668  0.19042766  1
  O  O293  1  0.77914599  0.58371290  0.75409838  1
  O  O294  1  0.37331320  0.10056673  0.36837726  1
  O  O295  1  0.30213194  0.09900879  0.79932584  1
  O  O296  1  0.40848113  0.67473888  0.34181551  1
  O  O297  1  0.37229163  0.64079696  0.97467321  1
  O  O298  1  0.81962647  0.09099423  0.39151386  1
  O  O299  1  0.86732540  0.13985287  0.85570267  1
  O  O300  1  0.86625519  0.59314232  0.44350866  1
  O  O301  1  0.87032511  0.62581209  0.84578221  1
  O  O302  1  0.11169823  0.39267495  0.14755749  1
  O  O303  1  0.16869259  0.46617907  0.64870738  1
  O  O304  1  0.03577051  1.11173604  0.13726975  1
  O  O305  1  0.16719374  0.85080471  0.66519223  1
  O  O306  1  0.71726656  0.40880960  0.15328948  1
  O  O307  1  0.56411408  0.36450887  0.61024562  1
  O  O308  1  0.60394640  0.89569964  0.09987228  1
  O  O309  1  0.61217449  0.85771582  0.64373788  1
  O  O310  1  0.11581604  0.28997109  0.26847488  1
  O  O311  1  0.12064740  0.34492632  0.73605547  1
  O  O312  1  0.13173894  0.85689931  0.18422571  1
  O  O313  1  0.16772298  0.72750238  0.76933350  1
  O  O314  1  0.63601519  0.24511655  0.24841809  1
  O  O315  1  0.67639616  0.25611960  0.78024761  1
  O  O316  1  0.61742022  0.76730465  0.16838854  1
  O  O317  1  0.57391074  0.76668601  0.81797350  1
  O  O318  1  0.49913335  0.21593030  0.15080448  1
  O  O319  1  0.32753383  0.27022922  0.76072857  1
  O  O320  1  0.36577488  0.77174041  0.20388305  1
  O  O321  1  0.43174478  0.82868791  0.84061652  1
  O  O322  1  0.84726139  0.25267998  0.23358376  1
  O  O323  1  0.88664165  0.31064452  0.62495557  1
  O  O324  1  0.90915029  0.76237390  0.22225280  1
  O  O325  1  0.84807450  0.73051727  0.71820426  1
  O  O326  1  0.31492200  0.44397770  0.54960650  1
  O  O327  1  0.44568295  0.50460153  1.01962420  1
  O  O328  1  0.40617002  0.95539185  0.47561562  1
  O  O329  1  0.26489233  1.04114491  1.02689826  1
  O  O330  1  0.91491548  0.50583412  0.54909476  1
  O  O331  1  0.94074634  0.56281749  0.97658252  1
  O  O332  1  0.81726997  0.95289595  0.50911325  1
  O  O333  1  0.87035627  1.01042194  0.94552437  1
  O  O334  1  0.08746104  -0.04466611  0.01389090  1
  O  O335  1  0.10123615  -0.04179874  0.50937171  1
  O  O336  1  0.13494708  0.48678980  0.01980907  1
  O  O337  1  0.10082179  0.60639417  0.56732181  1
  O  O338  1  0.62614716  0.01596432  0.00551730  1
  O  O339  1  0.62272458  0.01248684  0.54861209  1
  O  O340  1  0.65383158  0.49211657  -0.00443748  1
  O  O341  1  0.64514770  0.49987752  0.46397903  1
  O  O342  1  0.38580434  0.36283384  0.14468718  1
  O  O343  1  0.40573986  0.29772119  0.60718380  1
  O  O344  1  0.32430795  0.95520115  0.12887939  1
  O  O345  1  0.34736698  0.82116917  0.65686614  1
  O  O346  1  0.83814956  0.50209178  0.18540388  1
  O  O347  1  0.91716338  0.35256972  0.67264672  1
  O  O348  1  0.92193775  0.80919428  0.16954715  1
  O  O349  1  0.78661529  0.82255536  0.61628087  1
  O  O350  1  0.17005502  0.08525768  0.34487927  1
  O  O351  1  0.00636435  0.22008230  0.87162898  1
  O  O352  1  0.15550055  0.60886868  0.37141377  1
  O  O353  1  0.20265922  0.63860234  0.96717449  1
  O  O354  1  0.61445402  0.12665135  0.34939549  1
  O  O355  1  0.58561205  0.10275965  0.88225110  1
  O  O356  1  0.64693014  0.62176852  0.39937451  1
  O  O357  1  0.67207624  0.60517098  0.86023620  1
