# generated using pymatgen
data_V51Zn51O256
_symmetry_space_group_name_H-M   'P 1'
_cell_length_a   17.52103354
_cell_length_b   17.59664437
_cell_length_c   17.38969138
_cell_angle_alpha   91.03125706
_cell_angle_beta   90.59926077
_cell_angle_gamma   89.41652280
_symmetry_Int_Tables_number   1
_chemical_formula_structural   V51Zn51O256
_chemical_formula_sum   'V51 Zn51 O256'
_cell_volume   5360.01053476
_cell_formula_units_Z   1
loop_
 _symmetry_equiv_pos_site_id
 _symmetry_equiv_pos_as_xyz
  1  'x, y, z'
loop_
 _atom_site_type_symbol
 _atom_site_label
 _atom_site_symmetry_multiplicity
 _atom_site_fract_x
 _atom_site_fract_y
 _atom_site_fract_z
 _atom_site_occupancy
  V  V0  1  0.14599646  -0.02092056  0.07289504  1
  V  V1  1  0.32909367  0.30505796  0.63246480  1
  V  V2  1  0.88597294  0.39951071  -0.04632330  1
  V  V3  1  0.30185052  -0.01754287  0.76033282  1
  V  V4  1  0.11452461  0.40154715  0.78307399  1
  V  V5  1  0.02890603  0.12197360  0.63613485  1
  V  V6  1  -0.00064552  0.06379693  0.10473801  1
  V  V7  1  0.29337662  0.58377405  0.86315897  1
  V  V8  1  0.90631020  0.27200695  0.56685817  1
  V  V9  1  0.13876575  0.84149506  0.25764192  1
  V  V10  1  -0.05145934  0.53365623  0.48044166  1
  V  V11  1  0.03260333  0.27804431  0.23031954  1
  V  V12  1  0.46439331  0.48986165  0.57212881  1
  V  V13  1  0.43677850  0.22323624  0.29098448  1
  V  V14  1  0.39517369  0.61840840  0.24738466  1
  V  V15  1  0.85841269  0.00966836  0.87501043  1
  V  V16  1  0.40133814  0.88872095  -0.02936577  1
  V  V17  1  0.13663536  0.88109752  0.76442785  1
  V  V18  1  0.50705977  0.10459293  0.60696327  1
  V  V19  1  0.10170184  0.51215656  0.13235835  1
  V  V20  1  -0.05329715  0.60610999  0.65583294  1
  V  V21  1  0.62805649  0.26242659  0.86797189  1
  V  V22  1  -0.00719550  0.74449649  0.76681988  1
  V  V23  1  0.61454221  0.66081035  0.51470879  1
  V  V24  1  0.29952925  0.14590036  0.86129797  1
  V  V25  1  0.90656896  0.14266805  0.24836187  1
  V  V26  1  0.76032383  0.28751594  -0.03043578  1
  V  V27  1  0.38153725  0.49647208  0.38099699  1
  V  V28  1  0.24252106  0.84522338  0.61503678  1
  V  V29  1  0.41885543  0.65605281  0.72793035  1
  V  V30  1  0.88019157  0.79072736  0.63164156  1
  V  V31  1  0.58393962  0.60443311  0.02175897  1
  V  V32  1  -0.00301682  0.37348262  0.40476294  1
  V  V33  1  0.24054248  0.40683091  0.11896441  1
  V  V34  1  0.15679197  0.50309423  0.62853443  1
  V  V35  1  0.15773148  0.62219152  0.50389808  1
  V  V36  1  0.74105279  0.43416014  0.69821140  1
  V  V37  1  0.27351600  0.85252439  0.10729860  1
  V  V38  1  0.17560107  0.72439092  0.87384960  1
  V  V39  1  0.09810298  0.22739262  0.88469502  1
  V  V40  1  0.63968246  0.90798701  0.73908163  1
  V  V41  1  0.38141412  -0.03533323  0.38632863  1
  V  V42  1  0.75422943  0.61604473  0.84501587  1
  V  V43  1  0.61277337  0.87610650  0.22986162  1
  V  V44  1  0.25121572  0.62154282  0.35257745  1
  V  V45  1  0.89139254  0.87577147  0.46103637  1
  V  V46  1  0.25578398  0.22848136  0.00749092  1
  V  V47  1  0.72771289  0.55476098  0.27985840  1
  V  V48  1  0.83703403  0.73376447  0.13204948  1
  V  V49  1  0.03070331  0.02274231  0.46217621  1
  V  V50  1  0.37648157  0.35622179  0.01114552  1
  Zn  Zn51  1  0.31852279  0.44962065  0.71483470  1
  Zn  Zn52  1  0.78227840  0.55624882  0.56795161  1
  Zn  Zn53  1  0.82156384  0.87973226  0.27450129  1
  Zn  Zn54  1  0.42816052  0.95772678  0.18195490  1
  Zn  Zn55  1  0.05006493  0.05778374  0.81905667  1
  Zn  Zn56  1  0.09328664  0.80525518  0.02508842  1
  Zn  Zn57  1  0.89677882  0.72128359  0.93329108  1
  Zn  Zn58  1  0.29406206  0.11850382  0.62419848  1
  Zn  Zn59  1  0.81462026  0.82256838  0.81373727  1
  Zn  Zn60  1  0.31943747  0.04397977  0.04295156  1
  Zn  Zn61  1  0.33123318  0.54676952  0.06423172  1
  Zn  Zn62  1  0.55177087  0.56877932  0.34381755  1
  Zn  Zn63  1  0.81959111  0.01283205  0.14557462  1
  Zn  Zn64  1  0.59107439  0.85849544  0.54515197  1
  Zn  Zn65  1  0.44718699  0.22279896  0.94148912  1
  Zn  Zn66  1  0.69508487  0.45244367  0.94742544  1
  Zn  Zn67  1  0.17534161  0.68397402  0.68975241  1
  Zn  Zn68  1  0.29241047  0.33434074  0.83229414  1
  Zn  Zn69  1  1.00315086  0.72262656  0.53207768  1
  Zn  Zn70  1  0.39158888  0.42095431  0.20065187  1
  Zn  Zn71  1  0.20269527  0.68767494  0.17820754  1
  Zn  Zn72  1  0.43664650  0.91283054  0.65154944  1
  Zn  Zn73  1  0.38347379  0.19669995  0.48757275  1
  Zn  Zn74  1  0.08638950  0.32064023  0.05167582  1
  Zn  Zn75  1  0.29347182  0.33301662  0.31247041  1
  Zn  Zn76  1  0.97813554  0.20032189  0.40805603  1
  Zn  Zn77  1  0.13638600  0.17372256  0.15500402  1
  Zn  Zn78  1  0.91818418  0.41990325  0.76040741  1
  Zn  Zn79  1  0.71875927  0.25740526  0.62560777  1
  Zn  Zn80  1  0.33121828  0.80805045  0.80794653  1
  Zn  Zn81  1  0.93481955  0.18576327  0.97321142  1
  Zn  Zn82  1  0.30653116  0.78950398  0.29709371  1
  Zn  Zn83  1  0.70610011  0.90699752  0.41065447  1
  Zn  Zn84  1  0.52349003  0.30021146  0.55156641  1
  Zn  Zn85  1  0.18596958  0.90490709  0.43584089  1
  Zn  Zn86  1  0.64679622  0.11428378  0.74259869  1
  Zn  Zn87  1  0.32809892  0.58419953  0.57742686  1
  Zn  Zn88  1  0.96461491  0.88273794  0.12030540  1
  Zn  Zn89  1  0.71527787  0.71939455  0.70230033  1
  Zn  Zn90  1  0.60338334  0.56545456  0.73303978  1
  Zn  Zn91  1  0.57945825  0.80084011  -0.01490964  1
  Zn  Zn92  1  0.06814954  0.53445837  0.33501021  1
  Zn  Zn93  1  0.09441294  0.58848240  0.79770341  1
  Zn  Zn94  1  0.76860803  0.88258555  1.00186163  1
  Zn  Zn95  1  -0.03891126  -0.03494953  0.27928000  1
  Zn  Zn96  1  0.00809033  0.41056241  0.61753153  1
  Zn  Zn97  1  0.48540581  0.65181030  0.87846823  1
  Zn  Zn98  1  0.17682998  0.22255138  0.71652790  1
  Zn  Zn99  1  0.18444326  0.45169711  0.42691275  1
  Zn  Zn100  1  0.63203797  0.68645215  0.16173368  1
  Zn  Zn101  1  0.79985069  0.30629324  0.80435508  1
  O  O102  1  0.11912256  0.06930982  0.12449192  1
  O  O103  1  0.11774089  0.16221148  0.64353844  1
  O  O104  1  0.12051280  0.62371572  0.11275844  1
  O  O105  1  0.13133247  0.60703842  0.62022358  1
  O  O106  1  0.59645030  0.14535592  0.11715430  1
  O  O107  1  0.59275408  0.08541455  0.56097161  1
  O  O108  1  0.56687994  0.60496591  0.12212915  1
  O  O109  1  0.60143931  0.68980690  0.63971364  1
  O  O110  1  0.35828398  0.40210297  0.38069034  1
  O  O111  1  0.35644119  0.37631749  0.91669750  1
  O  O112  1  0.36712691  0.86533473  0.35263191  1
  O  O113  1  0.40124162  0.86169406  0.87623948  1
  O  O114  1  0.92633421  0.41107941  0.35853499  1
  O  O115  1  0.88215719  0.36388118  0.85373718  1
  O  O116  1  0.89694458  0.86238989  0.36128898  1
  O  O117  1  0.87270206  0.91773573  0.83063161  1
  O  O118  1  0.27607254  -0.04908335  0.38616226  1
  O  O119  1  0.29899635  0.04157834  0.84443567  1
  O  O120  1  0.26650485  0.51799491  0.39535914  1
  O  O121  1  0.30237629  0.49710794  0.81957193  1
  O  O122  1  0.76395051  -0.04746568  0.33551439  1
  O  O123  1  0.75914423  0.02503254  0.88241794  1
  O  O124  1  0.71777498  0.53487274  0.37832820  1
  O  O125  1  0.73198757  0.52790093  0.87475744  1
  O  O126  1  0.23609248  0.50569848  0.11656522  1
  O  O127  1  0.25456185  0.50343346  0.63473679  1
  O  O128  1  0.24881215  0.97419156  0.09597378  1
  O  O129  1  0.26958597  1.03172960  0.68149324  1
  O  O130  1  0.72772833  0.53265998  0.17977191  1
  O  O131  1  0.74548698  0.46080909  0.60429296  1
  O  O132  1  0.75135508  0.96935704  0.07298147  1
  O  O133  1  0.79900806  1.08737987  0.51310371  1
  O  O134  1  0.03470820  0.37026531  0.22568153  1
  O  O135  1  0.02020329  0.38873507  0.74087955  1
  O  O136  1  0.03858543  0.88778591  0.22355879  1
  O  O137  1  0.04688498  0.82765685  0.74434601  1
  O  O138  1  0.40755434  0.32144023  0.25569767  1
  O  O139  1  0.50568418  0.41649785  0.77875174  1
  O  O140  1  0.50816016  0.88296314  0.22705125  1
  O  O141  1  0.53988692  0.90963419  0.71953458  1
  O  O142  1  0.48077896  0.13729890  0.30911450  1
  O  O143  1  0.54358675  0.09601115  0.70409930  1
  O  O144  1  0.49046632  0.62050801  0.26715939  1
  O  O145  1  0.51207158  0.62151715  0.76615376  1
  O  O146  1  0.98464055  0.08315878  0.21153596  1
  O  O147  1  1.00400497  0.09837770  0.72794217  1
  O  O148  1  1.01707887  0.68052083  0.29399807  1
  O  O149  1  0.98568042  0.63308313  0.75257234  1
  O  O150  1  0.36384989  0.24845654  0.01705200  1
  O  O151  1  0.40467013  0.27703864  0.56352768  1
  O  O152  1  0.41716520  0.72779672  0.03841729  1
  O  O153  1  0.39388392  0.74466565  0.51191646  1
  O  O154  1  0.85879911  0.26301411  -0.02194409  1
  O  O155  1  0.94794432  0.29403049  0.47578665  1
  O  O156  1  0.85601269  0.70434384  0.03586895  1
  O  O157  1  0.91579938  0.79011536  0.52035183  1
  O  O158  1  0.18060103  0.26179066  0.49182490  1
  O  O159  1  0.14376274  0.25711033  0.97700602  1
  O  O160  1  0.10473658  0.70530310  0.50660805  1
  O  O161  1  0.13907059  0.72795828  0.96451256  1
  O  O162  1  0.56445366  0.24343831  0.46798694  1
  O  O163  1  0.64809968  0.31243647  1.15905229  1
  O  O164  1  0.61616709  0.75887491  0.51181427  1
  O  O165  1  0.60364105  0.71306721  1.05260162  1
  O  O166  1  0.43069588  0.18976291  0.19789642  1
  O  O167  1  0.52561135  0.20325315  0.62661210  1
  O  O168  1  0.43652136  0.72375412  0.10546051  1
  O  O169  1  0.53733654  0.72325820  0.65000247  1
  O  O170  1  1.05253549  0.25178166  0.12759012  1
  O  O171  1  0.95788093  0.19208673  0.60134033  1
  O  O172  1  0.92932712  0.77621890  0.15178958  1
  O  O173  1  0.97107910  0.72162654  0.64304277  1
  O  O174  1  0.01874831  0.28607951  0.34927619  1
  O  O175  1  0.00273351  0.23356501  0.89875794  1
  O  O176  1  -0.01077710  0.72906250  0.33706064  1
  O  O177  1  -0.02009051  0.74732779  0.86394245  1
  O  O178  1  0.41736370  0.23560558  0.39410137  1
  O  O179  1  0.54852561  0.24165671  0.92258570  1
  O  O180  1  0.44685681  0.72222019  0.47164862  1
  O  O181  1  0.53803421  0.74562680  0.89901288  1
  O  O182  1  0.30408797  0.13615717  0.51589908  1
  O  O183  1  0.27866742  0.12991751  0.97404066  1
  O  O184  1  0.25186956  0.64169196  0.51741143  1
  O  O185  1  0.31330356  0.57107797  0.95944452  1
  O  O186  1  0.68855618  0.17076536  0.34089536  1
  O  O187  1  0.66183637  0.12161452  1.12546602  1
  O  O188  1  0.70206515  0.62556096  0.53882541  1
  O  O189  1  0.70860250  0.66507194  0.93370590  1
  O  O190  1  0.25902922  0.34049124  0.03984556  1
  O  O191  1  0.23467181  0.28729746  0.45485264  1
  O  O192  1  0.31407213  0.85054498  0.01179288  1
  O  O193  1  0.21989771  0.84348108  0.51917682  1
  O  O194  1  0.78837347  0.39297341  -0.01013792  1
  O  O195  1  0.75420397  0.36172949  0.44346237  1
  O  O196  1  0.82476130  0.80837597  -0.07741654  1
  O  O197  1  0.79634564  0.89342785  0.47745717  1
  O  O198  1  0.09673900  0.52649445  0.23066193  1
  O  O199  1  0.12522488  0.50287542  0.73498989  1
  O  O200  1  0.10417105  0.93621702  0.21885472  1
  O  O201  1  0.10630635  0.96651451  0.79599194  1
  O  O202  1  0.63227686  0.50967494  0.29020240  1
  O  O203  1  0.65587258  0.46869092  0.73700057  1
  O  O204  1  0.59837059  0.97190471  0.25831875  1
  O  O205  1  0.66633121  1.00658339  0.72729396  1
  O  O206  1  0.39177545  -0.01759218  0.28334326  1
  O  O207  1  0.39636605  -0.03934488  0.74448217  1
  O  O208  1  0.37986109  0.50362187  0.27151632  1
  O  O209  1  0.31862117  0.61354862  0.70285771  1
  O  O210  1  0.88688203  -0.06648001  0.20011053  1
  O  O211  1  0.84852154  0.04351816  0.78286581  1
  O  O212  1  0.78541451  0.62971840  0.30044497  1
  O  O213  1  0.82153951  0.46931066  0.74571165  1
  O  O214  1  0.08012923  0.43048894  0.38347062  1
  O  O215  1  0.10199938  0.42555893  0.87297434  1
  O  O216  1  0.13862344  0.84318527  0.35545186  1
  O  O217  1  0.15224533  0.82242156  0.84713479  1
  O  O218  1  0.68571358  0.37609313  0.44575437  1
  O  O219  1  0.66811958  0.34609684  0.92747005  1
  O  O220  1  0.63942186  0.84599122  0.32862725  1
  O  O221  1  0.61366920  0.92917317  0.83276057  1
  O  O222  1  0.37830281  0.05008551  0.13941674  1
  O  O223  1  0.41031100  0.11777286  0.63988553  1
  O  O224  1  0.38098527  0.59288519  0.14956774  1
  O  O225  1  0.42324993  0.63134931  0.63020236  1
  O  O226  1  0.90519883  0.04692027  0.08618416  1
  O  O227  1  0.85292749  0.17593973  0.70832016  1
  O  O228  1  0.87311926  0.64606835  0.15772862  1
  O  O229  1  0.85094096  0.61026302  0.64925841  1
  O  O230  1  0.22731760  0.20312675  0.09645842  1
  O  O231  1  0.26812377  0.22636463  0.64373410  1
  O  O232  1  0.26044037  0.75502240  0.11549293  1
  O  O233  1  0.24443921  0.75445976  0.65132526  1
  O  O234  1  0.71730118  0.23636908  0.03291457  1
  O  O235  1  0.81169372  0.25068793  0.56192222  1
  O  O236  1  0.73975751  0.70838628  0.13320929  1
  O  O237  1  0.78663100  0.75874214  0.63044678  1
  O  O238  1  0.21033223  0.33877484  0.38822063  1
  O  O239  1  0.26135773  0.24509182  0.89717511  1
  O  O240  1  0.25617917  0.71840604  0.36858683  1
  O  O241  1  0.27263200  0.73476031  0.87032323  1
  O  O242  1  0.71367427  0.22864555  0.37803462  1
  O  O243  1  0.74350154  0.24185912  0.87264057  1
  O  O244  1  0.75101950  0.74804559  0.42162335  1
  O  O245  1  0.75108305  0.73644305  0.80954375  1
  O  O246  1  0.00756352  0.13375123  0.03626334  1
  O  O247  1  0.03323728  0.12245422  0.45860896  1
  O  O248  1  -0.00446960  0.63124398  -0.02939084  1
  O  O249  1  -0.02279704  0.60788530  0.54790123  1
  O  O250  1  0.49629182  0.09444905  -0.01276271  1
  O  O251  1  0.46894940  0.12490075  0.51342365  1
  O  O252  1  0.50138754  0.59224526  -0.02859766  1
  O  O253  1  0.54530414  0.57342507  0.54820580  1
  O  O254  1  0.49749550  0.40533007  0.53951659  1
  O  O255  1  0.46988871  0.34875119  1.01853660  1
  O  O256  1  0.49126346  0.85576468  0.57848475  1
  O  O257  1  0.49069961  0.86268410  1.00998979  1
  O  O258  1  0.98453393  0.44022275  0.50172601  1
  O  O259  1  0.98931874  0.36763967  0.99828298  1
  O  O260  1  0.94895892  0.95153980  0.48744807  1
  O  O261  1  0.98746679  0.82159015  1.02895399  1
  O  O262  1  0.48088928  0.49831256  0.38676775  1
  O  O263  1  0.49228641  0.42172639  0.84727546  1
  O  O264  1  0.47848398  0.95599753  0.39961678  1
  O  O265  1  0.55553124  1.06164075  0.96995663  1
  O  O266  1  0.97820643  0.56377272  0.39324724  1
  O  O267  1  1.02181666  0.58080855  0.92790849  1
  O  O268  1  1.00798508  1.00418553  0.36575362  1
  O  O269  1  0.96222483  1.01815005  0.88159375  1
  O  O270  1  0.02993832  -0.03350709  0.08199634  1
  O  O271  1  0.02526002  0.04188808  0.57854284  1
  O  O272  1  0.01549069  0.51034252  0.09833689  1
  O  O273  1  -0.03197824  0.51117111  0.65941622  1
  O  O274  1  0.49635732  0.00512972  0.11707338  1
  O  O275  1  0.48396815  0.00623201  0.60573084  1
  O  O276  1  0.51721458  0.42865381  0.18702657  1
  O  O277  1  0.41469887  0.47370421  0.65417108  1
  O  O278  1  0.26785987  0.37421785  0.20949791  1
  O  O279  1  0.21326816  0.37980695  0.76586412  1
  O  O280  1  0.23621125  0.85371227  0.23195904  1
  O  O281  1  0.25569856  0.89258453  0.77604320  1
  O  O282  1  0.79833536  0.48521885  0.27565389  1
  O  O283  1  0.75064262  0.33150517  0.70851804  1
  O  O284  1  0.71390907  0.88988509  0.21944359  1
  O  O285  1  0.74010937  0.88884923  0.75910507  1
  O  O286  1  0.16304397  0.11221738  0.33603903  1
  O  O287  1  0.25635744  0.16598449  0.77614102  1
  O  O288  1  0.23721101  0.61441176  0.25486345  1
  O  O289  1  0.25940645  0.62507044  0.75416285  1
  O  O290  1  0.82380904  0.10354659  0.21196688  1
  O  O291  1  0.70321642  0.15846943  0.66854318  1
  O  O292  1  0.66203928  0.63902114  0.25808948  1
  O  O293  1  0.70106304  0.62152223  0.75014786  1
  O  O294  1  0.36495669  0.06057449  0.39382680  1
  O  O295  1  0.39372695  0.16975313  0.85726972  1
  O  O296  1  0.35878685  0.60994056  0.35546991  1
  O  O297  1  0.38284485  0.62931959  0.83209895  1
  O  O298  1  0.90223510  0.14349028  0.34653431  1
  O  O299  1  0.87347610  0.09894930  0.92354532  1
  O  O300  1  0.81507867  0.71985248  0.43011303  1
  O  O301  1  0.84600172  0.63820023  0.86891150  1
  O  O302  1  0.13573923  0.40682423  0.10737104  1
  O  O303  1  0.11872511  0.41325686  0.61546323  1
  O  O304  1  0.15951537  0.87027790  0.08264353  1
  O  O305  1  0.16124528  0.88937182  0.66441290  1
  O  O306  1  0.66737464  0.32679570  0.22576222  1
  O  O307  1  0.62754766  0.30300627  0.58835667  1
  O  O308  1  0.61906486  0.87933355  0.13027192  1
  O  O309  1  0.64712546  0.90193745  0.63332436  1
  O  O310  1  0.12071975  0.22942250  0.25238397  1
  O  O311  1  0.11720426  0.27875451  0.79799705  1
  O  O312  1  0.12060028  0.75182964  0.21949493  1
  O  O313  1  0.11118423  0.69921619  0.78221618  1
  O  O314  1  0.52094520  0.27292834  0.29612184  1
  O  O315  1  0.60272740  0.29629777  0.78513012  1
  O  O316  1  0.59863518  0.77380773  0.22237945  1
  O  O317  1  0.63937127  0.80782834  0.74421408  1
  O  O318  1  0.32957337  0.21762109  0.30060000  1
  O  O319  1  0.35348170  0.33978420  0.72710611  1
  O  O320  1  0.36976046  0.71551171  0.24823107  1
  O  O321  1  0.40258705  0.75134514  0.73794663  1
  O  O322  1  0.93128861  0.23494627  0.22121883  1
  O  O323  1  0.87774736  0.21339158  0.76419070  1
  O  O324  1  0.82023051  0.77385124  0.22778606  1
  O  O325  1  0.89625633  0.78063567  0.74524055  1
  O  O326  1  0.39106441  0.52162117  0.50417788  1
  O  O327  1  0.55246359  0.42553535  1.12558314  1
  O  O328  1  0.37748849  0.94844431  0.48524745  1
  O  O329  1  0.39068574  0.98533743  0.98035842  1
  O  O330  1  0.85182276  0.53537374  0.48329768  1
  O  O331  1  0.89831179  0.49007942  0.94790085  1
  O  O332  1  0.75744232  1.07947053  0.45655732  1
  O  O333  1  0.84800852  0.95301553  0.96022223  1
  O  O334  1  0.14245284  -0.00358874  -0.01831567  1
  O  O335  1  0.12184683  -0.01248683  0.46833315  1
  O  O336  1  0.13761425  0.58370937  0.04817014  1
  O  O337  1  0.14609772  0.51674749  0.51745135  1
  O  O338  1  0.67140205  -0.14571612  -0.03297769  1
  O  O339  1  0.62306415  -0.07364181  0.47207254  1
  O  O340  1  0.64611178  0.52905557  0.01145474  1
  O  O341  1  0.55942422  0.53256352  0.61602213  1
  O  O342  1  0.35940258  0.42957491  0.09109656  1
  O  O343  1  0.27987495  0.36890829  0.58608605  1
  O  O344  1  0.35933155  0.87608649  0.15228699  1
  O  O345  1  0.33267338  0.88339153  0.62667101  1
  O  O346  1  0.93481735  0.37935462  0.05330237  1
  O  O347  1  0.91760742  0.34752062  0.62946326  1
  O  O348  1  0.81235862  0.82256354  0.08240055  1
  O  O349  1  0.87930752  0.88329380  0.63727526  1
  O  O350  1  0.17947393  0.13729864  0.39999117  1
  O  O351  1  0.11544642  0.13335100  0.86647163  1
  O  O352  1  0.14961251  0.60529709  0.39702746  1
  O  O353  1  0.18809254  0.61183762  0.87083277  1
  O  O354  1  0.68821463  0.17182881  0.26711597  1
  O  O355  1  0.63889812  0.15312222  0.83899835  1
  O  O356  1  0.58520141  0.63768706  0.42313715  1
  O  O357  1  0.63537119  0.64809606  0.92497512  1
