# generated using pymatgen
data_V51Zn51O256
_symmetry_space_group_name_H-M   'P 1'
_cell_length_a   17.43256185
_cell_length_b   17.62392944
_cell_length_c   17.53228415
_cell_angle_alpha   88.96039269
_cell_angle_beta   91.33188476
_cell_angle_gamma   89.48419339
_symmetry_Int_Tables_number   1
_chemical_formula_structural   V51Zn51O256
_chemical_formula_sum   'V51 Zn51 O256'
_cell_volume   5383.86688480
_cell_formula_units_Z   1
loop_
 _symmetry_equiv_pos_site_id
 _symmetry_equiv_pos_as_xyz
  1  'x, y, z'
loop_
 _atom_site_type_symbol
 _atom_site_label
 _atom_site_symmetry_multiplicity
 _atom_site_fract_x
 _atom_site_fract_y
 _atom_site_fract_z
 _atom_site_occupancy
  V  V0  1  0.58515695  0.63355315  0.52351846  1
  V  V1  1  0.88761271  0.11876197  0.68045200  1
  V  V2  1  0.05208901  0.08849052  0.09424014  1
  V  V3  1  0.33815112  0.51730271  0.21390917  1
  V  V4  1  -0.05621719  0.50621634  0.47921884  1
  V  V5  1  0.84592964  0.73412608  0.62605208  1
  V  V6  1  0.52682310  0.75692982  0.27740954  1
  V  V7  1  0.23231258  0.53819929  0.84878346  1
  V  V8  1  -0.01728946  0.87617162  0.80123062  1
  V  V9  1  0.75402681  0.76506866  -0.00694462  1
  V  V10  1  0.88818016  0.33536908  0.01793402  1
  V  V11  1  0.88807685  -0.00925816  0.88287636  1
  V  V12  1  0.52665206  0.49204872  -0.01747602  1
  V  V13  1  0.11537178  0.21780400  0.87106567  1
  V  V14  1  0.73664848  0.92285151  0.12375131  1
  V  V15  1  0.50931786  0.13371732  0.12369274  1
  V  V16  1  0.75557236  0.37495947  0.11815934  1
  V  V17  1  0.85419388  0.13771550  0.28917763  1
  V  V18  1  0.87217717  0.65073045  0.23554812  1
  V  V19  1  0.10447611  -0.05025309  0.62453530  1
  V  V20  1  0.41890310  0.14286077  0.68154906  1
  V  V21  1  0.19160690  0.02618116  0.28852391  1
  V  V22  1  0.22500411  0.90304462  0.16025697  1
  V  V23  1  0.69856691  0.39450255  0.58970429  1
  V  V24  1  0.14846171  0.19770210  0.52851474  1
  V  V25  1  0.68746746  0.21015033  0.53841913  1
  V  V26  1  0.25784380  0.33743063  0.10854499  1
  V  V27  1  0.42620739  0.88092908  0.01718831  1
  V  V28  1  0.85700938  0.86458847  0.49489721  1
  V  V29  1  0.61650759  0.24657048  0.86629521  1
  V  V30  1  0.12174550  0.76741191  0.87426341  1
  V  V31  1  0.39334017  0.45119334  0.86637121  1
  V  V32  1  0.38870046  0.65369790  0.78736166  1
  V  V33  1  0.86286918  0.35262434  0.49469472  1
  V  V34  1  0.36387024  0.00630759  0.40678256  1
  V  V35  1  -0.01638967  0.61326333  0.60962192  1
  V  V36  1  0.90207680  0.87685427  0.04273857  1
  V  V37  1  0.13972935  0.37806081  0.23417420  1
  V  V38  1  0.74658727  0.23472022  -0.02357724  1
  V  V39  1  0.12392606  0.69962451  0.37057966  1
  V  V40  1  0.37113636  0.35299145  0.47884535  1
  V  V41  1  0.85974318  0.60406397  0.74533012  1
  V  V42  1  0.74188390  0.48622401  0.75570722  1
  V  V43  1  0.62642962  0.90104973  0.24835985  1
  V  V44  1  0.64610195  0.72235943  0.86362345  1
  V  V45  1  0.61472665  0.37700054  0.75455737  1
  V  V46  1  0.29157282  0.63111302  0.44684150  1
  V  V47  1  0.51278109  0.89338286  0.38748588  1
  V  V48  1  0.73607138  0.72967126  0.46652733  1
  V  V49  1  0.34833369  0.85724714  0.51234233  1
  V  V50  1  0.63281658  0.38730630  0.23350511  1
  Zn  Zn51  1  0.45005183  0.45681036  0.70651505  1
  Zn  Zn52  1  0.05532553  0.60248238  0.79159450  1
  Zn  Zn53  1  0.25094248  0.14821999  0.76278350  1
  Zn  Zn54  1  0.46337301  0.57958329  0.33259445  1
  Zn  Zn55  1  0.36168248  0.05894525  0.91497557  1
  Zn  Zn56  1  0.53513234  0.07879613  0.91170905  1
  Zn  Zn57  1  0.45172375  0.70844381  0.43022406  1
  Zn  Zn58  1  0.57789264  0.32427520  0.04516873  1
  Zn  Zn59  1  0.08683743  0.79834775  0.05532837  1
  Zn  Zn60  1  0.48086730  0.68369212  0.94915934  1
  Zn  Zn61  1  0.89037086  0.44869766  0.64184898  1
  Zn  Zn62  1  0.41385216  0.24598913  0.86530808  1
  Zn  Zn63  1  0.53308400  0.29002292  0.60316043  1
  Zn  Zn64  1  0.28783685  0.49361405  0.01814860  1
  Zn  Zn65  1  0.36594947  0.20145787  0.35348237  1
  Zn  Zn66  1  0.20366628  0.21017026  0.22780820  1
  Zn  Zn67  1  0.93271691  0.16721684  0.94292683  1
  Zn  Zn68  1  0.08532356  0.29145651  0.06503428  1
  Zn  Zn69  1  0.69839383  0.20071350  0.18344769  1
  Zn  Zn70  1  0.92071924  0.68762576  0.43633622  1
  Zn  Zn71  1  0.60771475  0.45919062  0.41165441  1
  Zn  Zn72  1  0.69371266  0.74415008  0.16895754  1
  Zn  Zn73  1  0.23840892  0.04053751  0.02949100  1
  Zn  Zn74  1  0.84560851  0.78354974  0.83299768  1
  Zn  Zn75  1  0.52435154  0.04991767  0.28559662  1
  Zn  Zn76  1  0.23283629  0.47008148  0.37169556  1
  Zn  Zn77  1  0.33987654  0.33933380  0.26727016  1
  Zn  Zn78  1  0.02600539  0.79799911  0.56819807  1
  Zn  Zn79  1  0.62526797  0.89935661  -0.02978572  1
  Zn  Zn80  1  0.32474959  0.77115522  0.88122380  1
  Zn  Zn81  1  0.26717197  0.05750095  0.57094132  1
  Zn  Zn82  1  0.71770965  0.90422831  0.40985726  1
  Zn  Zn83  1  0.80598698  0.05419282  0.56233420  1
  Zn  Zn84  1  0.74164188  0.25461246  0.71535147  1
  Zn  Zn85  1  0.70441943  0.41925348  0.93314872  1
  Zn  Zn86  1  0.05710824  0.05486478  0.77238162  1
  Zn  Zn87  1  0.26319245  0.34690564  0.91164898  1
  Zn  Zn88  1  0.91661388  0.94347251  0.63289733  1
  Zn  Zn89  1  0.41207777  0.61125198  0.59155643  1
  Zn  Zn90  1  0.37488661  0.77998202  0.67300650  1
  Zn  Zn91  1  0.04320285  0.12640012  0.37404152  1
  Zn  Zn92  1  0.57230483  0.55665583  0.82426986  1
  Zn  Zn93  1  0.78050478  0.56246945  0.55902964  1
  Zn  Zn94  1  0.45185600  0.39139753  0.14361977  1
  Zn  Zn95  1  0.68176649  0.67437962  0.68848753  1
  Zn  Zn96  1  0.61947189  0.82879331  0.52638475  1
  Zn  Zn97  1  0.72849202  0.29656286  0.35666720  1
  Zn  Zn98  1  0.95086124  0.17451788  0.49622459  1
  Zn  Zn99  1  0.80511177  0.81955269  0.30531575  1
  Zn  Zn100  1  0.71897014  1.03848774  0.95768356  1
  Zn  Zn101  1  0.04175490  0.52976375  0.29948071  1
  O  O102  1  0.09983507  0.15098451  0.17271192  1
  O  O103  1  0.19379080  0.23872339  0.60530005  1
  O  O104  1  0.13571720  0.65420049  0.13680713  1
  O  O105  1  0.07626666  0.62280565  0.62163799  1
  O  O106  1  0.61527953  0.13542892  0.14172664  1
  O  O107  1  0.51523437  0.13245624  0.70393132  1
  O  O108  1  0.64264387  0.64885686  0.11408775  1
  O  O109  1  0.61747435  0.62131495  0.61529631  1
  O  O110  1  0.38574552  0.35962993  0.37518343  1
  O  O111  1  0.40083231  0.35649425  0.85082114  1
  O  O112  1  0.40173441  0.90465369  0.43449778  1
  O  O113  1  0.37145122  0.85809135  0.92984474  1
  O  O114  1  0.80761528  0.35426255  0.41212747  1
  O  O115  1  0.89309750  0.40117336  0.91908417  1
  O  O116  1  0.82778009  0.88263267  0.39483127  1
  O  O117  1  0.87652657  0.89995698  0.82480726  1
  O  O118  1  0.24580300  0.00060791  0.38227989  1
  O  O119  1  0.27283815  -0.00864182  0.93885011  1
  O  O120  1  0.24809394  0.54475288  0.44278440  1
  O  O121  1  0.27683890  0.44297223  0.85177821  1
  O  O122  1  0.70670487  0.01827254  0.44350594  1
  O  O123  1  0.78942361  -0.00250679  0.88549480  1
  O  O124  1  0.77169470  0.48455047  0.34095150  1
  O  O125  1  0.75694464  0.47576468  0.85013694  1
  O  O126  1  0.30814914  0.52648175  0.11875997  1
  O  O127  1  0.39132077  0.50049155  0.61780809  1
  O  O128  1  0.26799713  0.98680000  0.12118238  1
  O  O129  1  0.19376632  0.98509412  0.59290792  1
  O  O130  1  0.75577138  0.46452091  0.09254673  1
  O  O131  1  0.71769486  0.48993501  0.61463329  1
  O  O132  1  0.74151271  1.01160034  0.14687773  1
  O  O133  1  0.60992415  1.02918228  0.61092920  1
  O  O134  1  0.06602958  0.44860916  0.23409510  1
  O  O135  1  0.09764429  0.40726579  0.66650530  1
  O  O136  1  0.01991973  0.90429315  0.27217145  1
  O  O137  1  -0.02553317  0.87511525  0.70410368  1
  O  O138  1  0.53763254  0.36096970  0.21295231  1
  O  O139  1  0.51585563  0.37919811  0.74110041  1
  O  O140  1  0.52473274  0.87419640  0.26608457  1
  O  O141  1  0.51336993  0.82659903  0.64425540  1
  O  O142  1  0.50893182  0.14985337  0.22827650  1
  O  O143  1  0.38595327  0.19284829  0.76352224  1
  O  O144  1  0.52577011  0.67237371  0.33850559  1
  O  O145  1  0.48309548  0.62344250  0.79599282  1
  O  O146  1  0.95801464  0.13236581  0.29236279  1
  O  O147  1  0.97702458  0.11594741  0.72238286  1
  O  O148  1  0.96667138  0.61414912  0.24765351  1
  O  O149  1  0.96566649  0.59721497  0.72068218  1
  O  O150  1  0.43861900  0.14550271  -0.08671344  1
  O  O151  1  0.36945836  0.25204376  0.45294017  1
  O  O152  1  0.43962117  0.77775847  0.00710734  1
  O  O153  1  0.38307592  0.77095543  0.49702446  1
  O  O154  1  0.85967712  0.24123422  -0.01906326  1
  O  O155  1  0.88791738  0.26161655  0.51393261  1
  O  O156  1  0.85273489  0.80825339  -0.01032771  1
  O  O157  1  0.84391765  0.74850254  0.48956981  1
  O  O158  1  0.14702019  0.28614740  0.48186541  1
  O  O159  1  0.12119978  0.22865684  0.97453190  1
  O  O160  1  0.07633593  0.74886877  0.45868578  1
  O  O161  1  0.08678177  0.74300022  0.96282733  1
  O  O162  1  0.58901626  0.21242206  0.55378259  1
  O  O163  1  0.63781754  0.26612305  0.97399970  1
  O  O164  1  0.62467063  0.72326584  0.48637878  1
  O  O165  1  0.65227702  0.79182487  0.96068274  1
  O  O166  1  0.52608313  0.22916263  0.09437768  1
  O  O167  1  0.44051293  0.24189783  0.65217706  1
  O  O168  1  0.67451821  0.58786205  0.10077795  1
  O  O169  1  0.58520419  0.81983236  0.64003377  1
  O  O170  1  1.05016676  0.19603390  0.12831191  1
  O  O171  1  0.94477695  0.29617556  0.71603726  1
  O  O172  1  1.08346872  0.70983292  0.13719229  1
  O  O173  1  0.95708155  0.71894676  0.60444304  1
  O  O174  1  -0.00145331  0.22257670  0.40463527  1
  O  O175  1  0.01427862  0.23625581  0.89005795  1
  O  O176  1  0.01967398  0.73709223  0.40048863  1
  O  O177  1  -0.04432554  0.78622268  0.83775781  1
  O  O178  1  0.55411263  0.21124210  0.38115560  1
  O  O179  1  0.52124842  0.26908306  0.87059326  1
  O  O180  1  0.47900630  0.79903707  0.37019074  1
  O  O181  1  0.54834183  0.74009085  0.88309273  1
  O  O182  1  0.24261110  0.15030291  0.51396549  1
  O  O183  1  0.31193441  0.11272919  0.99629168  1
  O  O184  1  0.31458129  0.63878409  0.54124995  1
  O  O185  1  0.22567255  0.55656106  0.94329693  1
  O  O186  1  0.72210931  0.12099175  0.56371243  1
  O  O187  1  0.74079023  0.13865156  0.99341229  1
  O  O188  1  0.74509625  0.63313653  0.47847981  1
  O  O189  1  0.75939451  0.67435148  1.01026153  1
  O  O190  1  0.24643401  0.38429279  0.01361641  1
  O  O191  1  0.27749136  0.38581452  0.45190189  1
  O  O192  1  0.34109290  0.87756060  0.06894929  1
  O  O193  1  0.24709492  0.87392065  0.46216721  1
  O  O194  1  0.76732554  0.34972576  -0.00142896  1
  O  O195  1  0.66697605  0.40395408  0.49891128  1
  O  O196  1  0.71817750  0.93798372  0.02260672  1
  O  O197  1  0.72700634  0.83808330  0.50186587  1
  O  O198  1  0.26967834  0.52182133  0.28256304  1
  O  O199  1  0.16030811  0.42614116  0.69340128  1
  O  O200  1  0.10569824  1.05857583  0.32157341  1
  O  O201  1  0.10418961  0.97040694  0.72143322  1
  O  O202  1  0.63451024  0.47997740  0.22334472  1
  O  O203  1  0.63059431  0.48684376  0.75594271  1
  O  O204  1  0.61956982  0.99738626  0.26569183  1
  O  O205  1  0.56730352  0.91092097  0.78067104  1
  O  O206  1  0.29867619  -0.03105893  0.32694596  1
  O  O207  1  0.27436570  -0.08616568  0.75286953  1
  O  O208  1  0.39361384  0.43031001  0.22950993  1
  O  O209  1  0.39437197  0.50701153  0.78250018  1
  O  O210  1  0.84337778  0.03986476  0.28715468  1
  O  O211  1  0.84931346  0.02525530  0.67613286  1
  O  O212  1  0.83318103  0.56272025  0.22391739  1
  O  O213  1  0.84880410  0.49522558  0.72983065  1
  O  O214  1  0.17012197  0.39906782  0.33024463  1
  O  O215  1  0.15742818  0.31054397  0.87380823  1
  O  O216  1  -0.00586047  0.91758464  0.33515084  1
  O  O217  1  0.08182236  0.85819156  0.83819098  1
  O  O218  1  0.64582808  0.37995808  0.33943923  1
  O  O219  1  0.63371476  0.36987229  0.85393943  1
  O  O220  1  0.62027468  0.88569988  0.36452985  1
  O  O221  1  0.70709120  0.97993254  0.74097790  1
  O  O222  1  0.41245796  0.15746397  0.11370802  1
  O  O223  1  0.30843681  0.12316458  0.66304450  1
  O  O224  1  0.51726699  0.59586001  0.16253904  1
  O  O225  1  0.38817818  0.66924573  0.68106192  1
  O  O226  1  0.87610548  0.16702497  0.19445225  1
  O  O227  1  0.89432096  0.13024413  0.57992631  1
  O  O228  1  0.89837662  0.66978366  0.14236067  1
  O  O229  1  0.85759608  0.62012494  0.62052955  1
  O  O230  1  0.23324987  0.24356262  0.11925852  1
  O  O231  1  0.25178953  0.25400978  0.76156886  1
  O  O232  1  0.28760853  0.84931897  0.20748488  1
  O  O233  1  0.24053084  0.82889274  0.52417440  1
  O  O234  1  0.74508115  0.24785532  0.10116361  1
  O  O235  1  0.72643700  0.28148395  0.60043075  1
  O  O236  1  0.73745804  0.80063810  0.08992139  1
  O  O237  1  0.74702814  0.72510322  0.60782357  1
  O  O238  1  0.27876914  0.25059244  0.30396777  1
  O  O239  1  0.20306189  0.16682853  0.87233688  1
  O  O240  1  0.22108475  0.69877328  0.41419803  1
  O  O241  1  0.21895344  0.78239483  0.88514194  1
  O  O242  1  0.70291548  0.23219781  0.44499514  1
  O  O243  1  0.73657433  0.24362899  0.87849893  1
  O  O244  1  0.73764195  0.74838159  0.37171895  1
  O  O245  1  0.75371902  0.75760770  0.88044501  1
  O  O246  1  -0.01946841  0.11426748  0.02752981  1
  O  O247  1  0.05044361  0.21153018  0.55516132  1
  O  O248  1  0.11483780  0.58937339  0.15938382  1
  O  O249  1  -0.03008476  0.61069675  0.50016995  1
  O  O250  1  0.52249165  0.09677545  0.03328677  1
  O  O251  1  0.41882150  0.12258998  0.58475499  1
  O  O252  1  0.50684542  0.58742029  -0.00102188  1
  O  O253  1  0.48531604  0.65096558  0.52339286  1
  O  O254  1  0.46682365  0.32856832  0.51695747  1
  O  O255  1  0.50377719  0.40972201  1.04548066  1
  O  O256  1  0.54263653  0.89420322  0.48256480  1
  O  O257  1  0.51503846  0.89390970  0.97037947  1
  O  O258  1  0.95221607  0.39951460  0.48896634  1
  O  O259  1  0.98412025  0.31688313  1.02689075  1
  O  O260  1  0.95286767  0.85346258  0.49288048  1
  O  O261  1  0.98585848  0.83913505  1.07590156  1
  O  O262  1  0.51408777  0.48997571  0.36280282  1
  O  O263  1  0.50567635  0.47787886  0.88301951  1
  O  O264  1  0.47166284  0.98933065  0.35960650  1
  O  O265  1  0.50625648  0.87740319  0.77256013  1
  O  O266  1  0.97888563  0.51028297  0.38895690  1
  O  O267  1  1.00063924  0.59016294  0.90085554  1
  O  O268  1  0.98557109  1.07959664  0.45411492  1
  O  O269  1  0.98787494  0.97965845  0.83054347  1
  O  O270  1  0.01769205  0.01911407  0.14624718  1
  O  O271  1  0.01603543  -0.01914079  0.58804761  1
  O  O272  1  0.05253072  0.57458216  0.01815449  1
  O  O273  1  -0.03112895  0.50577220  0.59154760  1
  O  O274  1  0.49687922  0.03651555  0.15661968  1
  O  O275  1  0.41941127  0.05116414  0.72227111  1
  O  O276  1  0.52627447  0.53024985  0.14325795  1
  O  O277  1  0.47161033  0.51456791  0.61445300  1
  O  O278  1  0.24811738  0.37867015  0.20655574  1
  O  O279  1  0.31656121  0.25248250  0.91194684  1
  O  O280  1  0.16534982  0.94983029  0.22951527  1
  O  O281  1  0.22380249  0.92082349  0.79973378  1
  O  O282  1  0.74984619  0.37482418  0.21931429  1
  O  O283  1  0.72888046  0.38713070  0.72364314  1
  O  O284  1  0.73374249  0.87995278  0.24389241  1
  O  O285  1  0.70129223  0.91477906  0.71924467  1
  O  O286  1  0.23111793  0.10160250  0.24429217  1
  O  O287  1  0.15997129  0.10220804  0.73011285  1
  O  O288  1  0.40441841  0.58599446  0.23701293  1
  O  O289  1  0.29168998  0.60746180  0.80230967  1
  O  O290  1  0.75127866  0.13076360  0.26193968  1
  O  O291  1  0.82641479  0.18631393  0.71887386  1
  O  O292  1  0.77327089  0.67857295  0.22098487  1
  O  O293  1  0.74816513  0.59199002  0.73496093  1
  O  O294  1  0.37511183  0.10008558  0.38329825  1
  O  O295  1  0.45481644  0.01634694  0.86801614  1
  O  O296  1  0.37726002  0.63035140  0.39537614  1
  O  O297  1  0.38313646  0.67726276  0.89585910  1
  O  O298  1  0.85583304  0.13808876  0.39215532  1
  O  O299  1  0.90524786  0.08896357  0.87552598  1
  O  O300  1  0.87414915  0.64837049  0.33911555  1
  O  O301  1  0.86801873  0.61195833  0.83695016  1
  O  O302  1  0.13947919  0.36523871  0.12083209  1
  O  O303  1  0.16549804  0.52093475  0.56624611  1
  O  O304  1  0.17106308  0.85616486  0.09271518  1
  O  O305  1  0.10766827  0.85271463  0.61102109  1
  O  O306  1  0.64990244  0.35264584  0.12389518  1
  O  O307  1  0.60754885  0.36819935  0.63479730  1
  O  O308  1  0.63161781  0.90142920  0.14633557  1
  O  O309  1  0.57481212  0.97071351  0.62672484  1
  O  O310  1  0.11823886  0.28388273  0.25211508  1
  O  O311  1  0.09702641  0.24321481  0.77715211  1
  O  O312  1  0.13040461  0.75053231  0.29259328  1
  O  O313  1  0.10693768  0.69527356  0.81125708  1
  O  O314  1  0.66826898  0.26122113  0.26582409  1
  O  O315  1  0.63695205  0.26827384  0.75790425  1
  O  O316  1  0.62173912  0.76831782  0.24128970  1
  O  O317  1  0.64870229  0.74106393  0.76627281  1
  O  O318  1  0.41597845  0.25498848  0.27475416  1
  O  O319  1  0.30276341  0.07075084  0.82040420  1
  O  O320  1  0.46867489  0.73799255  0.20686970  1
  O  O321  1  0.37115245  0.75978204  0.78119954  1
  O  O322  1  0.82602887  0.23668932  0.31022150  1
  O  O323  1  0.95495858  0.36625590  0.72162314  1
  O  O324  1  0.88340485  0.75447619  0.25531555  1
  O  O325  1  0.84785490  0.71919072  0.72778347  1
  O  O326  1  0.40995372  0.44167411  0.48541228  1
  O  O327  1  0.38437915  0.47990284  0.96075037  1
  O  O328  1  0.33710326  1.00900152  0.50273889  1
  O  O329  1  0.41381138  0.97971423  1.00238761  1
  O  O330  1  0.84698370  0.51473568  0.47600283  1
  O  O331  1  0.90701619  0.44236831  0.97943402  1
  O  O332  1  0.84459211  0.95801051  0.52929027  1
  O  O333  1  0.91804569  0.95504075  0.97717102  1
  O  O334  1  0.13450764  0.06215925  0.04568642  1
  O  O335  1  0.11752041  0.10892682  0.57315288  1
  O  O336  1  0.05399303  0.55796830  -0.05181626  1
  O  O337  1  0.12302059  0.50487216  0.51263592  1
  O  O338  1  0.61504002  0.00405500  -0.06929950  1
  O  O339  1  0.64565726  0.05489062  0.42903608  1
  O  O340  1  0.62399907  0.48223623  -0.02083276  1
  O  O341  1  0.60559990  0.55643838  0.47138439  1
  O  O342  1  0.35758946  0.33560012  0.11587059  1
  O  O343  1  0.32844570  0.34118557  0.56612128  1
  O  O344  1  0.47351577  0.87739179  0.10420126  1
  O  O345  1  0.36649559  0.86860590  0.61009820  1
  O  O346  1  0.86346290  0.34823104  0.11196225  1
  O  O347  1  0.81825116  0.38910857  0.57981895  1
  O  O348  1  0.84624264  0.90149849  0.11985320  1
  O  O349  1  0.85470318  0.83289069  0.60855688  1
  O  O350  1  0.13790289  0.16363852  0.42999029  1
  O  O351  1  0.08238844  0.12029697  0.86350896  1
  O  O352  1  0.10411928  0.60750955  0.34517777  1
  O  O353  1  0.14177282  0.53264271  0.80894011  1
  O  O354  1  0.52832462  0.14642205  0.37836463  1
  O  O355  1  0.60885830  0.14925867  0.86705859  1
  O  O356  1  0.72053278  0.53206856  0.34522255  1
  O  O357  1  0.64720399  0.62491786  0.87366782  1
