# generated using pymatgen
data_V51Zn51O256
_symmetry_space_group_name_H-M   'P 1'
_cell_length_a   17.55711901
_cell_length_b   17.75586518
_cell_length_c   17.62267733
_cell_angle_alpha   90.20831632
_cell_angle_beta   89.46958434
_cell_angle_gamma   90.14230699
_symmetry_Int_Tables_number   1
_chemical_formula_structural   V51Zn51O256
_chemical_formula_sum   'V51 Zn51 O256'
_cell_volume   5493.43761724
_cell_formula_units_Z   1
loop_
 _symmetry_equiv_pos_site_id
 _symmetry_equiv_pos_as_xyz
  1  'x, y, z'
loop_
 _atom_site_type_symbol
 _atom_site_label
 _atom_site_symmetry_multiplicity
 _atom_site_fract_x
 _atom_site_fract_y
 _atom_site_fract_z
 _atom_site_occupancy
  V  V0  1  0.87884807  0.76628822  0.55948678  1
  V  V1  1  0.63577822  0.62293199  -0.00049339  1
  V  V2  1  0.47620054  0.44434945  0.54466232  1
  V  V3  1  0.92148666  0.11289390  0.27396512  1
  V  V4  1  0.75304404  0.23823584  0.00271817  1
  V  V5  1  0.86309695  -0.02403532  0.39312067  1
  V  V6  1  0.27484770  0.10867352  0.87894088  1
  V  V7  1  0.05968744  0.87359903  0.84361197  1
  V  V8  1  0.50108279  0.48762318  0.04735868  1
  V  V9  1  0.61048901  0.34922409  0.74379772  1
  V  V10  1  0.25538517  0.27509742  -0.04328484  1
  V  V11  1  0.12556875  -0.01048810  0.11214178  1
  V  V12  1  0.18329416  0.02134060  0.72171674  1
  V  V13  1  0.59775355  0.86123290  0.26521315  1
  V  V14  1  0.38886907  0.88838849  0.03568866  1
  V  V15  1  0.56396371  0.15175916  0.43566581  1
  V  V16  1  0.53933112  0.02369728  0.56834712  1
  V  V17  1  0.77454761  0.14696238  0.37274980  1
  V  V18  1  0.76250576  0.02046077  0.24241138  1
  V  V19  1  0.50606306  0.01178865  -0.03084792  1
  V  V20  1  0.30048785  0.74518985  -0.00303957  1
  V  V21  1  0.76206355  0.84856222  0.16468845  1
  V  V22  1  0.37153076  -0.03333789  0.83430753  1
  V  V23  1  0.20700380  0.25752413  0.54830307  1
  V  V24  1  0.08960487  0.21939563  0.87784409  1
  V  V25  1  0.49452873  0.65102306  0.59945217  1
  V  V26  1  0.76979859  -0.04454713  0.72325780  1
  V  V27  1  0.48638112  0.37922656  0.89686918  1
  V  V28  1  0.12833119  0.49633105  0.15697356  1
  V  V29  1  0.25276672  0.34169649  0.13813838  1
  V  V30  1  0.73450248  0.89205006  0.57370863  1
  V  V31  1  -0.01479973  0.01490753  0.50913879  1
  V  V32  1  0.36841117  0.83632549  0.50306758  1
  V  V33  1  0.84039410  0.90604971  0.03549735  1
  V  V34  1  0.17308265  0.66889818  0.08922173  1
  V  V35  1  0.47661319  0.13407915  0.10245103  1
  V  V36  1  0.23399590  0.72421510  0.46699318  1
  V  V37  1  -0.02436512  0.36241495  0.42826907  1
  V  V38  1  0.26693118  0.49079585  0.71694865  1
  V  V39  1  0.29431558  0.52736551  0.29639781  1
  V  V40  1  0.82524072  0.35924744  0.55389507  1
  V  V41  1  0.73551982  0.64439755  0.42536602  1
  V  V42  1  0.85396955  0.12240218  0.73752975  1
  V  V43  1  0.22698564  0.84759079  0.62227840  1
  V  V44  1  0.53761823  0.68338171  0.22237758  1
  V  V45  1  0.38192589  0.44401925  0.41036812  1
  V  V46  1  0.00349033  0.56506631  0.55474086  1
  V  V47  1  0.78638625  0.45171803  0.20112705  1
  V  V48  1  0.72223916  0.22158954  0.53370921  1
  V  V49  1  0.48517936  0.24932511  0.26185085  1
  V  V50  1  0.42950472  0.56565483  0.90521022  1
  Zn  Zn51  1  0.62080382  0.13802551  0.26207236  1
  Zn  Zn52  1  0.04567224  -0.02136555  0.32175351  1
  Zn  Zn53  1  0.55912265  0.82853960  0.57667167  1
  Zn  Zn54  1  0.12092791  0.90300424  0.49138362  1
  Zn  Zn55  1  0.81018802  0.06747914  0.56470184  1
  Zn  Zn56  1  0.86309146  0.08447418  0.08197106  1
  Zn  Zn57  1  0.40859834  0.42688905  0.19490379  1
  Zn  Zn58  1  0.04329264  0.51153822  0.35159602  1
  Zn  Zn59  1  0.44536073  0.20488995  0.94554375  1
  Zn  Zn60  1  0.80904632  0.55068892  0.52848696  1
  Zn  Zn61  1  0.64442525  0.31590728  0.21867046  1
  Zn  Zn62  1  0.47526465  0.96406589  0.16200219  1
  Zn  Zn63  1  0.38309427  0.63721246  0.44793856  1
  Zn  Zn64  1  0.66464129  0.42307460  0.56627759  1
  Zn  Zn65  1  0.83988175  0.37379564  0.91840765  1
  Zn  Zn66  1  0.92489657  0.17926924  0.92839923  1
  Zn  Zn67  1  0.27716660  0.53100961  0.53971107  1
  Zn  Zn68  1  0.92932080  0.63413099  0.41926181  1
  Zn  Zn69  1  0.29712961  0.44811200  0.88496391  1
  Zn  Zn70  1  0.32445497  0.57212386  0.10786311  1
  Zn  Zn71  1  0.69146048  0.70644192  0.57974402  1
  Zn  Zn72  1  0.80368633  0.31925427  0.74946078  1
  Zn  Zn73  1  0.65462788  0.03039107  0.84287869  1
  Zn  Zn74  1  0.91760023  0.19077987  0.47290770  1
  Zn  Zn75  1  0.62018404  0.16107152  0.69968933  1
  Zn  Zn76  1  0.15792187  0.06621479  0.56972136  1
  Zn  Zn77  1  0.73265333  0.84691909  0.40376523  1
  Zn  Zn78  1  0.06484874  0.74780902  0.57780178  1
  Zn  Zn79  1  0.13517570  0.43227950  0.59335698  1
  Zn  Zn80  1  0.66191872  1.00123014  0.40941813  1
  Zn  Zn81  1  0.21977163  0.21290552  0.75563297  1
  Zn  Zn82  1  0.18259143  0.41265749  0.41556107  1
  Zn  Zn83  1  0.93238792  0.96250878  0.18685174  1
  Zn  Zn84  1  1.12944420  0.75510123  0.91774227  1
  Zn  Zn85  1  0.04136188  0.03776254  0.83856866  1
  Zn  Zn86  1  0.95762926  0.44314660  0.08091963  1
  Zn  Zn87  1  0.45245950  0.46660116  0.74921741  1
  Zn  Zn88  1  0.15889077  0.16899666  0.03535510  1
  Zn  Zn89  1  0.30787342  0.06911120  0.06246169  1
  Zn  Zn90  1  0.30475354  0.67137960  0.62803951  1
  Zn  Zn91  1  0.73406061  0.65863844  0.17054529  1
  Zn  Zn92  1  0.48345328  0.70935147  0.03258817  1
  Zn  Zn93  1  0.51037587  0.31946077  0.09202346  1
  Zn  Zn94  1  0.25702664  0.61076983  0.87773829  1
  Zn  Zn95  1  0.33089535  0.32650994  0.31349497  1
  Zn  Zn96  1  0.35025914  0.99277219  0.63078418  1
  Zn  Zn97  1  0.86200907  0.28888248  0.29471369  1
  Zn  Zn98  1  0.95907773  0.89368140  0.67524347  1
  Zn  Zn99  1  0.22408593  0.91839672  0.93728235  1
  Zn  Zn100  1  0.20040234  0.70596433  0.27313607  1
  Zn  Zn101  1  0.80106045  0.49537774  0.01431485  1
  O  O102  1  0.10619229  0.08590871  0.08039351  1
  O  O103  1  0.00494822  0.21460560  0.68999903  1
  O  O104  1  0.16782670  0.71823049  0.17395180  1
  O  O105  1  0.04281127  0.64446611  0.59706528  1
  O  O106  1  0.68314355  0.21890462  0.22033142  1
  O  O107  1  0.48849643  0.17207330  0.48470992  1
  O  O108  1  0.73035562  0.65407577  0.05302929  1
  O  O109  1  0.56109096  0.71396518  0.41985883  1
  O  O110  1  0.31272665  0.37439802  0.41740532  1
  O  O111  1  0.39426299  0.39296675  0.87429318  1
  O  O112  1  0.37626365  0.90222300  0.43913376  1
  O  O113  1  0.36842730  0.87553953  0.84542767  1
  O  O114  1  0.91978384  0.36319605  0.34983762  1
  O  O115  1  1.04194076  0.48354800  0.76707768  1
  O  O116  1  0.84026873  0.88431376  0.39111164  1
  O  O117  1  0.87990230  0.84947964  0.97350083  1
  O  O118  1  0.23963659  0.07035635  0.40523247  1
  O  O119  1  0.28000870  -0.00045906  0.88084480  1
  O  O120  1  0.22944101  0.45891851  0.32279896  1
  O  O121  1  0.32953889  0.54549316  0.93162939  1
  O  O122  1  0.76863005  0.01628090  0.37253245  1
  O  O123  1  0.71430700  -0.05174982  0.80620572  1
  O  O124  1  0.80832397  0.48290283  0.29128570  1
  O  O125  1  0.87380920  0.35978881  0.82188771  1
  O  O126  1  0.33934359  0.52269197  0.20389697  1
  O  O127  1  0.27890475  0.56550485  0.65110944  1
  O  O128  1  0.21849193  1.03938070  0.12918426  1
  O  O129  1  0.11002040  1.06208272  0.67534964  1
  O  O130  1  0.75334893  0.45083260  0.10223694  1
  O  O131  1  0.86561658  0.50866052  0.76503358  1
  O  O132  1  0.78161717  1.03521356  0.14948070  1
  O  O133  1  0.75123504  0.98853630  0.61759737  1
  O  O134  1  -0.00865064  0.33878739  0.13002017  1
  O  O135  1  0.00972873  0.42265254  0.76153943  1
  O  O136  1  0.00335235  0.90043365  0.24882478  1
  O  O137  1  0.03367175  0.86786970  0.74898503  1
  O  O138  1  0.45004561  0.30674565  0.18743753  1
  O  O139  1  0.53419687  0.40376954  0.80301101  1
  O  O140  1  0.53553978  0.92959030  0.24359808  1
  O  O141  1  0.48111126  0.80428007  0.75227916  1
  O  O142  1  0.51454452  0.16390823  0.19429728  1
  O  O143  1  0.36821275  0.19149756  0.70216610  1
  O  O144  1  0.62795380  0.66041758  0.19660117  1
  O  O145  1  0.52704759  0.56588778  0.64872319  1
  O  O146  1  1.01107108  0.08445126  0.30337611  1
  O  O147  1  0.94943030  0.09550295  0.78907860  1
  O  O148  1  0.99550193  0.64622516  0.19904042  1
  O  O149  1  0.97607412  0.63664307  0.79684174  1
  O  O150  1  0.34989322  0.26023593  -0.03336102  1
  O  O151  1  0.28093798  0.21001743  0.50306122  1
  O  O152  1  0.39881666  0.77644361  0.01947574  1
  O  O153  1  0.36464112  0.74662829  0.45296921  1
  O  O154  1  0.84516249  0.26236954  -0.04958171  1
  O  O155  1  0.83523637  0.25945874  0.52157406  1
  O  O156  1  0.96531671  0.76240359  0.09787447  1
  O  O157  1  0.91638924  0.72797931  0.47762528  1
  O  O158  1  0.12632854  0.31933423  0.57388251  1
  O  O159  1  0.13749531  0.24897871  0.96563447  1
  O  O160  1  0.14164758  0.71348598  0.49150588  1
  O  O161  1  0.18885532  0.73903815  1.00953783  1
  O  O162  1  0.63578948  0.21408123  0.48222069  1
  O  O163  1  0.66166051  0.22846627  1.03590681  1
  O  O164  1  0.55494594  0.78110408  0.43555491  1
  O  O165  1  0.59202887  0.70645436  1.02309352  1
  O  O166  1  0.49789033  0.21816687  0.05143390  1
  O  O167  1  0.42781303  0.20691333  0.66458006  1
  O  O168  1  0.48243845  0.69231383  0.14527617  1
  O  O169  1  0.57334231  0.71268761  0.60814533  1
  O  O170  1  1.11938702  0.22229672  0.15456988  1
  O  O171  1  0.98457476  0.28038163  0.69207276  1
  O  O172  1  0.89185288  0.62569985  0.08637064  1
  O  O173  1  0.95868308  0.79146866  0.61502359  1
  O  O174  1  -0.00710883  0.27061869  0.44667369  1
  O  O175  1  -0.00444079  0.24697235  0.88442354  1
  O  O176  1  -0.04474857  0.77767190  0.25948814  1
  O  O177  1  0.02802538  0.79027294  0.88667055  1
  O  O178  1  0.60745343  0.44205594  0.36818056  1
  O  O179  1  0.50126942  0.28453753  0.89358474  1
  O  O180  1  0.46858959  0.64449754  0.30413314  1
  O  O181  1  0.62608723  0.80879025  0.80207982  1
  O  O182  1  0.15206982  0.17258596  0.53460962  1
  O  O183  1  0.24942471  0.11691414  0.98089946  1
  O  O184  1  0.28160513  0.64228561  0.51422298  1
  O  O185  1  0.29276903  0.66920442  1.06740600  1
  O  O186  1  0.76941456  0.13819031  0.48472215  1
  O  O187  1  0.77585551  0.14376658  1.03557455  1
  O  O188  1  0.71031140  0.61554732  0.52238563  1
  O  O189  1  0.74207969  0.58935324  1.00597451  1
  O  O190  1  0.24227195  0.36551596  -0.07147191  1
  O  O191  1  0.27638566  0.31931122  0.58031583  1
  O  O192  1  0.28901617  0.84980610  -0.00208286  1
  O  O193  1  0.24997626  0.81702025  0.50653630  1
  O  O194  1  0.72560544  0.33199207  -0.01839973  1
  O  O195  1  0.71836688  0.32394270  0.54538143  1
  O  O196  1  0.74473406  0.87233884  0.06811546  1
  O  O197  1  0.70751409  0.92910613  0.48493748  1
  O  O198  1  0.09582705  0.51013786  0.24767136  1
  O  O199  1  0.13208861  0.64819673  0.78390556  1
  O  O200  1  0.11018561  1.00271985  0.21098747  1
  O  O201  1  0.13279458  0.98293331  0.79765616  1
  O  O202  1  0.69508489  0.41566119  0.22912676  1
  O  O203  1  0.69447710  0.53236345  0.73743852  1
  O  O204  1  0.66629439  1.03597795  0.24910307  1
  O  O205  1  0.57283150  1.08971840  0.62961241  1
  O  O206  1  0.38322507  0.00480888  0.22316692  1
  O  O207  1  0.37164729  -0.01088413  0.74029776  1
  O  O208  1  0.38766347  0.43014372  0.30513908  1
  O  O209  1  0.43301828  0.56151449  0.80793641  1
  O  O210  1  0.88213764  0.00122338  0.29038202  1
  O  O211  1  0.86320259  -0.07010757  0.72875304  1
  O  O212  1  0.88128092  0.45951674  0.16697705  1
  O  O213  1  0.96417814  0.52823814  0.90741258  1
  O  O214  1  0.06271399  0.41484643  0.40406510  1
  O  O215  1  0.04555858  0.39545051  0.91208064  1
  O  O216  1  0.10376520  0.79294699  0.29935648  1
  O  O217  1  0.15882275  0.85710165  0.87706081  1
  O  O218  1  0.66367522  0.41408146  0.39749676  1
  O  O219  1  0.68435226  0.51898035  0.80457365  1
  O  O220  1  0.64536845  0.89140145  0.34807241  1
  O  O221  1  0.61204414  0.75678355  0.84533359  1
  O  O222  1  0.38062260  0.12879683  0.11652014  1
  O  O223  1  0.24822145  0.03862336  0.63106092  1
  O  O224  1  0.26655112  0.88122917  0.29806807  1
  O  O225  1  0.41339891  0.68357568  0.64219464  1
  O  O226  1  0.92614039  0.07428084  0.17471172  1
  O  O227  1  0.87475311  0.11316322  0.64256018  1
  O  O228  1  0.89711482  0.56716915  0.04589312  1
  O  O229  1  0.90655841  0.56734976  0.57266100  1
  O  O230  1  0.23691523  0.26987993  0.06665295  1
  O  O231  1  0.20741915  0.22372120  0.64364281  1
  O  O232  1  0.27682751  0.94761716  0.31425315  1
  O  O233  1  0.24600289  0.75988455  0.65860711  1
  O  O234  1  0.80387500  0.26157962  0.08634761  1
  O  O235  1  0.70606579  0.18652944  0.62052200  1
  O  O236  1  0.78366428  0.75541896  0.18167985  1
  O  O237  1  0.67025330  0.81170693  0.56130673  1
  O  O238  1  0.18177941  0.30056912  0.46038615  1
  O  O239  1  0.24523965  0.21230725  0.87189211  1
  O  O240  1  0.23416661  0.73002338  0.37014276  1
  O  O241  1  0.30329998  0.70879328  0.90835490  1
  O  O242  1  0.78038839  0.24229067  0.35841925  1
  O  O243  1  0.73864525  0.19379470  0.91228200  1
  O  O244  1  0.73859085  0.74174988  0.41872101  1
  O  O245  1  0.76541601  0.73518773  0.76704034  1
  O  O246  1  -0.06465141  0.14575951  0.02791225  1
  O  O247  1  -0.02289719  0.10987395  0.51978434  1
  O  O248  1  0.08527596  0.64829903  0.06593431  1
  O  O249  1  0.01549094  0.56827164  0.45340603  1
  O  O250  1  0.46629463  0.10352743  -0.01815052  1
  O  O251  1  0.53763840  0.16437498  0.33966123  1
  O  O252  1  0.58441057  0.54535087  0.04702606  1
  O  O253  1  0.47535420  0.62483020  0.50791309  1
  O  O254  1  0.46439955  0.36747847  0.59218547  1
  O  O255  1  0.50235116  0.38775655  1.00366291  1
  O  O256  1  0.45462542  0.82766084  0.55015353  1
  O  O257  1  0.48350538  0.91411991  1.00257663  1
  O  O258  1  0.91244942  0.39189097  0.50527700  1
  O  O259  1  1.04537723  0.38580715  0.98104262  1
  O  O260  1  1.08711158  0.81868745  0.36434178  1
  O  O261  1  1.00191388  0.77898155  1.04102295  1
  O  O262  1  0.46788144  0.40853328  0.43811464  1
  O  O263  1  0.49735564  0.49596304  0.92948832  1
  O  O264  1  0.39884384  1.04934716  0.28426458  1
  O  O265  1  0.46056195  0.99650893  0.87954607  1
  O  O266  1  1.00339653  0.34501862  0.19992989  1
  O  O267  1  1.02520578  0.55755269  0.92392509  1
  O  O268  1  0.97481681  0.97365715  0.41130072  1
  O  O269  1  1.01116831  0.94646948  0.88756131  1
  O  O270  1  0.03058025  -0.03345082  0.10210119  1
  O  O271  1  -0.02529854  -0.03822819  0.58959795  1
  O  O272  1  0.04974163  0.49269327  0.10089942  1
  O  O273  1  0.04201914  0.48488198  0.59310888  1
  O  O274  1  0.51527177  0.03789703  0.09142863  1
  O  O275  1  0.44242412  0.01731509  0.57512572  1
  O  O276  1  0.50136601  0.44923532  0.13747264  1
  O  O277  1  0.47215165  0.50717190  0.64214065  1
  O  O278  1  0.26579577  0.30729365  0.22766340  1
  O  O279  1  0.24415086  0.51935617  0.81194778  1
  O  O280  1  0.11684482  0.89831142  0.37915349  1
  O  O281  1  0.20633411  0.91349430  0.69188152  1
  O  O282  1  0.81310827  0.35523491  0.21416098  1
  O  O283  1  0.69868254  0.33784273  0.78405188  1
  O  O284  1  0.77303359  0.91315529  0.24112169  1
  O  O285  1  0.72886209  0.87158817  0.67777137  1
  O  O286  1  0.20330357  0.17817348  0.29553784  1
  O  O287  1  0.23101589  0.09981143  0.77797106  1
  O  O288  1  0.24065507  0.60467740  0.28483008  1
  O  O289  1  0.11205686  0.70924988  0.75607831  1
  O  O290  1  0.79840241  0.11757484  0.27120269  1
  O  O291  1  0.77513024  0.06259261  0.74503418  1
  O  O292  1  0.76065124  0.54998128  0.18897182  1
  O  O293  1  0.84074352  0.55948340  0.80486155  1
  O  O294  1  0.34695101  0.09458148  0.30342745  1
  O  O295  1  0.36668623  0.12364110  0.86726622  1
  O  O296  1  0.35234240  0.54905079  0.38154406  1
  O  O297  1  0.45787939  0.65060217  0.93767768  1
  O  O298  1  0.88204318  0.12705353  0.38251622  1
  O  O299  1  0.89398145  0.10251681  0.84996020  1
  O  O300  1  0.82548840  0.59593598  0.41967120  1
  O  O301  1  0.84512762  0.69323828  0.88911238  1
  O  O302  1  0.17267129  0.40637931  0.14486646  1
  O  O303  1  0.19349510  0.43521079  0.68601487  1
  O  O304  1  0.16514652  0.90105052  0.12957509  1
  O  O305  1  0.12667794  0.84307495  0.58064944  1
  O  O306  1  0.61501778  0.33641434  0.11994618  1
  O  O307  1  0.62651177  0.40771456  0.66922587  1
  O  O308  1  0.65735031  0.84445078  0.18723989  1
  O  O309  1  0.57823026  0.93825046  0.59227241  1
  O  O310  1  0.06250120  0.19802062  0.18896474  1
  O  O311  1  0.12437781  0.25344273  0.79212565  1
  O  O312  1  0.01491854  0.64594065  0.26685864  1
  O  O313  1  -0.05662351  0.67822097  0.75271446  1
  O  O314  1  0.56011776  0.30615337  0.28858755  1
  O  O315  1  0.58062393  0.26377398  0.71179954  1
  O  O316  1  0.54767611  0.77454387  0.27333495  1
  O  O317  1  0.73104340  0.67544116  0.77366979  1
  O  O318  1  0.41000883  0.25235133  0.32415070  1
  O  O319  1  0.33304698  0.24804539  0.74184950  1
  O  O320  1  0.50700417  0.58834575  0.26795288  1
  O  O321  1  0.47207139  0.74502601  0.78614390  1
  O  O322  1  0.92138292  0.20813282  0.25452118  1
  O  O323  1  0.82540693  0.21202328  0.75188002  1
  O  O324  1  0.94993806  0.84164607  0.28768721  1
  O  O325  1  0.81168713  0.71136602  0.60216080  1
  O  O326  1  0.37832191  0.48766083  0.51111984  1
  O  O327  1  0.42003496  0.54196173  1.05303076  1
  O  O328  1  0.26602883  1.03181941  0.45671564  1
  O  O329  1  0.35189611  0.97860722  1.02294565  1
  O  O330  1  0.77192735  0.44961887  0.54119959  1
  O  O331  1  0.89977994  0.68071502  0.92950533  1
  O  O332  1  0.86927989  1.00713564  0.49108861  1
  O  O333  1  0.85135193  0.99889039  1.01001699  1
  O  O334  1  0.15464573  -0.03423686  0.01600630  1
  O  O335  1  0.09427277  0.00843546  0.50159230  1
  O  O336  1  0.19698141  0.56532736  0.11846278  1
  O  O337  1  0.19539594  0.46877344  0.50856028  1
  O  O338  1  0.59833107  0.01866631  -0.05949632  1
  O  O339  1  0.57645866  0.04963872  0.46706917  1
  O  O340  1  0.78167749  0.46415483  -0.08489613  1
  O  O341  1  0.57160794  0.46433033  0.53065966  1
  O  O342  1  0.33021576  0.39234856  0.11427438  1
  O  O343  1  0.34734338  0.43676862  0.72347176  1
  O  O344  1  0.39998835  0.88558553  0.13094539  1
  O  O345  1  0.31873400  0.88874512  0.59373846  1
  O  O346  1  0.88179186  0.41576598  0.01094066  1
  O  O347  1  0.83943807  0.35557940  0.64798944  1
  O  O348  1  0.87212426  0.88729182  0.13213728  1
  O  O349  1  0.82526502  0.85397148  0.54855367  1
  O  O350  1  0.14118057  0.17445345  0.32827282  1
  O  O351  1  0.09000601  0.12199626  0.88378665  1
  O  O352  1  -0.03310694  0.59348554  0.31544054  1
  O  O353  1  0.15299815  0.65373158  0.86999872  1
  O  O354  1  0.67515446  0.12436504  0.37001146  1
  O  O355  1  0.63198584  0.12208215  0.79917016  1
  O  O356  1  0.67573467  0.61023851  0.36258682  1
  O  O357  1  0.62980748  0.61538670  0.90720190  1
