# generated using pymatgen
data_V51Zn51O256
_symmetry_space_group_name_H-M   'P 1'
_cell_length_a   17.28134201
_cell_length_b   17.55966049
_cell_length_c   17.58099271
_cell_angle_alpha   89.87238731
_cell_angle_beta   88.92065203
_cell_angle_gamma   88.46124458
_symmetry_Int_Tables_number   1
_chemical_formula_structural   V51Zn51O256
_chemical_formula_sum   'V51 Zn51 O256'
_cell_volume   5332.15328307
_cell_formula_units_Z   1
loop_
 _symmetry_equiv_pos_site_id
 _symmetry_equiv_pos_as_xyz
  1  'x, y, z'
loop_
 _atom_site_type_symbol
 _atom_site_label
 _atom_site_symmetry_multiplicity
 _atom_site_fract_x
 _atom_site_fract_y
 _atom_site_fract_z
 _atom_site_occupancy
  V  V0  1  0.63822456  0.58574606  -0.00020106  1
  V  V1  1  0.76437066  0.52544597  0.24793323  1
  V  V2  1  0.38961876  0.00377178  0.89990679  1
  V  V3  1  0.38860399  0.53755607  0.37692333  1
  V  V4  1  0.00683332  0.77450467  0.77855564  1
  V  V5  1  0.02232961  0.48089043  -0.00521421  1
  V  V6  1  0.25604856  0.93173728  0.11593198  1
  V  V7  1  0.39324248  0.41232995  0.02093588  1
  V  V8  1  0.88812017  0.63188775  0.54070025  1
  V  V9  1  -0.03119192  0.39026831  0.83480090  1
  V  V10  1  0.72483297  0.73051189  0.49472073  1
  V  V11  1  0.28697434  0.14839126  0.83012065  1
  V  V12  1  0.89019936  0.11576922  0.31029014  1
  V  V13  1  0.63826858  0.84778425  0.75865968  1
  V  V14  1  -0.00009514  0.36979967  0.41136488  1
  V  V15  1  0.73483515  0.01485283  0.26387130  1
  V  V16  1  0.12269510  0.51001256  0.16254358  1
  V  V17  1  0.58941393  0.51822333  0.60858161  1
  V  V18  1  0.36061288  0.73407818  0.13503034  1
  V  V19  1  0.63216132  0.25971936  0.37093782  1
  V  V20  1  0.37819817  0.24796295  0.57925841  1
  V  V21  1  0.88872348  0.22865062  0.10375045  1
  V  V22  1  0.80874352  0.34096919  0.58145178  1
  V  V23  1  0.25312769  0.37149011  0.16702496  1
  V  V24  1  0.48945912  0.38275876  0.37024823  1
  V  V25  1  0.63418770  0.85003439  0.21050117  1
  V  V26  1  -0.00169041  0.14231677  0.65323229  1
  V  V27  1  0.67162185  0.38057560  0.25091209  1
  V  V28  1  0.59446874  0.72144568  0.88367348  1
  V  V29  1  0.47008480  0.26074820  0.72439028  1
  V  V30  1  -0.01343083  0.25101193  0.26778014  1
  V  V31  1  0.36594143  0.71100798  0.64035630  1
  V  V32  1  0.13427238  0.25256172  0.38685705  1
  V  V33  1  -0.02356277  0.92710748  0.44582944  1
  V  V34  1  0.49226748  0.11851567  0.12752550  1
  V  V35  1  0.38056510  0.07222599  0.26212304  1
  V  V36  1  0.50719519  0.62211026  0.11035213  1
  V  V37  1  0.88549244  0.39029394  0.02603302  1
  V  V38  1  0.11860686  0.63664488  0.03224479  1
  V  V39  1  0.16164795  0.89750792  0.27141810  1
  V  V40  1  0.26187080  0.54812936  0.26567367  1
  V  V41  1  0.48401859  0.85336373  0.86107578  1
  V  V42  1  0.86496152  0.48539711  0.38786672  1
  V  V43  1  0.73193512  0.22466268  0.49737178  1
  V  V44  1  0.46259172  0.27206820  0.21497951  1
  V  V45  1  0.24650654  0.65866251  0.92549000  1
  V  V46  1  0.74475726  0.13304638  0.82260493  1
  V  V47  1  0.40072226  0.88734483  0.03277792  1
  V  V48  1  0.39218526  0.07970700  0.68575877  1
  V  V49  1  0.51257313  0.74243811  0.24299513  1
  V  V50  1  0.76581963  0.76445964  0.00212244  1
  Zn  Zn51  1  0.57322099  0.44151828  0.09260125  1
  Zn  Zn52  1  0.31948099  0.52044489  0.55899057  1
  Zn  Zn53  1  0.83168964  0.04210993  0.08928159  1
  Zn  Zn54  1  0.21430593  0.14579649  0.65234498  1
  Zn  Zn55  1  0.93438883  0.43223470  0.21141739  1
  Zn  Zn56  1  0.56154391  0.11575752  0.28465188  1
  Zn  Zn57  1  0.41905480  0.73853584  0.42990960  1
  Zn  Zn58  1  0.38191404  0.30628033  0.85021328  1
  Zn  Zn59  1  0.41938934  0.45561811  0.19435919  1
  Zn  Zn60  1  0.58059347  0.79783558  0.05274565  1
  Zn  Zn61  1  0.79762850  0.32673284  0.78559074  1
  Zn  Zn62  1  0.69351862  0.67317001  0.17066194  1
  Zn  Zn63  1  0.42201538  0.46053576  0.71391710  1
  Zn  Zn64  1  0.54386001  0.78905041  0.58745257  1
  Zn  Zn65  1  0.83817558  0.87385032  0.76319593  1
  Zn  Zn66  1  0.99169536  0.95699861  0.24092308  1
  Zn  Zn67  1  0.90903499  0.75222914  0.38243604  1
  Zn  Zn68  1  0.07226553  0.52943967  0.34664501  1
  Zn  Zn69  1  0.30897359  0.56726196  0.07914157  1
  Zn  Zn70  1  0.27867995  0.38377856  0.36669821  1
  Zn  Zn71  1  0.55040039  0.55752361  0.81838590  1
  Zn  Zn72  1  0.07875544  0.30469670  0.56656358  1
  Zn  Zn73  1  0.47097465  0.94380309  0.17842302  1
  Zn  Zn74  1  0.77289502  0.87108675  0.35617594  1
  Zn  Zn75  1  0.34642305  0.88812626  0.73382806  1
  Zn  Zn76  1  0.11774264  0.86124645  0.56916990  1
  Zn  Zn77  1  0.79999557  0.04558373  0.44072533  1
  Zn  Zn78  1  0.80478372  0.93629003  0.94942861  1
  Zn  Zn79  1  0.75765762  0.20972932  0.23882084  1
  Zn  Zn80  1  0.27301559  0.21985405  0.26633728  1
  Zn  Zn81  1  0.92768458  0.20170806  0.47079792  1
  Zn  Zn82  1  0.68623770  0.42828339  0.43650070  1
  Zn  Zn83  1  0.15452836  0.78595036  0.13584530  1
  Zn  Zn84  1  0.71555347  0.42702464  0.94621230  1
  Zn  Zn85  1  0.55420024  0.53672430  0.26294131  1
  Zn  Zn86  1  0.26464377  0.85878550  0.43547049  1
  Zn  Zn87  1  0.18819277  0.80031808  0.70273072  1
  Zn  Zn88  1  0.94669336  0.70415427  0.96946585  1
  Zn  Zn89  1  0.90919994  0.23405854  0.90640158  1
  Zn  Zn90  1  0.65077397  0.19190245  0.67764243  1
  Zn  Zn91  1  0.35164573  0.86276980  0.28379622  1
  Zn  Zn92  1  0.05295884  0.59517829  0.87092895  1
  Zn  Zn93  1  0.33745205  0.11709846  0.51125752  1
  Zn  Zn94  1  0.83164389  0.31924389  0.33814871  1
  Zn  Zn95  1  0.07534876  0.06876940  0.33982868  1
  Zn  Zn96  1  0.43073493  0.21397285  0.37825128  1
  Zn  Zn97  1  0.82972356  0.56167458  0.06102923  1
  Zn  Zn98  1  0.26170584  0.86326815  0.90318761  1
  Zn  Zn99  1  0.92254849  0.47156997  0.65562169  1
  Zn  Zn100  1  0.55792051  0.32813840  0.54942801  1
  Zn  Zn101  1  0.55226662  0.02492669  0.78444078  1
  O  O102  1  0.03807093  0.14853776  -0.02971970  1
  O  O103  1  0.10468611  0.14915499  0.65964007  1
  O  O104  1  0.11196710  0.61072617  0.13361476  1
  O  O105  1  0.13506990  0.76006583  0.61278267  1
  O  O106  1  0.66503967  0.17680199  0.06332413  1
  O  O107  1  0.62625261  0.08069239  0.63858312  1
  O  O108  1  0.62418654  0.61129134  0.10140204  1
  O  O109  1  0.55917452  0.60331276  0.56907375  1
  O  O110  1  0.39182271  0.36973322  0.37450044  1
  O  O111  1  0.36828532  0.36002831  0.94371698  1
  O  O112  1  0.31063735  0.97357920  0.44120314  1
  O  O113  1  0.40534593  0.85927420  0.92670396  1
  O  O114  1  0.87807391  0.38720064  0.41446678  1
  O  O115  1  0.91076290  0.39817654  0.92551242  1
  O  O116  1  0.87148937  0.89668652  0.46480539  1
  O  O117  1  0.85865307  0.91276009  0.86001982  1
  O  O118  1  0.25165027  0.01868192  0.42037021  1
  O  O119  1  0.31050977  -0.04089570  0.86645025  1
  O  O120  1  0.28285097  0.50550136  0.36512540  1
  O  O121  1  0.19225759  0.56445559  0.75654628  1
  O  O122  1  0.76644692  -0.01949604  0.36130920  1
  O  O123  1  0.79044383  0.04761588  0.79997371  1
  O  O124  1  0.76202608  0.48821139  0.37906355  1
  O  O125  1  0.76515451  0.55297971  0.77294235  1
  O  O126  1  0.24527597  0.53163401  0.16261094  1
  O  O127  1  0.23894724  0.42267212  0.53783777  1
  O  O128  1  0.24487571  1.02374172  0.11344879  1
  O  O129  1  0.20970346  1.02711505  0.60245678  1
  O  O130  1  0.78241898  0.51602955  0.15317885  1
  O  O131  1  0.68552335  0.53427992  0.62663145  1
  O  O132  1  0.77514622  1.00250582  0.17519406  1
  O  O133  1  0.68245870  1.03765386  0.61987836  1
  O  O134  1  -0.05142749  0.34654677  0.28331910  1
  O  O135  1  -0.05113580  0.44086955  0.75234067  1
  O  O136  1  -0.04564872  0.90133831  0.33753428  1
  O  O137  1  0.02317449  0.87002710  0.78847181  1
  O  O138  1  0.48132456  0.36940498  0.23666826  1
  O  O139  1  0.42935730  0.35488686  0.74666128  1
  O  O140  1  0.53236960  0.86255871  0.22665053  1
  O  O141  1  0.44792894  0.84888578  0.77365399  1
  O  O142  1  0.53379838  0.18793316  0.19795405  1
  O  O143  1  0.48223612  0.08512409  0.72741968  1
  O  O144  1  0.51674736  0.64242565  0.23439714  1
  O  O145  1  0.45242149  0.52753883  0.79129764  1
  O  O146  1  0.99012873  0.14220275  0.29350774  1
  O  O147  1  0.98107203  0.16090863  0.74762357  1
  O  O148  1  1.01737104  0.63821576  0.29941648  1
  O  O149  1  1.01523935  0.66718201  0.79719882  1
  O  O150  1  0.23050894  0.17202639  0.02792297  1
  O  O151  1  0.39680899  0.20991072  0.48062926  1
  O  O152  1  0.38169443  0.78095018  0.05202780  1
  O  O153  1  0.36224250  0.72076880  0.53490382  1
  O  O154  1  0.89056649  0.27515214  0.00980445  1
  O  O155  1  0.83506645  0.25395731  0.52119969  1
  O  O156  1  0.86536876  0.76875876  0.00174207  1
  O  O157  1  0.82183661  0.70722569  0.44930961  1
  O  O158  1  0.13537180  0.25596401  0.48490643  1
  O  O159  1  0.06290246  0.21548140  0.97421440  1
  O  O160  1  -0.01062475  0.71366743  0.45212226  1
  O  O161  1  0.11019993  0.73174130  1.05059818  1
  O  O162  1  0.62492141  0.26776239  0.47480830  1
  O  O163  1  0.65698110  0.23309261  1.02222897  1
  O  O164  1  0.64230523  0.73778664  0.55562520  1
  O  O165  1  0.63919845  0.73595492  0.97725382  1
  O  O166  1  0.42606530  0.27082021  0.13069246  1
  O  O167  1  0.48044314  0.27489044  0.60344259  1
  O  O168  1  0.51782491  0.72429861  0.11777348  1
  O  O169  1  0.46993938  0.71914608  0.63229209  1
  O  O170  1  0.96984868  0.23915463  0.16800541  1
  O  O171  1  1.00860122  0.24786950  0.63411335  1
  O  O172  1  0.93518664  0.74139334  0.16898511  1
  O  O173  1  0.99848438  0.76565498  0.68067257  1
  O  O174  1  -0.01237571  0.26278954  0.39951523  1
  O  O175  1  -0.09728760  0.30332920  0.82097556  1
  O  O176  1  -0.00809304  0.84076311  0.37696838  1
  O  O177  1  -0.01221044  0.76455515  0.88229765  1
  O  O178  1  0.52259279  0.27811780  0.34983479  1
  O  O179  1  0.45934470  0.22586961  0.81538492  1
  O  O180  1  0.50027302  0.75477603  0.33521333  1
  O  O181  1  0.49615008  0.74330425  0.88453144  1
  O  O182  1  0.25713801  0.09239584  0.44141895  1
  O  O183  1  0.20451687  0.12568916  0.86974487  1
  O  O184  1  0.22162536  0.58031792  0.51864229  1
  O  O185  1  0.23249366  0.63005276  1.02639040  1
  O  O186  1  0.73996622  0.12874124  0.48499940  1
  O  O187  1  0.70576827  0.11481131  0.91236405  1
  O  O188  1  0.66691381  0.67781160  0.43728374  1
  O  O189  1  0.73694647  0.58848086  0.99786260  1
  O  O190  1  0.22218666  0.23718822  0.00517285  1
  O  O191  1  0.21400327  0.39803501  0.47632502  1
  O  O192  1  0.28585187  0.89539013  0.02111053  1
  O  O193  1  0.22014662  0.85676773  0.53152040  1
  O  O194  1  0.78817312  0.40982861  0.02591500  1
  O  O195  1  0.73664757  0.37849301  0.52379186  1
  O  O196  1  0.74037697  0.85734285  -0.01453474  1
  O  O197  1  0.75356649  0.81197773  0.54411245  1
  O  O198  1  0.14860664  0.51968879  0.26554707  1
  O  O199  1  0.06422795  0.59158143  0.60794443  1
  O  O200  1  0.09794472  0.98347533  0.26635873  1
  O  O201  1  0.12355581  1.01355582  0.80868167  1
  O  O202  1  0.66186908  0.49138512  0.25793521  1
  O  O203  1  0.58203597  0.54789657  0.70620969  1
  O  O204  1  0.64074196  1.04319138  0.25742461  1
  O  O205  1  0.62239949  0.94586486  0.75763197  1
  O  O206  1  0.39496771  -0.02684993  0.26862467  1
  O  O207  1  0.36759243  -0.01319814  0.70188044  1
  O  O208  1  0.36903980  0.53293978  0.25703204  1
  O  O209  1  0.33236932  0.47634958  0.65613050  1
  O  O210  1  0.90751876  0.02743971  0.26790770  1
  O  O211  1  0.87412759  -0.07366928  0.68007282  1
  O  O212  1  0.86861248  0.50530601  0.28090164  1
  O  O213  1  0.78530057  0.49119598  0.74491821  1
  O  O214  1  0.09524010  0.36045171  0.37610932  1
  O  O215  1  0.05196122  0.34526495  0.82971871  1
  O  O216  1  0.17914645  0.88363873  0.36454820  1
  O  O217  1  0.14326780  0.88108298  0.92748462  1
  O  O218  1  0.62234175  0.38181216  0.35157659  1
  O  O219  1  0.57344154  0.39302547  0.81116763  1
  O  O220  1  0.57651140  0.91763675  0.40251806  1
  O  O221  1  0.58911697  0.84703981  0.86274424  1
  O  O222  1  0.39329209  0.10415245  0.16642395  1
  O  O223  1  0.40445967  0.07636847  0.58798991  1
  O  O224  1  0.39333261  0.63510435  0.12017888  1
  O  O225  1  0.35271439  0.61504821  0.61131903  1
  O  O226  1  0.89414061  0.13324208  0.08804337  1
  O  O227  1  0.89880835  0.13402925  0.64449015  1
  O  O228  1  0.90738012  0.63960460  0.09903859  1
  O  O229  1  0.89737452  0.56704343  0.61168186  1
  O  O230  1  0.24703709  0.27474012  0.17277216  1
  O  O231  1  0.28207200  0.19185140  0.58197622  1
  O  O232  1  0.26428046  0.74276795  0.14792443  1
  O  O233  1  0.26494470  0.71951832  0.66790005  1
  O  O234  1  0.79897501  0.24363802  0.14254375  1
  O  O235  1  0.69991653  0.23288721  0.59010644  1
  O  O236  1  0.74571502  0.72892181  0.09212725  1
  O  O237  1  0.76613215  0.65286951  0.54884057  1
  O  O238  1  0.23082106  0.27673122  0.35756697  1
  O  O239  1  0.29073898  0.24523002  0.83634641  1
  O  O240  1  0.35086662  0.81609090  0.38329906  1
  O  O241  1  0.25955290  0.75467678  0.91340112  1
  O  O242  1  0.74108571  0.26773154  0.39426736  1
  O  O243  1  0.72749027  0.23799873  0.82942667  1
  O  O244  1  0.70762639  0.80027438  0.42101210  1
  O  O245  1  0.76374148  0.71494117  0.89958426  1
  O  O246  1  -0.02527210  0.13914875  -0.07445390  1
  O  O247  1  -0.00347768  0.15081392  0.54637053  1
  O  O248  1  0.02230526  0.62608711  -0.01429822  1
  O  O249  1  -0.01804237  0.64279496  0.47572839  1
  O  O250  1  0.49930292  0.14101702  0.03841678  1
  O  O251  1  0.51593888  0.06042891  0.45712288  1
  O  O252  1  0.51320165  0.60163902  0.01758567  1
  O  O253  1  0.56750911  0.63824079  0.39090994  1
  O  O254  1  0.51109883  0.38289640  0.46296584  1
  O  O255  1  0.48984569  0.39953749  1.03644500  1
  O  O256  1  0.50246703  0.77552313  0.49168817  1
  O  O257  1  0.49941916  0.87747740  1.04654427  1
  O  O258  1  1.01438159  0.37588233  0.50636387  1
  O  O259  1  1.03108844  0.38963047  1.01457178  1
  O  O260  1  1.02739615  0.88696529  0.51834767  1
  O  O261  1  0.92392505  0.89286177  1.10728882  1
  O  O262  1  0.48763257  0.48952419  0.34507759  1
  O  O263  1  0.60687651  0.44906008  0.83833505  1
  O  O264  1  0.50570999  0.91816759  0.39704848  1
  O  O265  1  0.48244254  0.97000833  0.85954123  1
  O  O266  1  0.98604684  0.47179647  0.37623701  1
  O  O267  1  1.02581344  0.49060483  0.89241688  1
  O  O268  1  1.02529603  1.00698842  0.41900416  1
  O  O269  1  1.04828944  0.95523652  0.97668029  1
  O  O270  1  -0.00757065  -0.09878375  0.14368186  1
  O  O271  1  0.01891668  0.04660546  0.65524874  1
  O  O272  1  0.02997437  0.48608891  0.18174285  1
  O  O273  1  0.06118539  0.52193525  0.61657957  1
  O  O274  1  0.53136758  0.02932345  0.14538128  1
  O  O275  1  0.50008992  -0.08767433  0.58023742  1
  O  O276  1  0.51085372  0.51895140  0.15530436  1
  O  O277  1  0.48813811  0.49121215  0.62226960  1
  O  O278  1  0.26703217  0.40153822  0.25665747  1
  O  O279  1  0.20443338  0.38682800  0.73763011  1
  O  O280  1  0.25844522  0.90291083  0.22914074  1
  O  O281  1  0.25435282  0.84632645  0.77475000  1
  O  O282  1  0.77100145  0.38228936  0.25711818  1
  O  O283  1  0.74173044  0.39117965  0.85177222  1
  O  O284  1  0.69972367  0.89878483  0.26597503  1
  O  O285  1  0.73707066  0.83765937  0.75092037  1
  O  O286  1  0.29163173  0.10854517  0.28673945  1
  O  O287  1  0.28749600  0.11303949  0.73137381  1
  O  O288  1  0.25399769  0.63832342  0.28352671  1
  O  O289  1  0.19501752  0.54011323  0.69082309  1
  O  O290  1  0.77976683  0.10987505  0.28382036  1
  O  O291  1  0.75182801  0.15988572  0.72261906  1
  O  O292  1  0.74789888  0.62077494  0.25470175  1
  O  O293  1  0.81686102  0.66251461  0.87111922  1
  O  O294  1  0.45294318  0.11024608  0.32217355  1
  O  O295  1  0.36979655  0.10024451  0.87886544  1
  O  O296  1  0.40134002  0.63215380  0.38666726  1
  O  O297  1  0.30898093  0.60647876  0.87693508  1
  O  O298  1  0.88778876  0.11384136  0.41036003  1
  O  O299  1  0.83525415  0.16005869  0.85928414  1
  O  O300  1  0.94632811  0.65577449  0.30892004  1
  O  O301  1  0.86795348  0.63093194  0.91813389  1
  O  O302  1  0.16468415  0.41252074  0.13629420  1
  O  O303  1  0.12073583  0.37494979  0.64131020  1
  O  O304  1  0.16288652  0.89620769  0.11549219  1
  O  O305  1  0.13764171  0.89479893  0.67199064  1
  O  O306  1  0.63655438  0.38097381  0.16036887  1
  O  O307  1  0.59911243  0.41433366  0.62125178  1
  O  O308  1  0.64905989  0.86176766  0.11726976  1
  O  O309  1  0.59348868  0.82226516  0.67544926  1
  O  O310  1  0.08288343  0.25962513  0.27435176  1
  O  O311  1  0.18621633  0.34833280  0.68085801  1
  O  O312  1  0.11694768  0.81814755  0.23929995  1
  O  O313  1  0.11155162  0.76200526  0.77621701  1
  O  O314  1  0.66705985  0.27299562  0.26600551  1
  O  O315  1  0.57141166  0.25191695  0.71667636  1
  O  O316  1  0.62800558  0.74927746  0.23108680  1
  O  O317  1  0.63109001  0.72952837  0.79464252  1
  O  O318  1  0.38575252  0.24504285  0.27663530  1
  O  O319  1  0.39283731  0.20362842  0.68081161  1
  O  O320  1  0.40617165  0.77475119  0.21826673  1
  O  O321  1  0.38826672  0.68330614  0.73241276  1
  O  O322  1  0.86949891  0.21989529  0.28884571  1
  O  O323  1  0.78527225  0.32919839  0.67772032  1
  O  O324  1  0.84001401  0.79595543  0.31700417  1
  O  O325  1  0.90182257  0.77956416  0.77165083  1
  O  O326  1  0.38498807  0.50829242  0.47056661  1
  O  O327  1  0.37063271  0.50644171  1.00739021  1
  O  O328  1  0.44602295  0.92930084  0.53665334  1
  O  O329  1  0.39945506  0.99181349  0.99741788  1
  O  O330  1  0.87504897  0.55053845  0.45873535  1
  O  O331  1  0.92164473  0.49707355  1.03314586  1
  O  O332  1  0.88047855  0.97126627  0.49249189  1
  O  O333  1  0.90669449  0.94666103  1.05669570  1
  O  O334  1  0.12030795  -0.05542139  -0.03417929  1
  O  O335  1  0.15990268  0.00569066  0.55727268  1
  O  O336  1  0.10722946  0.51597767  0.03870881  1
  O  O337  1  0.17175275  0.54496645  0.47348359  1
  O  O338  1  0.79742783  0.03286483  -0.01081154  1
  O  O339  1  0.56837502  0.04999549  0.50220762  1
  O  O340  1  0.62996007  0.48492787  -0.00156354  1
  O  O341  1  0.61134123  0.49229188  0.51230418  1
  O  O342  1  0.34296781  0.40127506  0.11708122  1
  O  O343  1  0.34167112  0.33424976  0.58123643  1
  O  O344  1  0.37331486  0.91434768  0.12930757  1
  O  O345  1  0.35617545  0.81289681  0.64496775  1
  O  O346  1  0.90534506  0.37368486  0.12181572  1
  O  O347  1  0.88295784  0.40102912  0.58362820  1
  O  O348  1  0.88638614  0.69106403  0.15724295  1
  O  O349  1  0.90298369  0.71416485  0.58178751  1
  O  O350  1  0.12865865  0.15663565  0.37050771  1
  O  O351  1  0.06015712  0.02546743  0.83968426  1
  O  O352  1  0.12795284  0.59077864  0.43077201  1
  O  O353  1  0.14833820  0.63161573  0.91332629  1
  O  O354  1  0.62204484  0.16465441  0.36280049  1
  O  O355  1  0.64673923  0.10848016  0.79817831  1
  O  O356  1  0.62015867  0.60586828  0.35539901  1
  O  O357  1  0.60384805  0.61258900  0.89667873  1
