# generated using pymatgen
data_V51Zn51O256
_symmetry_space_group_name_H-M   'P 1'
_cell_length_a   17.48643209
_cell_length_b   17.54718600
_cell_length_c   17.54032594
_cell_angle_alpha   91.68443189
_cell_angle_beta   89.57018266
_cell_angle_gamma   89.89798970
_symmetry_Int_Tables_number   1
_chemical_formula_structural   V51Zn51O256
_chemical_formula_sum   'V51 Zn51 O256'
_cell_volume   5379.54504142
_cell_formula_units_Z   1
loop_
 _symmetry_equiv_pos_site_id
 _symmetry_equiv_pos_as_xyz
  1  'x, y, z'
loop_
 _atom_site_type_symbol
 _atom_site_label
 _atom_site_symmetry_multiplicity
 _atom_site_fract_x
 _atom_site_fract_y
 _atom_site_fract_z
 _atom_site_occupancy
  V  V0  1  0.32252983  0.46489879  0.38916086  1
  V  V1  1  0.25419322  0.63636582  0.81892182  1
  V  V2  1  0.75537559  0.25366792  0.02454551  1
  V  V3  1  0.64794300  0.41950281  0.61940536  1
  V  V4  1  0.26302979  0.12219412  0.36346328  1
  V  V5  1  0.81034031  0.15950343  0.30321839  1
  V  V6  1  0.39946783  0.74937822  0.64655429  1
  V  V7  1  0.00170745  0.57943943  0.61236758  1
  V  V8  1  0.77520890  0.88604276  0.12041082  1
  V  V9  1  0.51541164  0.46600587  0.52139594  1
  V  V10  1  0.34441161  0.81502062  0.51171980  1
  V  V11  1  0.77177734  0.76873929  0.49109156  1
  V  V12  1  0.64479718  0.11827885  0.02399238  1
  V  V13  1  -0.01113340  0.13218199  0.11132459  1
  V  V14  1  0.26263456  0.25150087  0.50291183  1
  V  V15  1  0.07438468  0.33688691  0.66352359  1
  V  V16  1  0.92225860  -0.01259652  0.35766138  1
  V  V17  1  0.51265615  -0.00683769  0.47894549  1
  V  V18  1  -0.01124857  0.40050297  0.38829230  1
  V  V19  1  0.36339932  0.11616766  0.20565157  1
  V  V20  1  0.14971929  0.09346960  0.51949804  1
  V  V21  1  0.12546142  0.25555883  0.37102433  1
  V  V22  1  0.85831497  0.37800879  0.48177165  1
  V  V23  1  0.86520488  0.58782710  0.74420390  1
  V  V24  1  0.83431041  0.41197771  -0.01486628  1
  V  V25  1  0.61610976  0.72644590  0.36534252  1
  V  V26  1  0.38025149  -0.01599065  0.88429655  1
  V  V27  1  0.59896993  0.61309943  0.00064340  1
  V  V28  1  0.61440176  0.63458885  0.52586708  1
  V  V29  1  0.02336836  0.54726037  0.01893675  1
  V  V30  1  0.08037047  0.30258877  0.91520806  1
  V  V31  1  0.11728444  0.60050893  0.48172465  1
  V  V32  1  0.74716610  0.58905524  0.40718428  1
  V  V33  1  0.13662735  -0.02866558  0.14660823  1
  V  V34  1  0.92656094  0.24108438  0.58334867  1
  V  V35  1  0.75583452  0.74853995  0.01363814  1
  V  V36  1  0.49523745  0.86265316  0.85194103  1
  V  V37  1  0.10456025  0.39122041  0.23928835  1
  V  V38  1  0.50756672  0.35590543  0.36975050  1
  V  V39  1  0.37860609  0.75202928  0.13780249  1
  V  V40  1  0.62766857  0.75482158  0.86505784  1
  V  V41  1  0.00414498  0.87032410  0.91825408  1
  V  V42  1  0.71872646  -0.00633170  0.24470300  1
  V  V43  1  0.09445075  0.76328435  0.38773485  1
  V  V44  1  0.72912132  0.49506725  0.23823754  1
  V  V45  1  0.21171105  0.00344901  0.80946502  1
  V  V46  1  0.39504388  0.34555219  0.53165171  1
  V  V47  1  0.39402637  0.59258157  0.73520625  1
  V  V48  1  0.85409107  0.62189524  0.24644810  1
  V  V49  1  0.47770679  0.35449357  0.89485714  1
  V  V50  1  0.22481288  0.18583384  0.86549234  1
  Zn  Zn51  1  -0.01574630  0.32414099  0.09377809  1
  Zn  Zn52  1  0.25118677  0.76109219  0.29499817  1
  Zn  Zn53  1  0.95006840  0.39913428  0.81954260  1
  Zn  Zn54  1  0.79992065  0.08654850  0.11727647  1
  Zn  Zn55  1  0.77340202  0.57996616  0.07533021  1
  Zn  Zn56  1  0.08209703  0.08112218  0.28458136  1
  Zn  Zn57  1  0.43224181  0.56816785  0.06164536  1
  Zn  Zn58  1  0.92967703  0.21681112  0.92094561  1
  Zn  Zn59  1  0.03673357  0.56276849  0.31112942  1
  Zn  Zn60  1  0.91104459  0.46804932  0.15525328  1
  Zn  Zn61  1  0.68414386  0.39883002  0.42754215  1
  Zn  Zn62  1  0.70705344  0.69530346  0.67635683  1
  Zn  Zn63  1  0.55677612  0.71159786  0.18320320  1
  Zn  Zn64  1  0.29184130  0.82152179  0.80909568  1
  Zn  Zn65  1  0.74191322  0.76198429  0.23427516  1
  Zn  Zn66  1  0.81447202  0.11780538  0.47395954  1
  Zn  Zn67  1  0.92243066  0.67887881  0.92119034  1
  Zn  Zn68  1  0.98187040  0.14505659  0.41650490  1
  Zn  Zn69  1  0.35182917  0.92083602  0.25687991  1
  Zn  Zn70  1  0.90311505  0.41944623  0.65453565  1
  Zn  Zn71  1  0.19627578  0.57639447  0.64241145  1
  Zn  Zn72  1  0.89847728  0.78801491  0.35519036  1
  Zn  Zn73  1  0.13761628  0.83858990  0.02942419  1
  Zn  Zn74  1  0.18925515  0.18201205  0.68459027  1
  Zn  Zn75  1  0.66624454  0.91818891  0.96211084  1
  Zn  Zn76  1  0.74290597  0.26458231  0.55434132  1
  Zn  Zn77  1  0.93285141  0.66836908  0.45521389  1
  Zn  Zn78  1  0.57171245  0.12992882  0.21861134  1
  Zn  Zn79  1  0.31399801  0.62465352  0.50359245  1
  Zn  Zn80  1  0.15706421  0.89063711  0.49970428  1
  Zn  Zn81  1  0.38928430  0.16922176  0.90222295  1
  Zn  Zn82  1  0.27631907  0.07267761  0.03033584  1
  Zn  Zn83  1  0.65791144  0.42460260  0.94410243  1
  Zn  Zn84  1  0.06071299  0.07922979  0.92854531  1
  Zn  Zn85  1  0.47712614  0.65062062  0.87683446  1
  Zn  Zn86  1  0.43783726  0.17722912  0.42936472  1
  Zn  Zn87  1  0.23880996  0.24722417  0.22703817  1
  Zn  Zn88  1  0.45756763  0.41196767  0.69521888  1
  Zn  Zn89  1  0.13220489  0.49036117  0.89652044  1
  Zn  Zn90  1  0.55023505  0.25147375  0.02491679  1
  Zn  Zn91  1  0.84166319  0.35327272  0.27677485  1
  Zn  Zn92  1  0.69897541  0.28869607  0.21991105  1
  Zn  Zn93  1  0.15172130  0.40499493  0.48352896  1
  Zn  Zn94  1  0.93723179  0.97340377  0.16501646  1
  Zn  Zn95  1  0.53299757  0.04729691  0.93249568  1
  Zn  Zn96  1  0.42717155  0.77243486  0.33171682  1
  Zn  Zn97  1  0.67798297  0.91351465  0.41455513  1
  Zn  Zn98  1  0.57363182  0.53142392  0.35359573  1
  Zn  Zn99  1  0.18125166  0.93329248  0.33423215  1
  Zn  Zn100  1  0.36084339  0.28448589  0.33433142  1
  Zn  Zn101  1  0.42113445  0.46545552  0.22833958  1
  O  O102  1  0.16048376  0.19447031  0.12654804  1
  O  O103  1  0.15381291  0.10305946  0.61641317  1
  O  O104  1  0.13346081  0.68567939  0.07057902  1
  O  O105  1  0.08705500  0.58591054  0.65938214  1
  O  O106  1  0.62082509  0.10786150  0.11447824  1
  O  O107  1  0.75442842  0.15972786  0.55400290  1
  O  O108  1  0.58619235  0.64687877  0.09265745  1
  O  O109  1  0.62045857  0.65216242  0.62097878  1
  O  O110  1  0.38019009  0.37927361  0.40155645  1
  O  O111  1  0.36428975  0.35837619  0.91540783  1
  O  O112  1  0.40721708  0.80427343  0.43702986  1
  O  O113  1  0.38656204  0.87753875  0.85477003  1
  O  O114  1  0.88414337  0.37081817  0.37589187  1
  O  O115  1  0.86459684  0.39633348  0.89353467  1
  O  O116  1  0.93286183  0.89096121  0.37230431  1
  O  O117  1  0.91140796  0.89181104  0.94134485  1
  O  O118  1  0.23832776  0.02879925  0.36622715  1
  O  O119  1  0.29123817  -0.18982162  0.95309721  1
  O  O120  1  0.22978880  0.44419525  0.41075266  1
  O  O121  1  0.30253790  0.50333827  0.94233917  1
  O  O122  1  0.73021480  -0.02462412  0.33880994  1
  O  O123  1  0.65200853  -0.00122876  0.77982550  1
  O  O124  1  0.73506887  0.49083056  0.39029087  1
  O  O125  1  0.69424139  0.46189099  0.84055865  1
  O  O126  1  0.21950625  0.56609140  0.14331810  1
  O  O127  1  0.23157913  0.46337881  0.66020534  1
  O  O128  1  0.19197517  1.02636007  0.08683408  1
  O  O129  1  0.16537099  0.99800780  0.72934602  1
  O  O130  1  0.71624508  0.51742922  0.14573509  1
  O  O131  1  0.72035311  0.47669824  0.63387034  1
  O  O132  1  0.74661145  0.98501059  0.12770257  1
  O  O133  1  0.85962009  0.99461326  0.61661400  1
  O  O134  1  -0.00137369  0.36740194  0.27322983  1
  O  O135  1  -0.01006895  0.37465368  0.71586992  1
  O  O136  1  0.03866002  0.78629832  0.18809036  1
  O  O137  1  0.00759862  0.88238404  0.82213398  1
  O  O138  1  0.48238500  0.39020130  0.28164197  1
  O  O139  1  0.46248835  0.36559684  0.79749604  1
  O  O140  1  0.43910104  0.87594847  0.29946445  1
  O  O141  1  0.51818425  0.89059094  0.76764280  1
  O  O142  1  0.46154969  0.12833796  0.21831772  1
  O  O143  1  0.61854541  0.10463288  0.67476343  1
  O  O144  1  0.48443030  0.57120971  0.27694820  1
  O  O145  1  0.48279740  0.60910386  0.77270536  1
  O  O146  1  1.03970663  0.12585017  0.19526412  1
  O  O147  1  0.97027394  0.12268139  0.89166821  1
  O  O148  1  0.94898845  0.61361675  0.27130003  1
  O  O149  1  0.93209958  0.62511460  0.67213203  1
  O  O150  1  0.42388355  0.29005149  0.13803001  1
  O  O151  1  0.37298072  0.24154719  0.50020927  1
  O  O152  1  0.33709670  0.78329770  0.05928077  1
  O  O153  1  0.33934224  0.72055687  0.54662939  1
  O  O154  1  0.84228952  0.25256662  -0.02527118  1
  O  O155  1  0.90934506  0.18824502  0.49728020  1
  O  O156  1  0.84730324  0.72971331  -0.00975707  1
  O  O157  1  0.87130429  0.76264145  0.46838473  1
  O  O158  1  0.16185934  0.28375287  0.46544102  1
  O  O159  1  0.05748300  0.30627378  1.00851371  1
  O  O160  1  0.12719095  0.72238336  0.46853405  1
  O  O161  1  0.17103814  0.72415701  1.02362954  1
  O  O162  1  0.62364201  0.19689246  0.45877600  1
  O  O163  1  0.65720180  0.23069245  0.99618960  1
  O  O164  1  0.59606294  0.71976670  0.48450830  1
  O  O165  1  0.59327316  0.87443112  1.11688893  1
  O  O166  1  0.45236089  0.23901057  0.09632745  1
  O  O167  1  0.56651563  0.22109791  0.49389733  1
  O  O168  1  0.47803999  0.75912831  0.10390411  1
  O  O169  1  0.49111790  0.76046230  0.65744092  1
  O  O170  1  0.94906796  0.22113792  0.10436753  1
  O  O171  1  1.02121277  0.26675242  0.60112179  1
  O  O172  1  1.01050053  0.72594326  0.16554575  1
  O  O173  1  0.93546882  0.79245069  0.69612648  1
  O  O174  1  0.03018401  0.24529412  0.37880891  1
  O  O175  1  -0.00877592  0.29933289  0.86864126  1
  O  O176  1  -0.00255839  0.73148269  0.37851242  1
  O  O177  1  -0.01652732  0.77393919  0.89385188  1
  O  O178  1  0.47109264  0.25867327  0.36478090  1
  O  O179  1  0.45887883  0.25421319  0.88570581  1
  O  O180  1  0.52069131  0.71706343  0.35338456  1
  O  O181  1  0.50887675  0.75924797  0.86058458  1
  O  O182  1  0.23614126  0.14032434  0.47470048  1
  O  O183  1  0.28753660  0.14941472  0.93978627  1
  O  O184  1  0.20754163  0.60876682  0.53535669  1
  O  O185  1  0.32897968  0.50693457  1.00786788  1
  O  O186  1  0.75635890  0.15196770  0.38276285  1
  O  O187  1  0.75121151  0.13997828  1.03491994  1
  O  O188  1  0.70843270  0.59480978  0.50596434  1
  O  O189  1  0.71348169  0.65687683  1.01879359  1
  O  O190  1  0.33051034  0.34012137  -0.02317794  1
  O  O191  1  0.28816382  0.35215630  0.52284513  1
  O  O192  1  0.25879169  0.85606771  -0.00337004  1
  O  O193  1  0.25962393  0.85453053  0.48789964  1
  O  O194  1  0.73912169  0.36353760  -0.01004809  1
  O  O195  1  0.76558975  0.33273899  0.46830829  1
  O  O196  1  0.74049161  0.86703971  0.02078979  1
  O  O197  1  0.74535301  0.86254560  0.48247014  1
  O  O198  1  0.09493162  0.48718417  0.25205976  1
  O  O199  1  0.12923470  0.42966401  0.73129955  1
  O  O200  1  0.14226351  0.99094063  0.24679364  1
  O  O201  1  0.15638001  1.04625711  0.88626604  1
  O  O202  1  0.63579598  0.49460280  0.26951107  1
  O  O203  1  0.62554653  0.42413306  0.73814233  1
  O  O204  1  0.62784995  1.02440572  0.23963607  1
  O  O205  1  0.62297812  1.05388259  0.81434531  1
  O  O206  1  0.35255673  0.02050476  0.22471907  1
  O  O207  1  0.32247750  0.01355886  0.80962275  1
  O  O208  1  0.33410946  0.48082657  0.29288233  1
  O  O209  1  0.39025096  0.49695843  0.71778854  1
  O  O210  1  0.88934503  -0.01038933  0.26487121  1
  O  O211  1  0.80654328  0.07728526  0.74811736  1
  O  O212  1  0.84539681  0.50662642  0.23544977  1
  O  O213  1  0.87085546  0.48727182  0.74012034  1
  O  O214  1  0.08913826  0.37993299  0.37544133  1
  O  O215  1  0.13390944  0.38025601  0.89229218  1
  O  O216  1  0.11369385  0.86353862  0.39616519  1
  O  O217  1  0.11294857  0.86012529  0.92413170  1
  O  O218  1  0.60521506  0.34476465  0.36931671  1
  O  O219  1  0.57698720  0.35412376  0.88677916  1
  O  O220  1  0.63300961  0.82391152  0.36898790  1
  O  O221  1  0.60430566  0.85729264  0.89290904  1
  O  O222  1  0.34191919  0.12102810  0.11047003  1
  O  O223  1  0.47026626  0.13699545  0.71077966  1
  O  O224  1  0.37430402  0.65455001  0.10431894  1
  O  O225  1  0.39889724  0.63887476  0.64757940  1
  O  O226  1  0.90786587  0.06767461  0.11017930  1
  O  O227  1  0.89669911  0.19487006  0.65683563  1
  O  O228  1  0.84223694  0.63176035  0.15081587  1
  O  O229  1  0.84151971  0.86768940  0.74016597  1
  O  O230  1  0.24673218  0.31550444  0.12409001  1
  O  O231  1  0.24402682  0.23017736  0.59414201  1
  O  O232  1  0.29808967  0.73328254  0.19404248  1
  O  O233  1  0.10214831  0.79075064  0.71736944  1
  O  O234  1  0.75918539  0.27657071  0.11708580  1
  O  O235  1  0.75760818  0.25110419  0.74963767  1
  O  O236  1  0.75492580  0.77457061  0.11810448  1
  O  O237  1  0.75364967  0.74341819  0.58404189  1
  O  O238  1  0.26869775  0.24058633  0.38304085  1
  O  O239  1  0.26521894  0.26598583  0.84249707  1
  O  O240  1  0.33505428  0.71323431  0.34173422  1
  O  O241  1  0.23110062  0.72931406  0.83966211  1
  O  O242  1  0.79697848  0.25038096  0.26626323  1
  O  O243  1  0.60056880  0.25748017  0.74623928  1
  O  O244  1  0.73132082  0.71441596  0.41391899  1
  O  O245  1  0.71390957  0.76474683  0.91875300  1
  O  O246  1  0.04839132  0.11269425  0.03412052  1
  O  O247  1  0.06653358  0.13386389  0.49082724  1
  O  O248  1  -0.00545147  0.63436201  -0.01276961  1
  O  O249  1  0.01382752  0.62983428  0.52118471  1
  O  O250  1  0.54849328  0.14387435  -0.01065956  1
  O  O251  1  0.46937959  0.08963657  0.48393653  1
  O  O252  1  0.49257856  0.60649990  -0.02130771  1
  O  O253  1  0.53359646  0.56591724  0.52158074  1
  O  O254  1  0.49271203  0.34891651  0.48964589  1
  O  O255  1  0.48864029  0.34094010  0.99702605  1
  O  O256  1  0.53499816  0.89456845  0.47645452  1
  O  O257  1  0.46563105  0.97776654  1.08013696  1
  O  O258  1  0.97052073  0.37380891  0.48260029  1
  O  O259  1  0.97947311  0.47616690  0.95257292  1
  O  O260  1  1.00620433  0.94684242  0.62332574  1
  O  O261  1  1.02555240  0.83168715  1.01619804  1
  O  O262  1  0.51498756  0.46303835  0.41331285  1
  O  O263  1  0.46933472  0.45204570  0.91258883  1
  O  O264  1  0.51586547  1.02000111  0.38012826  1
  O  O265  1  0.48679840  0.94797154  0.91729900  1
  O  O266  1  0.98182352  0.49550541  0.38537429  1
  O  O267  1  1.01005865  0.48431918  0.87764777  1
  O  O268  1  1.01059374  1.04050178  0.36201643  1
  O  O269  1  1.02060474  0.96787223  0.94225648  1
  O  O270  1  0.03999722  -0.02862763  0.12541576  1
  O  O271  1  0.07042919  -0.08391755  0.63291369  1
  O  O272  1  -0.00992807  0.52558661  0.10820964  1
  O  O273  1  -0.02913361  0.48985791  0.60011052  1
  O  O274  1  0.49174551  -0.01618903  0.14475560  1
  O  O275  1  0.53831837  0.02257258  0.57026375  1
  O  O276  1  0.52112565  0.59174357  0.21754908  1
  O  O277  1  0.54061573  0.44459051  0.62807862  1
  O  O278  1  0.21945361  0.41130191  0.20855974  1
  O  O279  1  0.20592692  0.42781134  0.71994250  1
  O  O280  1  0.26439014  0.87001641  0.29543851  1
  O  O281  1  0.22296205  0.90527582  0.82861887  1
  O  O282  1  0.74438712  0.39152510  0.24105129  1
  O  O283  1  0.68991041  0.41585231  0.77953539  1
  O  O284  1  0.73433153  0.88303909  0.21794503  1
  O  O285  1  0.70752060  0.97260436  0.63450937  1
  O  O286  1  0.26364838  0.13906103  0.25688076  1
  O  O287  1  0.22628240  0.13352506  0.77802924  1
  O  O288  1  0.23895863  0.57308856  0.21044435  1
  O  O289  1  0.26567036  0.61553077  0.72016851  1
  O  O290  1  0.77074268  0.08924981  0.23172470  1
  O  O291  1  0.76494515  0.10336417  0.69978831  1
  O  O292  1  0.75727819  0.59619928  0.29191636  1
  O  O293  1  0.77920123  0.62559570  0.72123271  1
  O  O294  1  0.36186342  0.12140279  0.36897896  1
  O  O295  1  0.43780348  0.07420470  0.88119738  1
  O  O296  1  0.34999861  0.54820628  0.43776636  1
  O  O297  1  0.35387202  0.62172043  0.83930377  1
  O  O298  1  0.90309107  0.15157924  0.32834502  1
  O  O299  1  0.78634074  -0.01348735  0.87137933  1
  O  O300  1  0.84350593  0.60560197  0.42251036  1
  O  O301  1  0.89277062  0.62382755  0.83140641  1
  O  O302  1  0.07911126  0.36622588  0.15074820  1
  O  O303  1  0.11965710  0.37903222  0.58955748  1
  O  O304  1  0.16433482  0.87696002  0.12575858  1
  O  O305  1  0.08943732  0.85491295  0.58462113  1
  O  O306  1  0.59194376  0.32997029  0.11705147  1
  O  O307  1  0.67851518  0.32515869  0.61896253  1
  O  O308  1  0.58752341  0.84582597  0.18049179  1
  O  O309  1  0.68592285  0.90676270  0.64177943  1
  O  O310  1  0.15108107  0.29544942  0.27582907  1
  O  O311  1  0.13029300  0.27445166  0.71033386  1
  O  O312  1  0.14734018  0.73286576  0.30862259  1
  O  O313  1  0.07979161  0.72884681  0.73960396  1
  O  O314  1  0.55851079  0.39114706  0.13296757  1
  O  O315  1  0.62681286  0.15107240  0.62496958  1
  O  O316  1  0.64083632  0.71836797  0.25772978  1
  O  O317  1  0.65714144  0.74281442  0.77394753  1
  O  O318  1  0.34957656  0.24206016  0.23097304  1
  O  O319  1  0.46911813  0.18305647  0.65945544  1
  O  O320  1  0.44555084  0.73131775  0.22376757  1
  O  O321  1  0.35192224  0.76856962  0.73120494  1
  O  O322  1  0.93892347  0.36661495  0.21673372  1
  O  O323  1  0.76176772  0.23033317  0.81574163  1
  O  O324  1  0.83905114  0.72685515  0.27953157  1
  O  O325  1  0.89360366  0.85151415  0.68954871  1
  O  O326  1  0.41711118  0.45643993  0.54159920  1
  O  O327  1  0.43273319  0.48754578  1.12591146  1
  O  O328  1  0.42266101  0.95320989  0.48497540  1
  O  O329  1  0.32826606  0.99156741  0.96530707  1
  O  O330  1  0.84203602  0.46581526  0.50588246  1
  O  O331  1  0.81202809  0.50616575  0.99790198  1
  O  O332  1  0.86321004  1.02841445  0.42912163  1
  O  O333  1  0.82700957  1.03576453  0.90206532  1
  O  O334  1  0.19029897  0.19395015  0.06275497  1
  O  O335  1  0.14843279  -0.00142462  0.49613592  1
  O  O336  1  0.11876067  0.53093742  0.00303119  1
  O  O337  1  0.10130129  0.50899199  0.50599653  1
  O  O338  1  0.64204741  0.02603087  -0.02663036  1
  O  O339  1  0.61957699  0.00018500  0.45933457  1
  O  O340  1  0.62687939  0.51922135  -0.00619324  1
  O  O341  1  0.62301531  0.43323245  0.51719105  1
  O  O342  1  0.24219720  0.38904772  0.13649664  1
  O  O343  1  0.41134957  0.33393948  0.62554125  1
  O  O344  1  0.37796253  0.85206676  0.16686885  1
  O  O345  1  0.38259755  0.84678703  0.59833793  1
  O  O346  1  0.89548662  0.39164177  0.06465368  1
  O  O347  1  0.86766363  0.33247178  0.58437314  1
  O  O348  1  0.87135090  0.88931596  0.12474389  1
  O  O349  1  0.86560627  0.94272024  0.56878619  1
  O  O350  1  0.14648542  0.15825042  0.34702806  1
  O  O351  1  0.12952920  0.21196674  0.89793045  1
  O  O352  1  0.11753977  0.59437306  0.38529983  1
  O  O353  1  0.19042560  0.57241292  0.85566629  1
  O  O354  1  0.61179327  0.22979102  0.23234452  1
  O  O355  1  0.59556695  0.20510775  0.79083268  1
  O  O356  1  0.63418380  0.61597613  0.38618253  1
  O  O357  1  0.60733332  0.66439344  0.90931165  1
