# generated using pymatgen
data_V51Zn51O256
_symmetry_space_group_name_H-M   'P 1'
_cell_length_a   17.40269169
_cell_length_b   17.40505354
_cell_length_c   17.43898268
_cell_angle_alpha   90.90268965
_cell_angle_beta   90.40875653
_cell_angle_gamma   90.48231664
_symmetry_Int_Tables_number   1
_chemical_formula_structural   V51Zn51O256
_chemical_formula_sum   'V51 Zn51 O256'
_cell_volume   5281.19466353
_cell_formula_units_Z   1
loop_
 _symmetry_equiv_pos_site_id
 _symmetry_equiv_pos_as_xyz
  1  'x, y, z'
loop_
 _atom_site_type_symbol
 _atom_site_label
 _atom_site_symmetry_multiplicity
 _atom_site_fract_x
 _atom_site_fract_y
 _atom_site_fract_z
 _atom_site_occupancy
  V  V0  1  0.75108271  0.46655803  0.23353390  1
  V  V1  1  0.22050235  0.22916095  0.49993473  1
  V  V2  1  0.79218763  -0.06009957  0.28995633  1
  V  V3  1  0.23721199  0.35047072  0.64060830  1
  V  V4  1  0.47364814  0.76318313  0.68118343  1
  V  V5  1  0.00250900  0.37649218  0.34412441  1
  V  V6  1  0.20162526  0.00919257  0.75618669  1
  V  V7  1  0.29230685  0.49078828  0.15780478  1
  V  V8  1  0.24535425  0.29105072  0.08029655  1
  V  V9  1  0.74706897  0.60689262  0.36403014  1
  V  V10  1  0.62770911  0.10673878  -0.02676425  1
  V  V11  1  0.32494043  -0.01155568  0.88628561  1
  V  V12  1  0.22508219  0.88370856  0.64256644  1
  V  V13  1  0.25334680  0.62235152  0.85371072  1
  V  V14  1  0.37363832  0.92950727  0.56516118  1
  V  V15  1  0.34521861  0.46856022  0.41344411  1
  V  V16  1  0.38812793  0.21618466  0.16674410  1
  V  V17  1  0.29030028  0.64911092  0.40239616  1
  V  V18  1  0.66550360  -0.02741461  0.12497782  1
  V  V19  1  0.73504410  0.26082153  0.52876538  1
  V  V20  1  0.64340831  0.41949454  0.73578470  1
  V  V21  1  0.01246471  0.67630324  0.25156720  1
  V  V22  1  0.50710648  0.20694863  0.28963579  1
  V  V23  1  0.01653617  0.48543840  -0.02407322  1
  V  V24  1  0.43875332  0.73142588  0.10382039  1
  V  V25  1  0.50177467  0.00075037  0.03203756  1
  V  V26  1  0.01662081  -0.10000642  0.38877822  1
  V  V27  1  0.52161437  0.48672738  0.49118715  1
  V  V28  1  0.61176525  0.88295797  0.28488891  1
  V  V29  1  0.32439643  0.13973425  0.74964441  1
  V  V30  1  0.49900335  0.36660435  0.37799415  1
  V  V31  1  0.90154658  0.76360256  0.54114893  1
  V  V32  1  -0.07252366  0.19676062  0.15554927  1
  V  V33  1  0.86208968  0.10403785  0.29846779  1
  V  V34  1  -0.00994081  0.01304080  0.02881423  1
  V  V35  1  -0.01255133  0.61470322  0.60808606  1
  V  V36  1  0.09569883  0.48027636  0.63072712  1
  V  V37  1  0.62543683  0.36297953  0.25803425  1
  V  V38  1  0.10453739  0.15911484  0.07505023  1
  V  V39  1  0.42436102  0.58212111  0.63410473  1
  V  V40  1  0.49122387  0.21191122  0.71612934  1
  V  V41  1  0.36943495  0.85421180  -0.01988930  1
  V  V42  1  0.88268400  0.57958945  0.22852927  1
  V  V43  1  0.12127140  0.25277195  0.35268609  1
  V  V44  1  0.87637230  0.47380748  0.39481808  1
  V  V45  1  0.25347923  0.16717504  0.95519526  1
  V  V46  1  0.66025651  0.75572507  0.85981153  1
  V  V47  1  0.13640902  0.61561468  0.51722332  1
  V  V48  1  -0.03275362  0.13376925  0.62343464  1
  V  V49  1  0.26331992  -0.04799995  0.25232970  1
  V  V50  1  0.72114333  0.97744817  0.63428244  1
  Zn  Zn51  1  0.27175543  0.07353605  0.58455790  1
  Zn  Zn52  1  0.93757785  0.65998401  0.91104788  1
  Zn  Zn53  1  0.22767983  0.30083117  0.83428546  1
  Zn  Zn54  1  0.71252533  0.60067158  0.74408686  1
  Zn  Zn55  1  0.03919131  0.30105011  0.54696056  1
  Zn  Zn56  1  0.84442536  0.49566644  0.86084659  1
  Zn  Zn57  1  0.30133757  0.05138266  0.06982688  1
  Zn  Zn58  1  0.42827510  0.39379837  0.71672951  1
  Zn  Zn59  1  0.33673702  0.27024489  0.37128360  1
  Zn  Zn60  1  0.16768142  0.41665129  0.45954511  1
  Zn  Zn61  1  0.69566539  0.76490657  0.65042620  1
  Zn  Zn62  1  0.78432998  0.63905426  0.56462580  1
  Zn  Zn63  1  0.59711764  0.22925705  0.12538941  1
  Zn  Zn64  1  0.80611539  0.08681874  0.04079933  1
  Zn  Zn65  1  0.43831865  0.93944058  0.75239481  1
  Zn  Zn66  1  0.81235957  0.29677973  0.32135272  1
  Zn  Zn67  1  0.37046898  0.24682578  0.58683051  1
  Zn  Zn68  1  0.11833423  0.05054794  0.36126875  1
  Zn  Zn69  1  0.80471405  0.67161162  0.06924513  1
  Zn  Zn70  1  0.86566631  0.76812724  0.33876414  1
  Zn  Zn71  1  0.63663393  0.76806412  0.07564622  1
  Zn  Zn72  1  0.04023645  0.57855847  0.79382851  1
  Zn  Zn73  1  0.92584135  0.39007616  0.17904623  1
  Zn  Zn74  1  0.96128643  0.63911793  0.41029905  1
  Zn  Zn75  1  0.15789787  0.20362522  0.69529575  1
  Zn  Zn76  1  0.70037033  0.22342358  0.73681010  1
  Zn  Zn77  1  0.45378161  0.37603325  0.17696454  1
  Zn  Zn78  1  0.73133208  0.75048205  0.23234679  1
  Zn  Zn79  1  0.68745560  0.43593781  0.42835126  1
  Zn  Zn80  1  0.31098428  0.68129313  0.22105719  1
  Zn  Zn81  1  0.96066602  0.29734177  1.01301234  1
  Zn  Zn82  1  0.98577441  0.18066767  0.42604345  1
  Zn  Zn83  1  0.30185644  0.81347065  0.77772767  1
  Zn  Zn84  1  0.21588683  0.90819784  0.45203960  1
  Zn  Zn85  1  0.16285495  0.78220289  0.15579608  1
  Zn  Zn86  1  0.08714640  0.77765224  0.56892106  1
  Zn  Zn87  1  0.44624168  0.71683075  0.85679347  1
  Zn  Zn88  1  0.85669069  0.29718581  0.84706049  1
  Zn  Zn89  1  0.55005516  0.87610779  0.59982949  1
  Zn  Zn90  1  0.70472379  0.11993262  0.22500798  1
  Zn  Zn91  1  0.27264789  0.51102994  0.58240930  1
  Zn  Zn92  1  0.22353826  0.45796360  0.98672429  1
  Zn  Zn93  1  0.98561831  1.00007781  0.22804364  1
  Zn  Zn94  1  0.51871286  0.03669783  0.22354455  1
  Zn  Zn95  1  0.48286152  0.08925067  0.86440975  1
  Zn  Zn96  1  0.29776887  0.72102079  0.58098761  1
  Zn  Zn97  1  0.68915300  0.94956895  0.45459209  1
  Zn  Zn98  1  0.55060653  0.30870266  0.56880564  1
  Zn  Zn99  1  0.27575751  0.64824573  0.05180957  1
  Zn  Zn100  1  0.10275129  0.87933126  -0.00970741  1
  Zn  Zn101  1  0.44430543  0.89434202  0.17152294  1
  O  O102  1  0.10874218  0.12475869  0.15973964  1
  O  O103  1  0.06385077  0.15157105  0.66785941  1
  O  O104  1  0.07847363  0.72093653  0.03389405  1
  O  O105  1  0.10776091  0.60272369  0.61942998  1
  O  O106  1  0.62001498  0.04927854  0.17786976  1
  O  O107  1  0.58610020  0.19662733  0.72990135  1
  O  O108  1  0.61165372  0.55072826  0.10366458  1
  O  O109  1  0.58117293  0.77232140  0.63067217  1
  O  O110  1  0.38635317  0.37692114  0.37516857  1
  O  O111  1  0.35975146  0.37087325  0.86365843  1
  O  O112  1  0.46334063  0.78056200  0.35067807  1
  O  O113  1  0.33311624  0.88462620  0.87240983  1
  O  O114  1  0.88817567  0.37171177  0.35530473  1
  O  O115  1  0.81205353  0.39584596  0.85020614  1
  O  O116  1  0.95266916  0.84154492  0.34123887  1
  O  O117  1  0.89392536  0.72577895  0.83968309  1
  O  O118  1  0.26022147  -0.08883258  0.34626931  1
  O  O119  1  0.22571014  -0.00539183  0.86443833  1
  O  O120  1  0.25249353  0.45113365  0.39372688  1
  O  O121  1  0.25422348  0.53412784  0.90572539  1
  O  O122  1  0.77722228  -0.06567761  0.38509494  1
  O  O123  1  0.93780219  0.11699848  0.86355454  1
  O  O124  1  0.76637499  0.47963346  0.36473617  1
  O  O125  1  0.77903157  0.56924563  0.81912548  1
  O  O126  1  0.26781317  0.53378091  0.06667998  1
  O  O127  1  0.21711263  0.45019867  0.66011458  1
  O  O128  1  0.26520913  0.98629931  0.15643751  1
  O  O129  1  0.21990138  0.99530000  0.64587828  1
  O  O130  1  0.74791842  0.45446131  0.14098775  1
  O  O131  1  0.71977904  0.65661842  0.65376918  1
  O  O132  1  0.75558095  0.99940268  0.10174517  1
  O  O133  1  0.67992256  1.06600700  0.62485344  1
  O  O134  1  0.01277068  0.39518387  0.25031247  1
  O  O135  1  -0.03279501  0.33834457  0.78499579  1
  O  O136  1  -0.05727133  0.84608339  0.16815781  1
  O  O137  1  0.06843784  0.84767970  0.83972164  1
  O  O138  1  0.50494466  0.37547968  0.27479851  1
  O  O139  1  0.53869674  0.43183318  0.74182709  1
  O  O140  1  0.52246264  0.92007828  0.24946090  1
  O  O141  1  0.50608039  0.86616812  0.70518820  1
  O  O142  1  0.51232313  0.11066393  0.30673086  1
  O  O143  1  0.43780498  0.14120182  0.77147212  1
  O  O144  1  0.54446210  0.56169113  0.11960806  1
  O  O145  1  0.47567305  0.65145442  0.68889001  1
  O  O146  1  0.93978858  0.11925677  0.22458283  1
  O  O147  1  0.90796422  0.14950499  0.69917016  1
  O  O148  1  0.98957595  0.57641758  0.22747673  1
  O  O149  1  0.98269118  0.62002218  0.70398090  1
  O  O150  1  0.49375055  0.34553052  -0.04768115  1
  O  O151  1  0.32692413  0.24637151  0.48643935  1
  O  O152  1  0.42311037  0.77899269  -0.05627801  1
  O  O153  1  0.42712841  0.82220382  0.39456512  1
  O  O154  1  0.74792656  0.28902277  0.00381109  1
  O  O155  1  0.82066840  0.28556198  0.57322480  1
  O  O156  1  0.87265002  0.69224306  -0.00988639  1
  O  O157  1  0.89948667  0.72975264  0.44379529  1
  O  O158  1  0.12008411  0.25457224  0.48478446  1
  O  O159  1  0.15085814  0.25743642  1.06481554  1
  O  O160  1  0.17384208  0.70765674  0.54328570  1
  O  O161  1  0.03082004  0.75113204  0.99051731  1
  O  O162  1  0.63188824  0.25439618  0.51067698  1
  O  O163  1  0.59527033  0.18595960  1.02259524  1
  O  O164  1  0.60198358  0.69086268  0.49988434  1
  O  O165  1  0.63517615  0.74579398  0.95885160  1
  O  O166  1  0.49876623  0.19656344  0.18413734  1
  O  O167  1  0.46526203  0.29618958  0.75824829  1
  O  O168  1  0.53682908  0.72553699  0.09053389  1
  O  O169  1  0.41421951  0.76826102  0.60732494  1
  O  O170  1  0.90634387  0.27946861  0.20323506  1
  O  O171  1  0.98256877  0.24060023  0.62468724  1
  O  O172  1  0.94123556  0.81301739  0.10601180  1
  O  O173  1  0.99160493  0.72742291  0.58956267  1
  O  O174  1  0.00361205  0.26843029  0.34735063  1
  O  O175  1  -0.08054004  0.25876908  0.92199646  1
  O  O176  1  0.04405096  0.68054951  0.34296300  1
  O  O177  1  0.03126458  0.67336833  0.85559786  1
  O  O178  1  0.48578313  0.26637517  0.38548196  1
  O  O179  1  0.53711653  0.29718425  0.92561491  1
  O  O180  1  0.59526670  0.72533857  0.43943042  1
  O  O181  1  0.55606314  0.74302577  0.83760463  1
  O  O182  1  0.21962552  0.13134751  0.50627052  1
  O  O183  1  0.20927159  0.11718978  1.03425762  1
  O  O184  1  0.32569461  0.70577759  0.47442786  1
  O  O185  1  0.22632154  0.65555167  0.95008846  1
  O  O186  1  0.74944091  0.16769294  0.50229495  1
  O  O187  1  0.72554584  0.10855376  0.96927857  1
  O  O188  1  0.75867556  0.61168439  0.46234867  1
  O  O189  1  0.73960213  0.57484839  1.01021836  1
  O  O190  1  0.24679168  0.38990821  0.07862997  1
  O  O191  1  0.22608083  0.35801701  0.53777371  1
  O  O192  1  0.28475132  0.81749852  0.00012987  1
  O  O193  1  0.27924662  0.88042721  0.53910548  1
  O  O194  1  0.77256312  0.52066577  -0.02508360  1
  O  O195  1  0.71287526  0.36383343  0.51887485  1
  O  O196  1  0.84170340  0.88767803  -0.03514655  1
  O  O197  1  0.76603692  0.97337994  0.53731669  1
  O  O198  1  0.16835070  0.47833969  0.18910061  1
  O  O199  1  0.07991693  0.49573155  0.72640943  1
  O  O200  1  0.18780600  1.01638325  0.27327256  1
  O  O201  1  0.10905867  1.00068099  0.76507591  1
  O  O202  1  0.64202184  0.46302816  0.24957850  1
  O  O203  1  0.64710182  0.51855035  0.70120725  1
  O  O204  1  0.69074090  0.93382538  0.23663484  1
  O  O205  1  0.51469958  1.02865953  0.68370286  1
  O  O206  1  0.34610752  -0.10421634  0.22980783  1
  O  O207  1  0.32130355  0.03971546  0.77683151  1
  O  O208  1  0.38495633  0.45572938  0.15325176  1
  O  O209  1  0.39016326  0.42615130  0.82939897  1
  O  O210  1  0.88305594  -0.01355864  0.27381845  1
  O  O211  1  0.89689429  -0.12116616  0.77317074  1
  O  O212  1  0.86798860  0.47166656  0.23160934  1
  O  O213  1  0.89852737  0.45862928  0.68536517  1
  O  O214  1  0.10242455  0.36579762  0.38265863  1
  O  O215  1  0.21395240  0.38040186  0.90904845  1
  O  O216  1  0.12187940  0.84830913  0.40988050  1
  O  O217  1  0.13102232  0.83707701  0.88809141  1
  O  O218  1  0.60485790  0.37510956  0.37349778  1
  O  O219  1  0.65041170  0.44590449  0.83072039  1
  O  O220  1  0.62088828  0.89948152  0.38258927  1
  O  O221  1  0.65007762  0.85489694  0.86049456  1
  O  O222  1  0.36501683  0.13203259  0.12066671  1
  O  O223  1  0.33788571  0.15029479  0.65021203  1
  O  O224  1  0.38734197  0.66278310  0.05187121  1
  O  O225  1  0.32918165  0.61029519  0.60988300  1
  O  O226  1  0.84966771  0.17263283  0.10146995  1
  O  O227  1  0.88974084  0.12057955  0.56140855  1
  O  O228  1  0.86228519  0.60169046  0.13689675  1
  O  O229  1  0.89459719  0.61408700  0.57245816  1
  O  O230  1  0.28305946  0.25448451  0.16434866  1
  O  O231  1  0.21742574  0.24038841  0.60659050  1
  O  O232  1  0.24120617  0.70759758  0.13818862  1
  O  O233  1  0.26647966  0.79069232  0.66296136  1
  O  O234  1  0.69552785  0.20289517  0.16370736  1
  O  O235  1  0.70511897  0.24001132  0.62444301  1
  O  O236  1  0.72847002  0.72747457  0.12247688  1
  O  O237  1  0.72930401  0.87259467  0.64266635  1
  O  O238  1  0.22424825  0.24904600  0.38638767  1
  O  O239  1  0.29788058  0.25177810  1.00056140  1
  O  O240  1  0.28214738  0.70622771  0.32437809  1
  O  O241  1  0.25371815  0.71866913  0.82098602  1
  O  O242  1  0.76881723  0.27596114  0.43328867  1
  O  O243  1  0.74676082  0.26588960  0.93698320  1
  O  O244  1  0.76824467  0.70436974  0.32903845  1
  O  O245  1  0.75189809  0.74470650  0.89930697  1
  O  O246  1  0.00529467  0.21685804  0.08726370  1
  O  O247  1  0.01345399  0.13358142  0.52631874  1
  O  O248  1  -0.01073248  0.58419267  -0.01800352  1
  O  O249  1  0.04235183  0.61982253  0.48686071  1
  O  O250  1  0.47227168  0.07785497  -0.01760905  1
  O  O251  1  0.47993592  0.23705694  0.61406626  1
  O  O252  1  0.52161648  0.59069547  -0.05260536  1
  O  O253  1  0.48322483  0.56023811  0.55283565  1
  O  O254  1  0.50822575  0.38386349  0.50027663  1
  O  O255  1  0.64391139  0.40992692  0.99857631  1
  O  O256  1  0.46566768  0.90484522  0.53650703  1
  O  O257  1  0.47678584  0.91908736  0.98638346  1
  O  O258  1  0.95845616  0.28070453  0.47476812  1
  O  O259  1  1.03408567  0.38188741  0.98074452  1
  O  O260  1  1.06253198  0.82922333  0.46245560  1
  O  O261  1  1.01300476  0.93555615  0.97076684  1
  O  O262  1  0.48220148  0.48329747  0.39941101  1
  O  O263  1  0.50469246  0.56596940  0.88189675  1
  O  O264  1  0.47562176  1.00169301  0.41580237  1
  O  O265  1  0.42918493  0.99159256  0.84787790  1
  O  O266  1  0.98475269  0.46650542  0.39280853  1
  O  O267  1  1.05335217  0.50123439  0.87859485  1
  O  O268  1  1.04729136  0.97302513  0.31549609  1
  O  O269  1  0.91509554  0.92810107  0.82215776  1
  O  O270  1  0.00140779  -0.01349850  0.12245072  1
  O  O271  1  -0.01441029  0.04119549  0.64623471  1
  O  O272  1  -0.01212040  0.48894861  0.07195788  1
  O  O273  1  0.00543872  0.50934968  0.59075561  1
  O  O274  1  0.46425517  -0.00094318  0.12829658  1
  O  O275  1  0.50016257  0.07781498  0.63458774  1
  O  O276  1  0.44392161  0.50006270  0.02662190  1
  O  O277  1  0.41345140  0.49755754  0.67887747  1
  O  O278  1  0.25987812  0.40887994  0.23744305  1
  O  O279  1  0.18856625  0.30914174  0.72790189  1
  O  O280  1  0.19876028  0.87358458  0.22537893  1
  O  O281  1  0.22718989  0.89920173  0.74676975  1
  O  O282  1  0.73107151  0.35547095  0.26789717  1
  O  O283  1  0.73752648  0.42801959  0.70187602  1
  O  O284  1  0.80647081  0.84308326  0.26222234  1
  O  O285  1  0.68028284  0.97064962  0.72344024  1
  O  O286  1  0.32817977  0.02417661  0.28795491  1
  O  O287  1  0.21277697  0.11778984  0.73985739  1
  O  O288  1  0.29907669  0.56764198  0.21678350  1
  O  O289  1  0.28880220  0.57169456  0.77592787  1
  O  O290  1  0.76500727  0.05479377  0.28743245  1
  O  O291  1  0.73613918  0.13502621  0.78031724  1
  O  O292  1  0.77048187  0.57173666  0.25107921  1
  O  O293  1  0.80804205  0.75275850  0.58132882  1
  O  O294  1  0.46458602  0.06519875  0.44416549  1
  O  O295  1  0.32137148  0.10623124  0.91693578  1
  O  O296  1  0.35339222  0.56878667  0.38410209  1
  O  O297  1  0.35615200  0.64548711  0.87346156  1
  O  O298  1  0.90787667  0.10984771  0.38366094  1
  O  O299  1  1.00703151  0.10704896  0.85528937  1
  O  O300  1  0.88240954  0.57535079  0.35626754  1
  O  O301  1  0.92260072  0.56751935  0.84004877  1
  O  O302  1  0.18283453  0.42290742  0.23843819  1
  O  O303  1  0.08221475  0.38214192  0.60730073  1
  O  O304  1  0.14896122  0.85954640  0.08174372  1
  O  O305  1  0.13276550  0.86618953  0.61671395  1
  O  O306  1  0.59474735  0.33982037  0.16498914  1
  O  O307  1  0.60032884  0.37181667  0.64751900  1
  O  O308  1  0.63626718  0.88141039  0.09871282  1
  O  O309  1  0.63644344  0.94132880  0.56837737  1
  O  O310  1  0.13478966  0.25946761  0.26120742  1
  O  O311  1  0.03534733  0.31712478  0.78803559  1
  O  O312  1  0.07134802  0.72836947  0.19279182  1
  O  O313  1  0.06388467  0.80481362  0.78130334  1
  O  O314  1  0.59879468  0.24630878  0.28960817  1
  O  O315  1  0.65936843  0.32622649  0.76954056  1
  O  O316  1  0.62562400  0.78987931  0.26172162  1
  O  O317  1  0.70025728  0.77306010  0.76659764  1
  O  O318  1  0.39311578  0.22816796  0.27409279  1
  O  O319  1  0.30971979  0.22457600  0.79704342  1
  O  O320  1  0.41481164  0.71969358  0.19848677  1
  O  O321  1  0.41042800  0.76982388  0.76475153  1
  O  O322  1  0.81668942  0.19175982  0.29244947  1
  O  O323  1  0.80603997  0.25919644  0.75940632  1
  O  O324  1  0.90956146  0.69352318  0.25344173  1
  O  O325  1  0.91580138  0.85588315  0.54314808  1
  O  O326  1  0.35126993  0.47028855  0.51081827  1
  O  O327  1  0.40784317  0.46681165  0.97552136  1
  O  O328  1  0.35737362  1.02029643  0.53465617  1
  O  O329  1  0.33159851  0.97496899  0.98979952  1
  O  O330  1  0.86233054  0.47394235  0.48654671  1
  O  O331  1  0.92849589  0.45231303  0.93183291  1
  O  O332  1  0.97271777  0.95450638  0.45042452  1
  O  O333  1  0.89896676  1.04035130  1.00636623  1
  O  O334  1  0.05806003  0.09127872  0.01143509  1
  O  O335  1  0.16808195  0.00395094  0.44434506  1
  O  O336  1  0.11684650  0.49865826  -0.00136633  1
  O  O337  1  0.16508502  0.50951605  0.53282877  1
  O  O338  1  0.60943904  0.01345797  0.02840170  1
  O  O339  1  0.63471683  0.06036847  0.43879986  1
  O  O340  1  0.59024568  0.45291731  -0.01456762  1
  O  O341  1  0.61741570  0.50009926  0.48836176  1
  O  O342  1  0.41873557  0.29249979  0.11115916  1
  O  O343  1  0.33780176  0.34289954  0.65465711  1
  O  O344  1  0.40764010  0.83121098  0.08731030  1
  O  O345  1  0.36773171  0.92942247  0.66335000  1
  O  O346  1  0.90378890  0.36615188  0.07552433  1
  O  O347  1  0.85856118  0.51587322  0.68091212  1
  O  O348  1  0.82173321  0.84996646  0.02046433  1
  O  O349  1  0.80994970  1.00406005  0.66473906  1
  O  O350  1  0.08675375  0.15348140  0.37105081  1
  O  O351  1  0.18792598  0.20234332  0.89416973  1
  O  O352  1  0.20030879  0.61066852  0.43141647  1
  O  O353  1  0.16068797  0.61447832  0.81640759  1
  O  O354  1  0.65679824  0.10053307  0.38394931  1
  O  O355  1  0.59172858  0.10512966  0.88102265  1
  O  O356  1  0.65438002  0.59743325  0.35158311  1
  O  O357  1  0.65266934  0.65467216  0.82489805  1
