# generated using pymatgen
data_V51Zn51O256
_symmetry_space_group_name_H-M   'P 1'
_cell_length_a   17.73654128
_cell_length_b   17.45543513
_cell_length_c   17.60524857
_cell_angle_alpha   89.91885511
_cell_angle_beta   90.35823786
_cell_angle_gamma   90.27628313
_symmetry_Int_Tables_number   1
_chemical_formula_structural   V51Zn51O256
_chemical_formula_sum   'V51 Zn51 O256'
_cell_volume   5450.39301577
_cell_formula_units_Z   1
loop_
 _symmetry_equiv_pos_site_id
 _symmetry_equiv_pos_as_xyz
  1  'x, y, z'
loop_
 _atom_site_type_symbol
 _atom_site_label
 _atom_site_symmetry_multiplicity
 _atom_site_fract_x
 _atom_site_fract_y
 _atom_site_fract_z
 _atom_site_occupancy
  V  V0  1  0.02218405  0.62385775  0.15639590  1
  V  V1  1  0.31379155  0.36994760  0.73974072  1
  V  V2  1  0.79344016  0.62607153  0.34227309  1
  V  V3  1  0.44115779  0.12926378  0.64825264  1
  V  V4  1  0.59435457  0.62791973  0.46250798  1
  V  V5  1  0.75306346  0.50136970  0.74963837  1
  V  V6  1  0.59367727  0.79819344  0.22576441  1
  V  V7  1  0.41577473  0.03154704  0.39690121  1
  V  V8  1  0.58361608  0.03484697  0.63890013  1
  V  V9  1  0.63377439  0.53210293  0.62283325  1
  V  V10  1  0.20184326  0.45923620  0.26472331  1
  V  V11  1  0.86449571  0.62584650  0.70206769  1
  V  V12  1  0.47184537  0.63853725  0.18427734  1
  V  V13  1  0.48430020  0.33526425  0.32670009  1
  V  V14  1  0.77104901  0.74722694  0.47107168  1
  V  V15  1  0.35448530  0.40136786  0.58370647  1
  V  V16  1  0.11788891  0.48717037  0.11072992  1
  V  V17  1  0.28513875  0.74331229  0.00864580  1
  V  V18  1  0.88372960  0.25953350  0.11111769  1
  V  V19  1  0.28408770  0.77750489  0.48739046  1
  V  V20  1  0.49045555  0.01309860  -0.00889787  1
  V  V21  1  0.75677885  0.46726381  0.25752635  1
  V  V22  1  0.88745459  0.13087490  0.24840339  1
  V  V23  1  0.80296064  0.72142759  -0.01128866  1
  V  V24  1  0.68369381  0.75138962  0.85154038  1
  V  V25  1  0.27398381  0.25258301  0.04959636  1
  V  V26  1  0.90152887  0.25631859  0.61532368  1
  V  V27  1  0.84573769  0.90923455  -0.05773929  1
  V  V28  1  0.32831271  0.57381666  0.29485320  1
  V  V29  1  0.63561128  0.62772814  -0.01315304  1
  V  V30  1  0.20340607  0.85110979  0.22399209  1
  V  V31  1  -0.00738314  0.46954171  0.51730137  1
  V  V32  1  0.00556120  0.13373841  0.11317624  1
  V  V33  1  0.41252614  0.69268021  0.72098897  1
  V  V34  1  0.06520082  0.73633821  0.87938139  1
  V  V35  1  -0.01106342  0.23650785  0.77433265  1
  V  V36  1  0.28600022  0.57158196  0.93327694  1
  V  V37  1  0.76145946  0.23937341  -0.01513612  1
  V  V38  1  0.15319656  0.01245545  0.12858335  1
  V  V39  1  0.75023790  0.92635320  0.15056977  1
  V  V40  1  0.00169059  0.39892520  0.87981604  1
  V  V41  1  0.09492711  0.54280448  0.62896609  1
  V  V42  1  0.00574340  -0.03225252  0.01338943  1
  V  V43  1  -0.02405755  0.89267618  0.32501357  1
  V  V44  1  0.87464092  0.38858910  -0.00933006  1
  V  V45  1  0.10488909  0.37857510  0.74251613  1
  V  V46  1  0.13790941  0.15691343  -0.00446658  1
  V  V47  1  0.22810740  0.51775561  0.74490924  1
  V  V48  1  0.66623351  0.32767205  0.72200625  1
  V  V49  1  -0.02181107  0.31191888  0.27248321  1
  V  V50  1  0.71664211  0.25717210  0.46886801  1
  Zn  Zn51  1  0.35415897  0.02664241  0.13964327  1
  Zn  Zn52  1  0.77421159  0.84921167  0.33210258  1
  Zn  Zn53  1  0.05767643  0.56219930  0.81528826  1
  Zn  Zn54  1  0.87994773  0.78639192  0.80737286  1
  Zn  Zn55  1  0.86507140  0.75415085  0.59977928  1
  Zn  Zn56  1  0.25223960  0.95252605  0.37867259  1
  Zn  Zn57  1  0.74530754  0.25838164  0.27656484  1
  Zn  Zn58  1  0.04880411  0.82922399  0.14624062  1
  Zn  Zn59  1  0.19328798  0.67336365  0.18033619  1
  Zn  Zn60  1  0.72072412  0.67574496  0.15671496  1
  Zn  Zn61  1  0.74022997  0.16618205  0.68056351  1
  Zn  Zn62  1  0.53686887  0.10563162  0.81794859  1
  Zn  Zn63  1  0.15870820  0.30778662  0.19872250  1
  Zn  Zn64  1  0.00862239  0.50614095  0.31605964  1
  Zn  Zn65  1  0.31811821  0.53133034  0.12251281  1
  Zn  Zn66  1  0.18089752  0.40834917  0.94861352  1
  Zn  Zn67  1  0.48724013  0.76042091  0.53195636  1
  Zn  Zn68  1  0.08068076  0.77781139  0.44847118  1
  Zn  Zn69  1  0.30328754  0.58453615  0.58558877  1
  Zn  Zn70  1  0.62047693  0.81767392  0.42911501  1
  Zn  Zn71  1  0.33943431  0.38672468  0.92861909  1
  Zn  Zn72  1  0.69455717  0.10132892  0.20339057  1
  Zn  Zn73  1  0.05574696  0.32460318  0.05381553  1
  Zn  Zn74  1  0.45547412  0.45318005  0.19722208  1
  Zn  Zn75  1  0.43934068  0.64390755  0.99402751  1
  Zn  Zn76  1  0.53592819  0.99657521  0.19375902  1
  Zn  Zn77  1  0.82788646  0.06596659  0.05349928  1
  Zn  Zn78  1  0.81588585  0.32243175  0.82127612  1
  Zn  Zn79  1  0.32785174  0.74276743  0.28164158  1
  Zn  Zn80  1  0.17308804  0.88629966  1.01810037  1
  Zn  Zn81  1  0.84637131  0.57723440  0.51403062  1
  Zn  Zn82  1  0.50792995  0.40291195  0.70098409  1
  Zn  Zn83  1  0.92350120  0.95383401  0.16951472  1
  Zn  Zn84  1  0.25473801  0.08834340  0.49717379  1
  Zn  Zn85  1  0.94834073  0.58620799  0.94286106  1
  Zn  Zn86  1  0.66302025  0.89857032  0.97471759  1
  Zn  Zn87  1  0.03661196  0.07718368  0.88078814  1
  Zn  Zn88  1  0.05129658  0.05922859  0.29485444  1
  Zn  Zn89  1  0.79468556  0.41398615  0.56996790  1
  Zn  Zn90  1  0.59188542  0.62534045  0.77102762  1
  Zn  Zn91  1  0.24076143  0.70099853  0.82048747  1
  Zn  Zn92  1  0.92403279  0.45692823  0.16113943  1
  Zn  Zn93  1  0.59982319  0.53400830  0.28531465  1
  Zn  Zn94  1  0.37614602  0.22867584  0.47286076  1
  Zn  Zn95  1  0.44887869  0.17579098  1.11105892  1
  Zn  Zn96  1  0.69936389  0.70454033  0.66135910  1
  Zn  Zn97  1  0.62313804  0.22144012  0.11313409  1
  Zn  Zn98  1  0.78519132  0.54137613  0.94872784  1
  Zn  Zn99  1  0.88591043  0.22718774  0.41303793  1
  Zn  Zn100  1  0.93046656  0.43519969  0.68819522  1
  Zn  Zn101  1  0.96941296  0.21888539  0.95111697  1
  O  O102  1  0.11617184  0.11378574  0.09549943  1
  O  O103  1  0.11726384  0.12826621  0.49823749  1
  O  O104  1  0.12166842  0.59795759  0.13840432  1
  O  O105  1  0.07529015  0.63388598  0.62904076  1
  O  O106  1  0.63092402  0.10995137  0.10991461  1
  O  O107  1  0.54692558  0.14059757  0.64269404  1
  O  O108  1  0.64711216  0.63758650  0.08374503  1
  O  O109  1  0.61703658  0.62868580  0.65395530  1
  O  O110  1  0.40795809  0.39396819  0.36031513  1
  O  O111  1  0.45708270  0.23757405  0.86518020  1
  O  O112  1  0.43572580  0.94534251  0.35171068  1
  O  O113  1  0.32260722  0.94862397  0.69763272  1
  O  O114  1  0.84755250  0.38226683  0.41351295  1
  O  O115  1  0.88789776  0.37977975  0.88760944  1
  O  O116  1  0.88074618  0.88224493  0.33618148  1
  O  O117  1  0.87692719  0.89494409  0.85245343  1
  O  O118  1  0.33152426  0.01705821  0.33297477  1
  O  O119  1  0.18130952  -0.05309001  0.81040522  1
  O  O120  1  0.25602018  0.50859292  0.33310349  1
  O  O121  1  0.26627918  0.47313626  0.91283535  1
  O  O122  1  0.64978744  -0.00070209  0.44476711  1
  O  O123  1  0.68714216  0.06767459  0.85937587  1
  O  O124  1  0.75791229  0.52219698  0.34573855  1
  O  O125  1  0.77806767  0.51447121  0.84035318  1
  O  O126  1  0.21408211  0.48841765  0.16499973  1
  O  O127  1  0.21020040  0.55608880  0.64973404  1
  O  O128  1  0.24868997  1.01432630  0.12472522  1
  O  O129  1  0.25216907  1.08205814  0.60628172  1
  O  O130  1  0.82830925  0.49082053  0.19549574  1
  O  O131  1  0.72550776  0.48791780  0.62591550  1
  O  O132  1  0.75899143  1.02846232  0.13451522  1
  O  O133  1  0.67130383  1.06897243  0.66124366  1
  O  O134  1  -0.03493989  0.41113029  0.25836818  1
  O  O135  1  -0.00138019  0.39271402  0.76796446  1
  O  O136  1  -0.00515127  0.88711573  0.22356362  1
  O  O137  1  -0.00933990  0.82216831  0.58510266  1
  O  O138  1  0.43182584  0.34084740  0.23543274  1
  O  O139  1  0.57821481  0.35041759  0.76149866  1
  O  O140  1  0.56312669  0.88620144  0.19550525  1
  O  O141  1  0.32171234  0.92973724  0.85563087  1
  O  O142  1  0.51524400  0.11025581  0.17961933  1
  O  O143  1  0.44626224  0.10838536  0.74829036  1
  O  O144  1  0.40018403  0.65934403  0.24714071  1
  O  O145  1  0.48517715  0.64856337  0.76890359  1
  O  O146  1  1.00826665  0.12905621  0.21229939  1
  O  O147  1  1.00063959  0.14149101  0.79927709  1
  O  O148  1  1.00276394  0.59526138  0.24674164  1
  O  O149  1  0.96436239  0.61283778  0.75126222  1
  O  O150  1  0.36830960  0.24044387  0.05934147  1
  O  O151  1  0.37946508  0.32656978  0.52227152  1
  O  O152  1  0.38125266  0.73680333  0.00484080  1
  O  O153  1  0.38153719  0.77430712  0.50991218  1
  O  O154  1  0.88156403  0.25736040  0.00155071  1
  O  O155  1  0.90729099  0.23911833  0.51971517  1
  O  O156  1  0.84759521  0.81537826  -0.01484838  1
  O  O157  1  0.86422227  0.77139545  0.49052265  1
  O  O158  1  0.12396974  0.27021823  0.42364966  1
  O  O159  1  0.11808741  0.25273481  0.99124959  1
  O  O160  1  0.18456412  0.77556529  0.47159724  1
  O  O161  1  0.07933615  0.74948154  0.98636098  1
  O  O162  1  0.62864265  0.24197658  0.44443583  1
  O  O163  1  0.67152168  0.25014988  1.01987028  1
  O  O164  1  0.65016092  0.70950506  0.46493538  1
  O  O165  1  0.70378763  0.71806176  0.97350434  1
  O  O166  1  0.52175313  0.25213293  0.10749673  1
  O  O167  1  0.42435562  0.21971131  0.67600387  1
  O  O168  1  0.52959158  0.72014332  0.18779742  1
  O  O169  1  0.48140529  0.75343903  0.64770439  1
  O  O170  1  1.00372997  0.23570327  0.09909573  1
  O  O171  1  0.98777102  0.23942920  0.66607512  1
  O  O172  1  1.03150553  0.72168378  0.15604288  1
  O  O173  1  1.04630742  0.78402162  0.56162019  1
  O  O174  1  -0.03818587  0.29537197  0.36502948  1
  O  O175  1  0.00476274  0.28058209  0.86909827  1
  O  O176  1  -0.08074943  0.74094096  0.26283046  1
  O  O177  1  -0.01372975  0.77322770  0.83916268  1
  O  O178  1  0.43802913  0.26727809  0.38513308  1
  O  O179  1  0.52322766  0.21790431  0.84790537  1
  O  O180  1  0.47175261  0.75361786  0.36814161  1
  O  O181  1  0.36129355  0.87789718  0.83117449  1
  O  O182  1  0.27661320  0.19233863  0.48677054  1
  O  O183  1  0.23908692  0.16183267  1.01250675  1
  O  O184  1  0.27578861  0.68278659  0.52482140  1
  O  O185  1  0.28029661  0.56774198  1.03044613  1
  O  O186  1  0.74560820  0.15825307  0.51116588  1
  O  O187  1  0.77933820  0.14201960  0.99244634  1
  O  O188  1  0.77900715  0.63538823  0.45579818  1
  O  O189  1  0.84790706  0.63906622  0.94900220  1
  O  O190  1  0.25931178  0.33475231  -0.01206725  1
  O  O191  1  0.27158788  0.38227078  0.62578834  1
  O  O192  1  0.26125430  0.83822133  -0.01270384  1
  O  O193  1  0.29443513  0.86494009  0.43018773  1
  O  O194  1  0.78394468  0.36129478  -0.00161835  1
  O  O195  1  0.73631331  0.34978055  0.50046925  1
  O  O196  1  0.75665189  0.94232939  -0.06427273  1
  O  O197  1  0.72909199  0.83929171  0.43922362  1
  O  O198  1  0.11041343  0.47676687  0.28290518  1
  O  O199  1  0.10880865  0.50752835  0.73871192  1
  O  O200  1  0.12558918  1.02483924  0.21904871  1
  O  O201  1  0.13485216  1.04558448  0.70277968  1
  O  O202  1  0.67012444  0.49189648  0.21862129  1
  O  O203  1  0.65561503  0.52487792  0.74685381  1
  O  O204  1  0.62088793  1.03177162  0.24832553  1
  O  O205  1  0.57051884  1.03012966  0.74147415  1
  O  O206  1  0.48035991  0.08429348  0.34678168  1
  O  O207  1  0.26563450  -0.03511173  0.66217769  1
  O  O208  1  0.36167267  0.50725196  0.22014591  1
  O  O209  1  0.31975059  0.49827553  0.73738886  1
  O  O210  1  0.89183441  0.03468504  0.23747855  1
  O  O211  1  0.73844052  -0.10997924  0.69817244  1
  O  O212  1  0.86546970  0.43683594  0.37489926  1
  O  O213  1  0.85298847  0.51348879  0.70839587  1
  O  O214  1  0.20922293  0.33740197  0.48704672  1
  O  O215  1  0.10136351  0.39897654  0.87280679  1
  O  O216  1  0.18972985  0.90649518  0.30367165  1
  O  O217  1  0.09985768  0.81835521  0.94991091  1
  O  O218  1  0.53120482  0.25920031  0.28421576  1
  O  O219  1  0.55917390  0.35280424  0.94962287  1
  O  O220  1  0.60201466  0.80466080  0.32264744  1
  O  O221  1  0.63949153  0.83030365  0.89275378  1
  O  O222  1  0.37157900  0.12923508  0.16756781  1
  O  O223  1  0.35396220  0.09146820  0.64685082  1
  O  O224  1  0.42641795  0.60966027  0.10137065  1
  O  O225  1  0.37446767  0.63811724  0.65062695  1
  O  O226  1  0.89750929  0.14251452  0.11635024  1
  O  O227  1  0.83823629  0.18890324  0.64581717  1
  O  O228  1  0.92496009  0.61518417  0.10578083  1
  O  O229  1  0.88302121  0.63442789  0.60383922  1
  O  O230  1  0.23266580  0.26080765  0.13611939  1
  O  O231  1  0.28994831  0.28032341  0.72991181  1
  O  O232  1  0.24828839  0.71862144  0.09474907  1
  O  O233  1  0.26973938  0.83327606  0.56747816  1
  O  O234  1  0.79063577  0.25508549  0.11332752  1
  O  O235  1  0.71207868  0.20010128  0.56595111  1
  O  O236  1  0.80323480  0.70357801  0.08248732  1
  O  O237  1  0.74921874  0.74389368  0.57453716  1
  O  O238  1  0.16308341  0.33139490  0.43141976  1
  O  O239  1  0.27140445  0.13869069  0.78738562  1
  O  O240  1  0.30200568  0.74081200  0.39002820  1
  O  O241  1  0.25117316  0.67824235  0.93326384  1
  O  O242  1  0.77579438  0.24433076  0.38563155  1
  O  O243  1  0.75760671  0.25826079  0.88928699  1
  O  O244  1  0.77963832  0.73400921  0.36083799  1
  O  O245  1  0.78318930  0.75597360  0.85715462  1
  O  O246  1  0.01512895  0.12778646  -0.00800179  1
  O  O247  1  0.07354009  0.12541127  0.44061630  1
  O  O248  1  -0.02466251  0.62811968  0.04851091  1
  O  O249  1  0.08103951  0.65415346  0.43939411  1
  O  O250  1  0.49835370  0.11579617  0.01385910  1
  O  O251  1  0.43290037  0.16287788  0.55468203  1
  O  O252  1  0.54019635  0.61779463  -0.02409707  1
  O  O253  1  0.50949950  0.65868617  0.49764900  1
  O  O254  1  0.55188465  0.36039606  0.39463071  1
  O  O255  1  0.53816658  0.42591612  1.10951280  1
  O  O256  1  0.54362782  0.84321546  0.49773624  1
  O  O257  1  0.44356952  0.93181276  0.95879675  1
  O  O258  1  1.00552427  0.37805641  0.51672080  1
  O  O259  1  0.99243247  0.37923213  0.98129731  1
  O  O260  1  1.02341379  0.82268763  0.37550241  1
  O  O261  1  1.00033660  0.87753028  1.04881767  1
  O  O262  1  0.53393405  0.41710828  0.28144743  1
  O  O263  1  0.55761383  0.42269935  0.94702264  1
  O  O264  1  0.47472697  1.00756456  0.46851624  1
  O  O265  1  0.48305656  1.05051086  0.89327063  1
  O  O266  1  0.99406579  0.50355010  0.42311880  1
  O  O267  1  0.98480324  0.49926120  0.87983716  1
  O  O268  1  1.00541201  0.98165304  0.35558110  1
  O  O269  1  1.01894895  0.97477217  0.91561979  1
  O  O270  1  -0.00971572  0.02439462  0.10235211  1
  O  O271  1  0.10513036  -0.04304460  0.54751455  1
  O  O272  1  0.01894318  0.50420972  0.12436811  1
  O  O273  1  -0.00229961  0.49897299  0.62677048  1
  O  O274  1  0.52214544  -0.02058139  0.08035049  1
  O  O275  1  0.47734048  0.03009290  0.62284716  1
  O  O276  1  0.51508362  0.55243400  0.21524391  1
  O  O277  1  0.55560956  0.47784918  0.63745542  1
  O  O278  1  0.21976618  0.36419674  0.27250399  1
  O  O279  1  0.21208286  0.41019999  0.76497391  1
  O  O280  1  0.29854441  0.83121597  0.22266269  1
  O  O281  1  0.15817295  0.90107921  0.76302895  1
  O  O282  1  0.75754033  0.36959232  0.27413271  1
  O  O283  1  0.74853314  0.39108334  0.75558561  1
  O  O284  1  0.73433649  0.90835525  0.24685936  1
  O  O285  1  0.70997556  0.90774217  0.75913065  1
  O  O286  1  0.24160622  0.17470228  0.30219958  1
  O  O287  1  0.14006021  0.09726109  0.65607600  1
  O  O288  1  0.26213258  0.64708716  0.26550274  1
  O  O289  1  0.22578357  0.58435630  0.82155474  1
  O  O290  1  0.79095993  0.14962161  0.24595184  1
  O  O291  1  0.81181669  0.08892154  0.75899386  1
  O  O292  1  0.76154486  0.63642298  0.24869557  1
  O  O293  1  0.76695628  0.62057981  0.71829713  1
  O  O294  1  0.38147767  0.13048851  0.41410414  1
  O  O295  1  0.26924164  0.06941931  0.77593590  1
  O  O296  1  0.37810937  0.58567129  0.37228149  1
  O  O297  1  0.37863492  0.58128752  0.91786359  1
  O  O298  1  0.91377884  0.14503339  0.34108399  1
  O  O299  1  0.81502106  0.01874678  0.76834000  1
  O  O300  1  0.88457701  0.61133093  0.34110314  1
  O  O301  1  0.90858998  0.62915762  0.80368616  1
  O  O302  1  0.11227633  0.38452016  0.12618759  1
  O  O303  1  0.10683480  0.38521434  0.65031684  1
  O  O304  1  0.15238204  0.89234203  0.13810643  1
  O  O305  1  0.12316623  0.92909759  0.60897760  1
  O  O306  1  0.59727824  0.38967921  0.12220486  1
  O  O307  1  0.65650081  0.33287645  0.62983208  1
  O  O308  1  0.68677605  0.89485923  0.08020866  1
  O  O309  1  0.59377023  0.94091588  0.63536238  1
  O  O310  1  0.06758021  0.28372021  0.25223037  1
  O  O311  1  0.09555414  0.28116264  0.75889295  1
  O  O312  1  0.15611128  0.76662159  0.23612779  1
  O  O313  1  0.13973969  0.73859864  0.81685249  1
  O  O314  1  0.66374349  0.21609412  0.21506796  1
  O  O315  1  0.68643327  0.23172917  0.74389266  1
  O  O316  1  0.67905792  0.77464372  0.18871158  1
  O  O317  1  0.66308053  0.75274609  0.75419103  1
  O  O318  1  0.25961340  0.23039912  0.34118939  1
  O  O319  1  0.36344513  0.37086783  0.82600413  1
  O  O320  1  0.44300631  0.78799149  0.31351747  1
  O  O321  1  0.33818491  0.71862844  0.77940364  1
  O  O322  1  0.90669753  0.25359409  0.21939727  1
  O  O323  1  0.89317194  0.25499934  0.77715803  1
  O  O324  1  0.87904291  0.75641328  0.20895338  1
  O  O325  1  0.86936762  0.73756015  0.70739581  1
  O  O326  1  0.35069588  0.49290656  0.54756846  1
  O  O327  1  0.41400926  0.41530947  1.02039410  1
  O  O328  1  0.34065918  1.01171811  0.47525705  1
  O  O329  1  0.39471093  1.03073409  1.03059861  1
  O  O330  1  0.88331726  0.47767933  0.52832583  1
  O  O331  1  0.87153043  0.48867415  0.99859367  1
  O  O332  1  0.81427535  1.01963558  0.59580018  1
  O  O333  1  0.89355533  0.98583727  0.99670527  1
  O  O334  1  0.11403901  -0.02056530  0.03018331  1
  O  O335  1  0.19807219  0.01511512  0.44481857  1
  O  O336  1  0.13489052  0.48790233  0.01674478  1
  O  O337  1  0.09756946  0.51278615  0.53445371  1
  O  O338  1  0.58415389  -0.01197413  -0.03169003  1
  O  O339  1  0.60745597  0.04233303  0.54651345  1
  O  O340  1  0.68048523  0.54211748  -0.03008549  1
  O  O341  1  0.63025428  0.55181379  0.52281348  1
  O  O342  1  0.38627140  0.42652512  0.08770525  1
  O  O343  1  0.40587180  0.38676409  0.67525570  1
  O  O344  1  0.42817085  0.97250210  0.19212081  1
  O  O345  1  0.43269653  0.79749858  0.68850096  1
  O  O346  1  0.90574092  0.36221241  0.09905660  1
  O  O347  1  0.87003860  0.35258633  0.63381918  1
  O  O348  1  0.83972566  0.89538884  0.12965287  1
  O  O349  1  0.77844419  0.98228296  0.54795196  1
  O  O350  1  0.10640782  0.12735416  0.37075986  1
  O  O351  1  0.13888297  0.11354521  0.90912681  1
  O  O352  1  0.13278383  0.62309093  0.40259647  1
  O  O353  1  0.04334247  0.63650911  0.89500005  1
  O  O354  1  0.65501721  0.06885870  0.44383590  1
  O  O355  1  0.64317924  0.12421709  0.85472095  1
  O  O356  1  0.58563370  0.59227860  0.37180488  1
  O  O357  1  0.63788070  0.65937605  0.86856405  1
