# generated using pymatgen
data_V51Zn51O256
_symmetry_space_group_name_H-M   'P 1'
_cell_length_a   18.22486866
_cell_length_b   17.91554929
_cell_length_c   18.06639166
_cell_angle_alpha   91.50252193
_cell_angle_beta   92.48440440
_cell_angle_gamma   90.37397411
_symmetry_Int_Tables_number   1
_chemical_formula_structural   V51Zn51O256
_chemical_formula_sum   'V51 Zn51 O256'
_cell_volume   5891.08674405
_cell_formula_units_Z   1
loop_
 _symmetry_equiv_pos_site_id
 _symmetry_equiv_pos_as_xyz
  1  'x, y, z'
loop_
 _atom_site_type_symbol
 _atom_site_label
 _atom_site_symmetry_multiplicity
 _atom_site_fract_x
 _atom_site_fract_y
 _atom_site_fract_z
 _atom_site_occupancy
  V  V0  1  0.06027822  0.41392651  0.75412321  1
  V  V1  1  -0.02565601  0.71290140  0.62937189  1
  V  V2  1  0.39158220  0.67970091  0.09219093  1
  V  V3  1  0.83758494  0.45606240  0.52342883  1
  V  V4  1  0.67093857  0.09726459  0.00719065  1
  V  V5  1  0.89157774  0.65807736  0.76466138  1
  V  V6  1  0.78253204  0.72088430  0.00947361  1
  V  V7  1  0.88945005  0.27970424  -0.00940862  1
  V  V8  1  0.24551347  0.73169177  0.00669681  1
  V  V9  1  0.84717678  0.31451431  0.64568755  1
  V  V10  1  0.27753289  0.85214222  0.66704853  1
  V  V11  1  0.65097352  0.47181151  0.08252623  1
  V  V12  1  0.57035826  0.34080594  0.33409861  1
  V  V13  1  0.58537604  0.59163119  -0.00813255  1
  V  V14  1  0.58412923  0.10007678  0.47480295  1
  V  V15  1  0.38450797  -0.03388425  0.89340487  1
  V  V16  1  -0.00214536  0.81060776  0.80103943  1
  V  V17  1  0.63976819  -0.03685014  0.11639007  1
  V  V18  1  0.22332064  0.34861919  0.70452812  1
  V  V19  1  0.75370346  0.83198204  0.13106559  1
  V  V20  1  0.41988971  0.09877207  0.24057239  1
  V  V21  1  0.86330441  0.87867675  -0.02391371  1
  V  V22  1  0.61339873  0.73039062  0.90219829  1
  V  V23  1  -0.00599588  0.52861318  0.00659185  1
  V  V24  1  0.63399316  0.89120030  0.72815343  1
  V  V25  1  0.41681857  0.12867910  0.81392948  1
  V  V26  1  0.16394224  0.13262941  -0.06320251  1
  V  V27  1  0.01896581  0.00116322  0.43985703  1
  V  V28  1  0.48790647  0.68886783  0.23005892  1
  V  V29  1  0.07802048  0.56629854  0.65911805  1
  V  V30  1  0.28360384  0.88876878  0.14291424  1
  V  V31  1  0.67188358  0.25292700  0.44425673  1
  V  V32  1  0.20882930  0.52703761  0.76243651  1
  V  V33  1  0.53435941  0.09978884  0.11166871  1
  V  V34  1  0.19836306  0.64358487  0.87801207  1
  V  V35  1  0.83372373  0.56222465  0.23747750  1
  V  V36  1  0.44695364  0.24340818  0.12606093  1
  V  V37  1  -0.01542313  0.55121442  0.52068857  1
  V  V38  1  0.61596826  0.85779259  0.23399973  1
  V  V39  1  0.03030976  0.79874497  0.25758062  1
  V  V40  1  0.18982901  0.28734568  0.20529754  1
  V  V41  1  0.55054477  0.20096647  0.75902952  1
  V  V42  1  0.17640953  -0.00733309  0.68629317  1
  V  V43  1  0.21871038  0.79675043  0.50636275  1
  V  V44  1  0.65083343  0.66739768  0.32384839  1
  V  V45  1  0.14426899  0.87712097  0.80959737  1
  V  V46  1  0.78169162  0.08487425  0.28948570  1
  V  V47  1  0.40142415  0.65066282  0.76077604  1
  V  V48  1  0.00469584  0.06535784  0.15749216  1
  V  V49  1  -0.04592589  0.38214171  0.41788508  1
  V  V50  1  0.52523758  -0.04546069  -0.00873120  1
  Zn  Zn51  1  0.99076204  0.12701546  0.97662045  1
  Zn  Zn52  1  0.56857956  0.03405503  0.28712532  1
  Zn  Zn53  1  0.55201262  0.77929963  0.06756114  1
  Zn  Zn54  1  0.55697843  0.79072881  0.38433422  1
  Zn  Zn55  1  0.46366252  0.93003686  0.17698897  1
  Zn  Zn56  1  0.21463282  0.15811763  0.75539234  1
  Zn  Zn57  1  0.12621357  0.06512973  0.30346293  1
  Zn  Zn58  1  0.58402042  0.60722057  0.79055964  1
  Zn  Zn59  1  0.63124918  0.19331808  0.25663626  1
  Zn  Zn60  1  0.66292618  0.23519739  0.60728666  1
  Zn  Zn61  1  0.16304430  0.50614242  0.96398922  1
  Zn  Zn62  1  0.71850720  0.73378105  0.75204359  1
  Zn  Zn63  1  1.01116639  0.52620258  0.18743273  1
  Zn  Zn64  1  0.75468898  0.81367034  0.32640731  1
  Zn  Zn65  1  0.57338025  0.52071444  0.26108371  1
  Zn  Zn66  1  0.98493739  0.62360558  0.33703502  1
  Zn  Zn67  1  0.31193645  0.79942741  0.83590540  1
  Zn  Zn68  1  0.81514617  0.86305258  0.80344749  1
  Zn  Zn69  1  0.47901230  0.81346467  0.81658527  1
  Zn  Zn70  1  0.70142262  0.89429612  0.95249456  1
  Zn  Zn71  1  0.29793344  0.67505275  0.60176683  1
  Zn  Zn72  1  0.81774753  0.02314400  0.10913121  1
  Zn  Zn73  1  0.90764512  0.48586697  0.69560698  1
  Zn  Zn74  1  0.94473242  0.69960307  0.94688426  1
  Zn  Zn75  1  0.43835213  0.65904770  0.92118845  1
  Zn  Zn76  1  0.03236087  0.57515605  0.84883354  1
  Zn  Zn77  1  0.60924187  0.92643995  0.53521196  1
  Zn  Zn78  1  0.57154586  0.36252747  0.16330317  1
  Zn  Zn79  1  0.65321614  0.41202766  0.49910211  1
  Zn  Zn80  1  0.87434359  0.92340691  0.24197621  1
  Zn  Zn81  1  0.67642206  0.65919853  0.15654545  1
  Zn  Zn82  1  0.59147912  0.03596300  0.84035302  1
  Zn  Zn83  1  0.36745055  0.37943999  0.16977753  1
  Zn  Zn84  1  0.35957158  0.27250341  0.78014573  1
  Zn  Zn85  1  0.16197890  0.90610626  0.37607369  1
  Zn  Zn86  1  0.28555433  0.72568308  0.21533807  1
  Zn  Zn87  1  0.29700596  0.51595434  0.09742561  1
  Zn  Zn88  1  0.06746373  0.86540418  0.56732896  1
  Zn  Zn89  1  0.82402407  0.61729476  0.60401958  1
  Zn  Zn90  1  0.13410844  0.43584972  0.57592163  1
  Zn  Zn91  1  0.08634441  0.23533541  0.07262155  1
  Zn  Zn92  1  0.20813327  0.95480787  0.96468643  1
  Zn  Zn93  1  0.70206755  0.29090637  1.04085093  1
  Zn  Zn94  1  0.45803653  0.20899947  0.40476977  1
  Zn  Zn95  1  0.16415022  0.71982161  0.71753560  1
  Zn  Zn96  1  -0.00866128  0.34864854  0.57582899  1
  Zn  Zn97  1  0.85710474  0.22363109  0.39413827  1
  Zn  Zn98  1  0.82897756  0.53008336  0.04619234  1
  Zn  Zn99  1  0.13949927  0.63694148  0.25777000  1
  Zn  Zn100  1  0.93953911  0.34630282  0.81952130  1
  Zn  Zn101  1  0.34108824  0.20990231  0.96259413  1
  O  O102  1  0.08145589  0.01058162  0.15167049  1
  O  O103  1  0.18010707  0.08718574  0.67552251  1
  O  O104  1  0.16263799  0.61377324  0.13618702  1
  O  O105  1  0.08014772  0.66298071  0.65965904  1
  O  O106  1  0.64883935  0.06061260  0.11648782  1
  O  O107  1  0.84741731  0.12551028  0.53656908  1
  O  O108  1  0.63509969  0.58587586  0.08411332  1
  O  O109  1  0.69119040  0.68976239  0.64469172  1
  O  O110  1  0.28667121  0.52661172  0.50359293  1
  O  O111  1  0.34369077  0.29216005  0.88803457  1
  O  O112  1  0.32026684  1.01271500  0.38503806  1
  O  O113  1  0.39563318  0.87283549  0.86322156  1
  O  O114  1  0.85017739  0.40902588  0.44111319  1
  O  O115  1  0.90282519  0.32551245  0.91041444  1
  O  O116  1  0.82878563  0.88672289  0.32728935  1
  O  O117  1  0.79410669  0.90151581  0.90138547  1
  O  O118  1  0.31116658  -0.00615396  0.44867427  1
  O  O119  1  0.29543940  -0.02306026  0.90741633  1
  O  O120  1  0.15272072  0.48634311  0.38111867  1
  O  O121  1  0.20119710  0.53646860  0.86623155  1
  O  O122  1  0.73873817  0.03742039  0.35086390  1
  O  O123  1  0.89539361  0.03448359  0.66597663  1
  O  O124  1  0.79783275  0.47810035  0.29824412  1
  O  O125  1  0.68741928  0.49745493  0.75706968  1
  O  O126  1  0.19789656  0.37405709  0.24827990  1
  O  O127  1  0.17253281  0.53219825  0.66038007  1
  O  O128  1  0.25402029  0.97064762  0.16839305  1
  O  O129  1  0.26487953  0.95708287  0.68027654  1
  O  O130  1  0.74481722  0.48031054  0.08221746  1
  O  O131  1  0.71576690  0.62577549  0.62008623  1
  O  O132  1  0.73409650  0.93734915  0.12530864  1
  O  O133  1  0.80427578  1.07304915  0.52325918  1
  O  O134  1  -0.03895501  0.41278624  0.33432672  1
  O  O135  1  -0.03315710  0.44665176  0.77636301  1
  O  O136  1  -0.03748891  0.86480097  0.28062226  1
  O  O137  1  0.04352953  0.89713049  0.82040871  1
  O  O138  1  0.46225491  0.34174874  0.14748587  1
  O  O139  1  0.51891787  0.39854103  0.71445955  1
  O  O140  1  0.52360060  0.84359606  0.22038271  1
  O  O141  1  0.55767850  0.84796914  0.75994338  1
  O  O142  1  0.56319562  0.11637498  0.21213679  1
  O  O143  1  0.52237314  0.10891940  0.79429935  1
  O  O144  1  0.49590320  0.59626392  0.24691385  1
  O  O145  1  0.49075175  0.62679745  0.74445165  1
  O  O146  1  1.02090866  0.10621238  0.24646530  1
  O  O147  1  1.01649914  0.12504517  0.71547209  1
  O  O148  1  1.11029176  0.74327334  0.23776324  1
  O  O149  1  0.97444091  0.70978059  0.73839812  1
  O  O150  1  0.37988803  0.24098566  0.05735954  1
  O  O151  1  0.36203665  0.26048044  0.44296417  1
  O  O152  1  0.39249581  0.71305134  0.00210956  1
  O  O153  1  0.36833746  0.77771819  0.41020661  1
  O  O154  1  0.90406807  0.18559663  -0.02210363  1
  O  O155  1  0.76306612  0.25378764  0.43077754  1
  O  O156  1  0.87064899  0.76841858  -0.01591941  1
  O  O157  1  0.86999513  0.73141950  0.45937201  1
  O  O158  1  0.07879005  0.35373055  0.51045579  1
  O  O159  1  0.08487860  0.18076019  0.97861220  1
  O  O160  1  0.12663157  0.78990247  0.52279148  1
  O  O161  1  0.16492428  0.75782872  1.02885939  1
  O  O162  1  0.64597612  0.35773116  0.40045972  1
  O  O163  1  0.66776436  0.19212660  1.02138559  1
  O  O164  1  0.60179490  0.69387762  0.39917574  1
  O  O165  1  0.59730003  0.70140978  1.00107873  1
  O  O166  1  0.53072251  0.20237800  0.09915828  1
  O  O167  1  0.50630811  0.38197174  0.64874528  1
  O  O168  1  0.49098989  0.70873487  0.12277196  1
  O  O169  1  0.52030153  0.74552451  0.59531643  1
  O  O170  1  1.03818968  0.15605647  0.13099671  1
  O  O171  1  0.91450196  0.27925324  0.58953358  1
  O  O172  1  1.05046649  0.84814767  0.18175785  1
  O  O173  1  0.99324198  0.80191076  0.60930218  1
  O  O174  1  -0.06305537  0.28724473  0.41852113  1
  O  O175  1  -0.02960280  0.17106854  0.69601676  1
  O  O176  1  0.00411472  0.73196001  0.33101075  1
  O  O177  1  -0.00575740  0.76650499  0.88150489  1
  O  O178  1  0.49470756  0.30506024  0.37409194  1
  O  O179  1  0.59766377  0.24815842  0.82308252  1
  O  O180  1  0.48633976  0.73776334  0.31213593  1
  O  O181  1  0.51538674  0.73036631  0.88328733  1
  O  O182  1  0.30136023  0.21871295  0.45585062  1
  O  O183  1  0.24520646  0.17009538  0.97023832  1
  O  O184  1  0.26520909  0.71167784  0.50972392  1
  O  O185  1  0.22493395  0.63003312  0.97546224  1
  O  O186  1  0.66136556  0.16670388  0.50284567  1
  O  O187  1  0.75953323  0.07234363  1.03343165  1
  O  O188  1  0.81121151  0.71450159  0.48572782  1
  O  O189  1  0.81654104  0.63257478  1.01803236  1
  O  O190  1  0.11294115  0.32173103  0.13677134  1
  O  O191  1  0.21006524  0.37332305  0.61317725  1
  O  O192  1  0.28906644  0.82966633  0.00058727  1
  O  O193  1  0.25924319  0.86673477  0.56773714  1
  O  O194  1  0.80096520  0.29559592  0.01601432  1
  O  O195  1  0.74515698  0.46427312  0.52548348  1
  O  O196  1  0.76060331  0.83325197  0.02681744  1
  O  O197  1  0.70364906  0.90541621  0.47868012  1
  O  O198  1  0.05363144  0.58232691  0.26670975  1
  O  O199  1  0.07872967  0.53226751  0.75751612  1
  O  O200  1  0.18742407  0.97870889  0.30997197  1
  O  O201  1  0.15513535  0.97209498  0.77956204  1
  O  O202  1  0.60049099  0.47107623  0.16696299  1
  O  O203  1  0.62406630  0.52888496  0.72337234  1
  O  O204  1  0.62603825  0.95713100  0.22560548  1
  O  O205  1  0.64112356  0.98049373  0.76376524  1
  O  O206  1  0.46687408  0.00738000  0.25289193  1
  O  O207  1  0.40255455  0.02999460  0.81896028  1
  O  O208  1  0.33055448  0.47220619  0.18601764  1
  O  O209  1  0.29248210  0.50348889  0.75124167  1
  O  O210  1  0.81906222  0.01614493  0.22249117  1
  O  O211  1  0.85483890  -0.01333075  0.63572835  1
  O  O212  1  0.90283077  0.49462901  0.19092875  1
  O  O213  1  0.85497881  0.57973559  0.71153885  1
  O  O214  1  0.05799041  0.37772343  0.43905867  1
  O  O215  1  0.13661683  0.35762802  0.96284891  1
  O  O216  1  0.22445243  0.83628486  0.41981696  1
  O  O217  1  0.16799830  0.87232933  0.89993273  1
  O  O218  1  0.54407148  0.42718189  0.30639214  1
  O  O219  1  0.59463908  0.41726804  0.84565388  1
  O  O220  1  0.63267857  0.84445789  0.32972012  1
  O  O221  1  0.63121204  0.82260341  0.90622287  1
  O  O222  1  0.44367742  0.08680656  0.12450103  1
  O  O223  1  0.33300251  0.11862244  0.56883309  1
  O  O224  1  0.37684604  0.58671870  0.08443302  1
  O  O225  1  0.34636314  0.63028280  0.68156335  1
  O  O226  1  0.91013920  0.09464908  0.14223907  1
  O  O227  1  0.76507708  0.26909331  0.63068093  1
  O  O228  1  0.88504920  0.56306037  0.14781782  1
  O  O229  1  0.87863536  0.70626722  0.63511443  1
  O  O230  1  0.18471571  0.22275811  0.12016817  1
  O  O231  1  0.19454865  0.26010997  0.71943821  1
  O  O232  1  0.29281812  0.71274940  0.09791169  1
  O  O233  1  0.23905717  0.75549193  0.65558374  1
  O  O234  1  0.83908672  0.26600854  0.18619305  1
  O  O235  1  0.64501666  0.30702004  0.52786765  1
  O  O236  1  0.74177776  0.72789305  0.10418254  1
  O  O237  1  0.76075368  0.90902148  0.53114783  1
  O  O238  1  0.29947450  0.15252011  0.42914095  1
  O  O239  1  0.19179262  0.31887370  0.95453221  1
  O  O240  1  0.36021646  0.82041550  0.35898942  1
  O  O241  1  0.25127222  0.73237557  0.89413794  1
  O  O242  1  0.61968560  0.21934573  0.36743390  1
  O  O243  1  0.81896992  0.08201168  0.82639753  1
  O  O244  1  0.73667777  0.70909699  0.33702312  1
  O  O245  1  0.72280143  0.71288043  0.93588408  1
  O  O246  1  -0.00301029  0.05049862  0.05601848  1
  O  O247  1  0.01669736  0.09819870  0.43525927  1
  O  O248  1  -0.01600394  0.62427435  0.00802467  1
  O  O249  1  -0.01608717  0.65222857  0.54937804  1
  O  O250  1  0.55542064  0.07952565  0.01570553  1
  O  O251  1  0.50574785  0.15171737  0.48319237  1
  O  O252  1  0.49324548  0.58740948  -0.01282740  1
  O  O253  1  0.46703548  0.71301146  0.56546052  1
  O  O254  1  0.30064840  0.46485809  0.46958647  1
  O  O255  1  0.34158294  0.37549472  0.91424865  1
  O  O256  1  0.53907134  0.85874564  0.47104472  1
  O  O257  1  0.51291696  0.86235101  1.00530644  1
  O  O258  1  0.95999457  0.44533530  0.51711003  1
  O  O259  1  0.99480105  0.29682002  1.03577708  1
  O  O260  1  1.01707518  0.90296928  0.46937639  1
  O  O261  1  0.94128536  0.89514106  0.93846279  1
  O  O262  1  0.35849752  0.54230362  0.34598249  1
  O  O263  1  0.54391609  0.39056748  0.87893652  1
  O  O264  1  0.45705056  0.91892099  0.38650247  1
  O  O265  1  0.53530323  0.96318736  0.89698799  1
  O  O266  1  0.99026183  0.56807611  0.43010357  1
  O  O267  1  1.05722695  0.50777206  0.93226204  1
  O  O268  1  1.04860848  1.00010818  0.34256963  1
  O  O269  1  0.99925055  1.04468386  0.83269559  1
  O  O270  1  -0.04108485  -0.01428024  0.19111716  1
  O  O271  1  0.01109596  0.02443900  0.53377973  1
  O  O272  1  0.03343248  0.50074731  0.09046746  1
  O  O273  1  -0.01645640  0.54190633  0.64232333  1
  O  O274  1  0.53349254  -0.02478004  0.10505081  1
  O  O275  1  0.36548652  0.07284476  0.60712593  1
  O  O276  1  0.38017510  0.39011709  -0.02865063  1
  O  O277  1  0.60562699  0.55475290  0.52812357  1
  O  O278  1  0.24187771  0.22655673  0.25482189  1
  O  O279  1  0.16913913  0.42011451  0.76165857  1
  O  O280  1  0.25238387  0.82547272  0.20647611  1
  O  O281  1  0.23651858  0.84681137  0.76910260  1
  O  O282  1  0.76501072  0.42462947  0.26255734  1
  O  O283  1  0.70420823  0.43347671  0.73209620  1
  O  O284  1  0.71326076  0.81814926  0.22145903  1
  O  O285  1  0.72162908  0.84291032  0.75158997  1
  O  O286  1  0.33352570  0.07682388  0.23734803  1
  O  O287  1  0.32935750  0.15961969  0.77577197  1
  O  O288  1  0.23430766  0.66321379  0.27801282  1
  O  O289  1  0.21049304  0.63460127  0.77321512  1
  O  O290  1  0.72502411  0.14851055  0.24598599  1
  O  O291  1  0.83319163  0.12772896  0.77957963  1
  O  O292  1  0.75384061  0.60174014  0.20926517  1
  O  O293  1  0.81900367  0.71145211  0.78894276  1
  O  O294  1  0.43875345  0.13701405  0.32775248  1
  O  O295  1  0.41573874  0.15708848  0.90264905  1
  O  O296  1  0.33818302  0.60602828  0.35865876  1
  O  O297  1  0.37807993  0.60934987  0.84265165  1
  O  O298  1  0.85345804  0.13614981  0.33694340  1
  O  O299  1  0.95999321  0.05510517  0.88692883  1
  O  O300  1  0.88161708  0.61302673  0.30273045  1
  O  O301  1  0.93250057  0.62219693  0.84591740  1
  O  O302  1  0.11956554  0.25912138  0.25989418  1
  O  O303  1  0.05284655  0.39304915  0.65948803  1
  O  O304  1  0.24864420  0.88460101  0.04042271  1
  O  O305  1  0.11612707  0.94065510  0.62896371  1
  O  O306  1  0.64274867  0.36638796  0.08052596  1
  O  O307  1  0.57658604  0.48072494  0.53315904  1
  O  O308  1  0.62520312  0.84834473  0.12220962  1
  O  O309  1  0.62720728  0.89128160  0.63316056  1
  O  O310  1  0.17189387  0.09761565  0.22356894  1
  O  O311  1  0.05143403  0.33551636  0.80185106  1
  O  O312  1  0.08944450  0.84375005  0.32789852  1
  O  O313  1  0.09921914  0.79134929  0.76434169  1
  O  O314  1  0.59603792  0.29728809  0.24599325  1
  O  O315  1  0.59414709  0.20250115  0.67544467  1
  O  O316  1  0.60616465  0.69785567  0.23363450  1
  O  O317  1  0.63952507  0.70138357  0.80842057  1
  O  O318  1  0.41592222  0.20538397  0.20383021  1
  O  O319  1  0.45372343  0.22517750  0.76082650  1
  O  O320  1  0.38871160  0.69497813  0.20295385  1
  O  O321  1  0.39359828  0.74753962  0.78433245  1
  O  O322  1  0.87177523  0.28068077  0.24590986  1
  O  O323  1  0.87679237  0.31097894  0.73582064  1
  O  O324  1  0.96928528  0.73812303  0.20750627  1
  O  O325  1  0.91184685  0.84465494  0.77381968  1
  O  O326  1  0.34254270  0.56865397  0.52809314  1
  O  O327  1  0.21718047  0.47677567  1.04571364  1
  O  O328  1  0.47090035  0.91115139  0.45392157  1
  O  O329  1  0.42705930  0.98582295  0.98164163  1
  O  O330  1  0.87038662  0.55240799  0.53147017  1
  O  O331  1  0.90839618  0.48789718  0.99249259  1
  O  O332  1  0.93102745  0.98244104  0.40940330  1
  O  O333  1  0.86264611  0.94406826  1.04751777  1
  O  O334  1  0.15421410  0.04288656  -0.03188039  1
  O  O335  1  0.12003632  -0.02050592  0.44938156  1
  O  O336  1  0.11030161  0.63401543  0.09484018  1
  O  O337  1  0.08187568  0.53125029  0.55366981  1
  O  O338  1  0.63487553  -0.04460205  0.01147526  1
  O  O339  1  0.58360121  0.03019346  0.53769747  1
  O  O340  1  0.60630630  0.48610863  -0.00439776  1
  O  O341  1  0.56528854  0.60532162  0.55260560  1
  O  O342  1  0.27397607  0.32405835  0.16262970  1
  O  O343  1  0.31620537  0.34967573  0.72453188  1
  O  O344  1  0.37804398  0.88399079  0.13898640  1
  O  O345  1  0.36600998  0.84340266  0.67502666  1
  O  O346  1  0.93960164  0.31664350  0.08123938  1
  O  O347  1  0.85246762  0.41658644  0.62123018  1
  O  O348  1  0.84090704  0.84536333  0.16339534  1
  O  O349  1  0.81547233  0.86717855  0.51940816  1
  O  O350  1  0.14308047  0.13991288  0.37283063  1
  O  O351  1  0.16163292  0.13594839  0.84253419  1
  O  O352  1  0.19997749  0.51537576  0.34438856  1
  O  O353  1  0.10751056  0.65811313  0.87733195  1
  O  O354  1  0.58823011  0.05902662  0.38851788  1
  O  O355  1  0.66322868  0.07759084  0.91315960  1
  O  O356  1  0.65189307  0.57124168  0.32085828  1
  O  O357  1  0.61191257  0.59889479  0.90016877  1
