# generated using pymatgen
data_V51Zn51O256
_symmetry_space_group_name_H-M   'P 1'
_cell_length_a   17.45437865
_cell_length_b   17.69613785
_cell_length_c   17.27106221
_cell_angle_alpha   89.50832709
_cell_angle_beta   91.09173677
_cell_angle_gamma   91.09299415
_symmetry_Int_Tables_number   1
_chemical_formula_structural   V51Zn51O256
_chemical_formula_sum   'V51 Zn51 O256'
_cell_volume   5332.48188038
_cell_formula_units_Z   1
loop_
 _symmetry_equiv_pos_site_id
 _symmetry_equiv_pos_as_xyz
  1  'x, y, z'
loop_
 _atom_site_type_symbol
 _atom_site_label
 _atom_site_symmetry_multiplicity
 _atom_site_fract_x
 _atom_site_fract_y
 _atom_site_fract_z
 _atom_site_occupancy
  V  V0  1  0.49664840  0.56393516  0.10200682  1
  V  V1  1  0.89429590  0.12853614  0.23471787  1
  V  V2  1  0.34380109  -0.03596551  0.89916967  1
  V  V3  1  0.71282077  0.02736222  0.20092996  1
  V  V4  1  0.90313754  0.83128335  0.04099295  1
  V  V5  1  0.40114058  0.50266984  0.36385077  1
  V  V6  1  0.60539995  0.68747013  0.87685558  1
  V  V7  1  0.38795433  0.87139567  0.49536367  1
  V  V8  1  0.23253492  0.50191943  0.76498124  1
  V  V9  1  0.41502515  0.50851341  0.82959139  1
  V  V10  1  0.68359075  0.36590960  0.29778207  1
  V  V11  1  0.48323501  0.70641167  0.76162879  1
  V  V12  1  0.62788472  0.43087299  0.03599572  1
  V  V13  1  0.00044031  0.01525483  0.52500550  1
  V  V14  1  0.31267691  0.65362938  0.25915566  1
  V  V15  1  0.12394656  -0.03566008  0.63465896  1
  V  V16  1  0.85781726  0.61320793  0.69900615  1
  V  V17  1  0.37696760  0.12019619  0.26569667  1
  V  V18  1  0.53700059  0.11794258  0.52528693  1
  V  V19  1  0.12403507  0.49646902  0.14482409  1
  V  V20  1  0.75974403  0.63884696  0.33579453  1
  V  V21  1  0.25799823  0.38294585  0.10762459  1
  V  V22  1  -0.01643892  0.86317230  0.87325619  1
  V  V23  1  0.78329916  0.10088189  0.37752924  1
  V  V24  1  0.92650090  0.11192955  0.76291025  1
  V  V25  1  0.62801709  0.93141950  0.76094286  1
  V  V26  1  0.27731519  0.37692191  0.61461989  1
  V  V27  1  -0.01136298  0.88578777  0.38204803  1
  V  V28  1  0.76761739  0.61188614  0.86926796  1
  V  V29  1  0.14483420  0.53343873  0.60299419  1
  V  V30  1  0.65371244  0.51730221  0.61301436  1
  V  V31  1  0.37616025  0.75204852  0.12315302  1
  V  V32  1  0.00158978  0.75983644  0.71134605  1
  V  V33  1  0.23121617  0.86952485  0.12297138  1
  V  V34  1  0.23818532  -0.00340093  0.75162377  1
  V  V35  1  0.90003294  0.34423590  0.50394157  1
  V  V36  1  0.36306731  0.72638498  0.64094967  1
  V  V37  1  0.02139740  0.35749057  0.38163000  1
  V  V38  1  0.09885372  0.62641577  0.00977944  1
  V  V39  1  0.51966452  -0.05381505  0.01037756  1
  V  V40  1  0.75743200  0.87114248  0.64435479  1
  V  V41  1  0.00611159  0.51574802  0.48954391  1
  V  V42  1  0.55938504  0.82182169  0.43629915  1
  V  V43  1  0.47600456  0.23060386  0.77670319  1
  V  V44  1  -0.03295325  0.61410969  0.13735987  1
  V  V45  1  0.11213118  0.77807701  0.36050406  1
  V  V46  1  0.75607531  0.05052412  0.71784659  1
  V  V47  1  0.73622661  0.73283189  0.00982468  1
  V  V48  1  0.24470268  0.66143721  0.87814400  1
  V  V49  1  0.88162407  0.00270535  0.91268087  1
  V  V50  1  0.70611311  0.37972493  0.69917111  1
  Zn  Zn51  1  0.79720689  0.00795068  0.54417876  1
  Zn  Zn52  1  0.34534069  0.48659906  0.19493726  1
  Zn  Zn53  1  0.13104145  0.30561923  0.05278495  1
  Zn  Zn54  1  0.95908267  0.44960449  0.20701712  1
  Zn  Zn55  1  0.95853334  0.17671191  0.43212398  1
  Zn  Zn56  1  0.57425132  0.79422902  0.62169798  1
  Zn  Zn57  1  0.92993222  0.46514750  0.63741706  1
  Zn  Zn58  1  0.30366466  0.81121679  0.80429986  1
  Zn  Zn59  1  0.16650305  0.95254299  0.94552199  1
  Zn  Zn60  1  0.21074908  0.48739569  0.96376029  1
  Zn  Zn61  1  0.58009619  0.53288925  0.28048321  1
  Zn  Zn62  1  0.17517769  0.41277318  0.47809699  1
  Zn  Zn63  1  0.31759628  0.78671714  0.33678382  1
  Zn  Zn64  1  0.53092459  0.09106030  0.13717253  1
  Zn  Zn65  1  0.93340444  0.93962164  0.70209803  1
  Zn  Zn66  1  0.69868900  0.91588523  0.93855733  1
  Zn  Zn67  1  0.28465082  0.03347334  0.54793162  1
  Zn  Zn68  1  0.88046965  0.29080274  0.68764514  1
  Zn  Zn69  1  0.48569783  0.03064330  0.83818812  1
  Zn  Zn70  1  0.05710133  0.37337543  0.60080119  1
  Zn  Zn71  1  0.86035372  0.04084386  0.09990886  1
  Zn  Zn72  1  0.92285677  0.67917733  0.94662333  1
  Zn  Zn73  1  0.30911248  0.17433196  0.67492528  1
  Zn  Zn74  1  0.70257200  0.37903609  0.50517489  1
  Zn  Zn75  1  0.50211438  0.22315781  0.98792336  1
  Zn  Zn76  1  0.30290973  0.58085782  0.06792860  1
  Zn  Zn77  1  0.17835815  0.68152301  0.70267566  1
  Zn  Zn78  1  0.09848622  0.80806637  0.01378895  1
  Zn  Zn79  1  0.24626237  0.19008385  0.15754253  1
  Zn  Zn80  1  0.87481092  0.32207109  0.29950090  1
  Zn  Zn81  1  0.14323521  0.69640065  0.17457561  1
  Zn  Zn82  1  0.36344670  0.32266448  0.27922804  1
  Zn  Zn83  1  0.70493305  0.84003075  0.31181649  1
  Zn  Zn84  1  0.47890937  0.43290501  0.68235911  1
  Zn  Zn85  1  0.79158692  0.54699681  0.04717996  1
  Zn  Zn86  1  0.54130309  0.74928917  0.04923073  1
  Zn  Zn87  1  0.80736766  0.54206188  0.52028759  1
  Zn  Zn88  1  0.60162568  0.26140671  0.14763551  1
  Zn  Zn89  1  0.68650538  0.68827928  0.70494746  1
  Zn  Zn90  1  0.31839949  0.35365837  0.80025431  1
  Zn  Zn91  1  0.35426382  0.52947244  0.56756087  1
  Zn  Zn92  1  0.06543335  0.82245780  0.54079361  1
  Zn  Zn93  1  0.39590209  0.95063678  0.14168846  1
  Zn  Zn94  1  0.05113452  0.55591365  0.30542448  1
  Zn  Zn95  1  0.61297062  0.47385727  0.83805522  1
  Zn  Zn96  1  0.42498110  0.66786665  0.94509292  1
  Zn  Zn97  1  0.84903185  0.91317932  0.22938465  1
  Zn  Zn98  1  0.66507316  0.95564540  0.46472473  1
  Zn  Zn99  1  0.95716199  0.68678386  0.41688282  1
  Zn  Zn100  1  0.82017875  0.19565686  0.83396064  1
  Zn  Zn101  1  0.73701921  0.21471162  0.28190660  1
  O  O102  1  0.16004502  0.12538918  0.11498446  1
  O  O103  1  0.17134525  0.16177428  0.54395699  1
  O  O104  1  0.08258018  0.60452808  0.14031040  1
  O  O105  1  0.13521129  0.62781559  0.61009552  1
  O  O106  1  0.69948543  0.18044093  0.07996699  1
  O  O107  1  0.53695158  0.08853036  0.62056048  1
  O  O108  1  0.55237036  0.48858976  0.07183982  1
  O  O109  1  0.65381313  0.61227860  0.62651885  1
  O  O110  1  0.37182130  0.41118584  0.34290347  1
  O  O111  1  0.37412515  0.42416564  0.86229622  1
  O  O112  1  0.48803091  0.88520198  0.47415381  1
  O  O113  1  0.34901501  0.86995115  0.89371233  1
  O  O114  1  0.89629812  0.36503789  0.40412421  1
  O  O115  1  0.88908744  0.40005135  0.85855465  1
  O  O116  1  0.82174985  0.79506147  0.48882735  1
  O  O117  1  0.90870058  0.88731303  0.95118474  1
  O  O118  1  0.24601161  0.06517667  0.45263123  1
  O  O119  1  0.24015410  -0.01315475  0.87121303  1
  O  O120  1  0.21029523  0.62203761  0.43762966  1
  O  O121  1  0.20834638  0.47252134  0.85373482  1
  O  O122  1  0.75091189  0.02644282  0.43736384  1
  O  O123  1  0.78664862  -0.01735040  0.90753946  1
  O  O124  1  0.77965461  0.54932703  0.29824939  1
  O  O125  1  0.72585153  0.52621587  0.85735953  1
  O  O126  1  0.24553774  0.49881713  0.13362864  1
  O  O127  1  0.24317370  0.52033303  0.59475069  1
  O  O128  1  0.34352475  1.02302994  0.06097002  1
  O  O129  1  0.22746195  0.99713914  0.63754508  1
  O  O130  1  0.71317534  0.47429196  0.06185112  1
  O  O131  1  0.70346209  0.49360574  0.52516097  1
  O  O132  1  0.74849511  1.02878289  0.10894143  1
  O  O133  1  0.74533059  1.06815395  0.62163538  1
  O  O134  1  -0.02122783  0.37277103  0.28311821  1
  O  O135  1  0.07527305  0.34405680  0.79056295  1
  O  O136  1  -0.07987086  0.91689630  0.32114096  1
  O  O137  1  -0.01513947  0.85038041  0.76281778  1
  O  O138  1  0.49211819  0.32268140  0.26328104  1
  O  O139  1  0.48715398  0.32246825  0.73357469  1
  O  O140  1  0.45941009  0.89337226  0.24857719  1
  O  O141  1  0.53638155  0.95768448  0.78243511  1
  O  O142  1  0.47569899  0.11549805  0.24193076  1
  O  O143  1  0.46727364  0.13837252  0.81392443  1
  O  O144  1  0.53134819  0.58505805  0.19237815  1
  O  O145  1  0.45909528  0.61673069  0.76062949  1
  O  O146  1  0.98526502  0.13859846  0.25649222  1
  O  O147  1  1.01676100  0.09498193  0.76328445  1
  O  O148  1  0.96480707  0.55743980  0.23005431  1
  O  O149  1  0.96217230  0.65429089  0.71816834  1
  O  O150  1  0.44874063  0.32953737  0.02430123  1
  O  O151  1  0.30456541  0.23267202  0.45585928  1
  O  O152  1  0.37178527  0.73318675  0.02565943  1
  O  O153  1  0.37474482  0.79244477  0.56038128  1
  O  O154  1  0.82773711  0.26262035  -0.08172701  1
  O  O155  1  0.91027901  0.24871504  0.50183776  1
  O  O156  1  0.85532543  0.74287820  0.01442906  1
  O  O157  1  0.86687054  0.74940980  0.51742802  1
  O  O158  1  0.13341274  0.14513357  0.36860494  1
  O  O159  1  0.12098407  0.21545340  0.97172730  1
  O  O160  1  0.11185142  0.76791895  0.46015143  1
  O  O161  1  0.13944722  0.71058147  1.05039972  1
  O  O162  1  0.48240329  0.19672250  0.50722847  1
  O  O163  1  0.81157929  0.29700600  1.12722388  1
  O  O164  1  0.55024010  0.62831359  0.46358910  1
  O  O165  1  0.62561224  0.72439317  0.97696963  1
  O  O166  1  0.53424782  0.19105172  0.09056586  1
  O  O167  1  0.42680263  0.19252409  0.69205016  1
  O  O168  1  0.47083489  0.75781257  0.14270400  1
  O  O169  1  0.49002442  0.73417735  0.65964457  1
  O  O170  1  1.03676282  0.24272575  0.08460124  1
  O  O171  1  1.06007675  0.27924689  0.81225233  1
  O  O172  1  0.95638215  0.70037708  0.16451925  1
  O  O173  1  0.99537180  0.77611956  0.61567340  1
  O  O174  1  0.01742545  0.26121286  0.38558300  1
  O  O175  1  0.00418577  0.34171489  0.95936496  1
  O  O176  1  -0.03218230  0.78944710  0.39324808  1
  O  O177  1  -0.02936651  0.76837955  0.89031463  1
  O  O178  1  0.52054956  0.31594184  0.33019300  1
  O  O179  1  0.49903429  0.25822716  0.87505066  1
  O  O180  1  0.52114441  0.76422839  0.37252211  1
  O  O181  1  0.50292688  0.72197823  0.87215733  1
  O  O182  1  0.15941432  0.22284328  0.51300150  1
  O  O183  1  0.18512620  0.08124581  1.05573522  1
  O  O184  1  0.23668241  0.67091817  0.47989243  1
  O  O185  1  0.25859138  0.59830096  0.96642715  1
  O  O186  1  0.60777518  0.18372028  0.55427892  1
  O  O187  1  0.72535040  0.20293832  1.01772547  1
  O  O188  1  0.76684320  0.60939242  0.43753759  1
  O  O189  1  0.75652239  0.62807485  0.97726201  1
  O  O190  1  0.27790696  0.40972770  0.01510433  1
  O  O191  1  0.27923221  0.38820971  0.51358566  1
  O  O192  1  0.30258671  0.99888846  0.00167425  1
  O  O193  1  0.34309358  0.86043325  0.40859563  1
  O  O194  1  0.76573214  0.36108992  -0.03294860  1
  O  O195  1  0.80964547  0.35978845  0.53574235  1
  O  O196  1  0.73898319  0.82984216  -0.00661318  1
  O  O197  1  0.72776593  0.91657765  0.55544615  1
  O  O198  1  0.12722461  0.50497167  0.24343966  1
  O  O199  1  0.14597861  0.50830832  0.70830598  1
  O  O200  1  0.04452122  0.94851545  0.16773851  1
  O  O201  1  0.13761569  0.98629975  0.74407748  1
  O  O202  1  0.63091003  0.43889569  0.26113619  1
  O  O203  1  0.72125958  0.48102740  0.68223900  1
  O  O204  1  0.62141841  1.05763960  0.19166494  1
  O  O205  1  0.66304611  1.03180557  0.75795047  1
  O  O206  1  0.37869576  0.02955715  0.22088163  1
  O  O207  1  0.37460011  0.00809664  0.81690159  1
  O  O208  1  0.35739577  0.55597605  0.27927905  1
  O  O209  1  0.33352561  0.53279174  0.76535830  1
  O  O210  1  0.87082270  0.02398243  0.21648099  1
  O  O211  1  0.86713679  0.03210719  0.72158776  1
  O  O212  1  0.86973855  0.42566945  0.12835522  1
  O  O213  1  0.88430278  0.52143858  0.71626647  1
  O  O214  1  0.11792124  0.37957762  0.38492552  1
  O  O215  1  0.12745557  0.38177547  0.96437889  1
  O  O216  1  0.07923000  0.87156824  0.33469472  1
  O  O217  1  0.07242313  0.88442328  0.91656203  1
  O  O218  1  0.67829953  0.36108234  0.39738732  1
  O  O219  1  0.64296430  0.38540194  0.77338103  1
  O  O220  1  0.63839277  0.87659457  0.39238099  1
  O  O221  1  0.65617049  0.87875563  0.83938111  1
  O  O222  1  0.35775254  0.17716853  0.16884160  1
  O  O223  1  0.32774895  0.12672877  0.58073729  1
  O  O224  1  0.33702097  0.65361277  0.14662124  1
  O  O225  1  0.37085674  0.63603045  0.61056893  1
  O  O226  1  0.88623135  0.14647534  0.13630184  1
  O  O227  1  0.92821058  0.13883832  0.63820862  1
  O  O228  1  0.87845601  0.58215752  0.10247728  1
  O  O229  1  0.83362205  0.61750542  0.60404591  1
  O  O230  1  0.23801677  0.28063502  0.09205960  1
  O  O231  1  0.29176759  0.28425043  0.64004652  1
  O  O232  1  0.18257091  0.79992472  0.17261486  1
  O  O233  1  0.26829444  0.73412674  0.66222649  1
  O  O234  1  0.84987233  0.27173758  0.07569516  1
  O  O235  1  0.87122762  0.17647650  0.61544189  1
  O  O236  1  0.72241535  0.71992649  0.10151098  1
  O  O237  1  0.72746101  0.77786439  0.65511356  1
  O  O238  1  0.35076448  0.28474798  0.44593569  1
  O  O239  1  0.22990322  0.29006753  0.85843514  1
  O  O240  1  0.20418272  0.78201666  0.33759926  1
  O  O241  1  0.21956917  0.75454476  0.86304883  1
  O  O242  1  0.74436161  0.18336841  0.40138584  1
  O  O243  1  0.76529818  0.31399347  0.91308016  1
  O  O244  1  0.70994557  0.72434978  0.35546238  1
  O  O245  1  0.71058690  0.69966592  0.86033984  1
  O  O246  1  -0.00178168  0.20452370  0.03538686  1
  O  O247  1  0.01403788  0.10932969  0.50305836  1
  O  O248  1  -0.00386214  0.63009263  0.01843770  1
  O  O249  1  -0.00740335  0.61109183  0.48669565  1
  O  O250  1  0.58762518  0.14176156  -0.05298683  1
  O  O251  1  0.45112392  0.06803507  0.51349196  1
  O  O252  1  0.50113607  0.64242721  0.03887388  1
  O  O253  1  0.55370012  0.56380796  0.48951725  1
  O  O254  1  0.47339732  0.37750675  0.50644066  1
  O  O255  1  0.44998778  0.39189439  0.99111447  1
  O  O256  1  0.59405614  0.77399416  0.51674959  1
  O  O257  1  0.50891299  0.85167257  1.01992266  1
  O  O258  1  1.01015030  0.38149190  0.48974101  1
  O  O259  1  1.05066993  0.39459017  0.94111892  1
  O  O260  1  0.99108565  0.89536828  0.49361664  1
  O  O261  1  0.99736191  0.81352885  1.05839903  1
  O  O262  1  0.49804529  0.50968980  0.35111406  1
  O  O263  1  0.50275291  0.47560698  0.78787066  1
  O  O264  1  0.52050286  0.92443156  0.27030052  1
  O  O265  1  0.45089149  0.98789514  0.94260929  1
  O  O266  1  1.00680469  0.49459055  0.39027585  1
  O  O267  1  0.93955440  0.44674295  0.84489100  1
  O  O268  1  1.01802259  0.98434952  0.42291210  1
  O  O269  1  0.94360433  0.95820459  0.84080821  1
  O  O270  1  0.06767228  0.00821371  0.19481563  1
  O  O271  1  0.01606337  -0.01743313  0.63519303  1
  O  O272  1  0.03438100  0.46082069  0.12254529  1
  O  O273  1  0.03656141  0.49230295  0.60198156  1
  O  O274  1  0.49476992  -0.00979456  0.10130666  1
  O  O275  1  0.46607300  -0.08621932  0.63636781  1
  O  O276  1  0.40341402  0.52489751  0.10314468  1
  O  O277  1  0.56461363  0.47635002  0.62601115  1
  O  O278  1  0.23848276  0.28982917  0.30440116  1
  O  O279  1  0.25575065  0.40687568  0.72560862  1
  O  O280  1  0.22069586  0.94941363  0.16727844  1
  O  O281  1  0.27765852  0.90614627  0.74669933  1
  O  O282  1  0.77812301  0.37410711  0.27340686  1
  O  O283  1  0.78793830  0.33053662  0.72616516  1
  O  O284  1  0.71715993  0.93950087  0.24457976  1
  O  O285  1  0.74749365  0.93542930  0.72322720  1
  O  O286  1  0.27408236  0.11703510  0.25256240  1
  O  O287  1  0.26863366  0.09442436  0.74095290  1
  O  O288  1  0.21667417  0.64368350  0.24731889  1
  O  O289  1  0.21598951  0.61502462  0.78832617  1
  O  O290  1  0.75123316  0.09792933  0.27487975  1
  O  O291  1  0.76552133  0.13913608  0.75979373  1
  O  O292  1  0.78273117  0.67701027  0.24696898  1
  O  O293  1  0.77255579  0.62937251  0.75190937  1
  O  O294  1  0.37379920  0.09146859  0.35831384  1
  O  O295  1  0.38112783  0.19919374  0.98176254  1
  O  O296  1  0.33085376  0.67592355  0.35455508  1
  O  O297  1  0.34032723  0.67668825  0.86734225  1
  O  O298  1  0.88211093  0.11054263  0.37765409  1
  O  O299  1  0.88950349  0.09734244  0.86421851  1
  O  O300  1  0.85508031  0.66647071  0.36757569  1
  O  O301  1  0.86725340  0.61172367  0.87610370  1
  O  O302  1  0.15665001  0.39025087  0.13110117  1
  O  O303  1  0.16468760  0.38064203  0.59746499  1
  O  O304  1  0.18605275  0.87724831  0.02797356  1
  O  O305  1  0.12965310  0.87001706  0.62087034  1
  O  O306  1  0.61800880  0.34139931  0.07533871  1
  O  O307  1  0.66639815  0.35065146  0.61200223  1
  O  O308  1  0.62458869  0.81018889  0.16163642  1
  O  O309  1  0.61570729  0.87963291  0.67413314  1
  O  O310  1  0.19642440  0.25307717  0.25648075  1
  O  O311  1  0.21056283  0.22780340  0.82922942  1
  O  O312  1  0.06525196  0.71830099  0.27939607  1
  O  O313  1  0.09189892  0.73752040  0.73696440  1
  O  O314  1  0.65306885  0.27459578  0.24788515  1
  O  O315  1  0.56903669  0.21937804  0.74782637  1
  O  O316  1  0.61394224  0.79359985  0.23113199  1
  O  O317  1  0.59417154  0.71012543  0.76784023  1
  O  O318  1  0.38912925  0.21517443  0.29905513  1
  O  O319  1  0.37888903  0.26336221  0.80062058  1
  O  O320  1  0.34132063  0.75410608  0.23319388  1
  O  O321  1  0.38806864  0.75778721  0.74685427  1
  O  O322  1  0.84753215  0.22071971  0.26607026  1
  O  O323  1  0.91142141  0.21370418  0.76459323  1
  O  O324  1  0.80361274  0.82389558  0.27545036  1
  O  O325  1  0.90343157  0.71097982  0.74009725  1
  O  O326  1  0.37922336  0.52694268  0.45674188  1
  O  O327  1  0.42999973  0.55815766  0.91190358  1
  O  O328  1  0.35128835  0.94944853  0.53347672  1
  O  O329  1  0.35545641  1.14044615  0.94753204  1
  O  O330  1  0.90494680  0.48778131  0.52163796  1
  O  O331  1  0.87506539  0.46121231  1.00287239  1
  O  O332  1  0.90300755  1.01227879  0.53616386  1
  O  O333  1  0.91037041  1.02802200  1.00429484  1
  O  O334  1  0.13066451  0.03893767  0.02308692  1
  O  O335  1  0.11502895  0.00568605  0.54250868  1
  O  O336  1  0.13556028  0.53286374  0.03270842  1
  O  O337  1  0.12019817  0.51140738  0.49576234  1
  O  O338  1  0.61125819  -0.03240489  -0.01504021  1
  O  O339  1  0.60014900  0.03724581  0.50129032  1
  O  O340  1  0.61045031  0.42595437  -0.06062803  1
  O  O341  1  0.53706143  0.37064108  0.47871607  1
  O  O342  1  0.33479991  0.37545016  0.17964915  1
  O  O343  1  0.37601216  0.43035528  0.62887506  1
  O  O344  1  0.33811029  0.85649936  0.12083899  1
  O  O345  1  0.41649726  0.93773386  0.67804772  1
  O  O346  1  0.90137646  0.41769712  0.05757093  1
  O  O347  1  0.94747897  0.35421805  0.62555313  1
  O  O348  1  0.86871531  0.88179667  0.11610312  1
  O  O349  1  0.85557489  0.87522886  0.64501208  1
  O  O350  1  0.11436513  0.08179096  0.34789358  1
  O  O351  1  0.05649284  0.18447668  0.95913202  1
  O  O352  1  0.05974170  0.66618382  0.34439131  1
  O  O353  1  0.11872037  0.63944449  0.91621093  1
  O  O354  1  0.57408402  0.10373824  0.42777586  1
  O  O355  1  0.59368816  0.09338352  0.89398918  1
  O  O356  1  0.66228642  0.60236788  0.32422853  1
  O  O357  1  0.59416599  0.59457773  0.88040092  1
