# generated using pymatgen
data_V51Zn51O256
_symmetry_space_group_name_H-M   'P 1'
_cell_length_a   17.91981217
_cell_length_b   17.61590421
_cell_length_c   17.56440445
_cell_angle_alpha   91.83661553
_cell_angle_beta   89.90245142
_cell_angle_gamma   90.65811970
_symmetry_Int_Tables_number   1
_chemical_formula_structural   V51Zn51O256
_chemical_formula_sum   'V51 Zn51 O256'
_cell_volume   5541.40156700
_cell_formula_units_Z   1
loop_
 _symmetry_equiv_pos_site_id
 _symmetry_equiv_pos_as_xyz
  1  'x, y, z'
loop_
 _atom_site_type_symbol
 _atom_site_label
 _atom_site_symmetry_multiplicity
 _atom_site_fract_x
 _atom_site_fract_y
 _atom_site_fract_z
 _atom_site_occupancy
  V  V0  1  0.70916422  0.23237318  0.52273361  1
  V  V1  1  0.37111160  0.09456010  0.24934455  1
  V  V2  1  0.04678186  0.64097483  0.11833031  1
  V  V3  1  0.04402426  0.36217477  0.91457359  1
  V  V4  1  0.91045501  0.27568402  0.16163896  1
  V  V5  1  0.88887494  0.13562675  0.25690304  1
  V  V6  1  0.25835883  0.27095967  0.49159631  1
  V  V7  1  0.22926257  0.89746524  0.56796150  1
  V  V8  1  0.64116617  0.90018287  0.75194301  1
  V  V9  1  0.73919576  0.01003472  0.24164811  1
  V  V10  1  0.40732769  0.49321081  0.83847072  1
  V  V11  1  0.39005830  0.19536292  0.61278290  1
  V  V12  1  0.24850689  0.86316838  0.06262622  1
  V  V13  1  0.35154883  0.81289634  -0.06355021  1
  V  V14  1  0.12513311  0.31593335  0.74338965  1
  V  V15  1  0.77603569  0.66158042  0.32528799  1
  V  V16  1  0.38641813  0.25471173  0.15427796  1
  V  V17  1  0.61670297  -0.01682929  0.59560492  1
  V  V18  1  0.72470420  0.15265820  0.36934924  1
  V  V19  1  0.26349999  0.10430725  0.91224881  1
  V  V20  1  -0.02133537  0.87680355  0.85691398  1
  V  V21  1  0.34415637  0.64277588  0.27691789  1
  V  V22  1  0.69295564  0.40934559  0.60954167  1
  V  V23  1  0.48073345  0.20239855  0.76982052  1
  V  V24  1  0.16750720  0.41195722  0.28930437  1
  V  V25  1  0.15820856  0.88770066  0.73959955  1
  V  V26  1  0.33592164  0.36607315  0.02665600  1
  V  V27  1  0.49856899  0.87874074  0.86754972  1
  V  V28  1  -0.05792265  0.41523954  0.48246504  1
  V  V29  1  0.66815246  0.81359663  0.28073850  1
  V  V30  1  0.60660415  0.42275823  0.74418020  1
  V  V31  1  0.10986347  0.04024876  0.63729983  1
  V  V32  1  -0.00406419  0.20979613  0.84579841  1
  V  V33  1  0.87479053  0.76678299  0.61797047  1
  V  V34  1  -0.02958759  0.07918921  0.54859573  1
  V  V35  1  0.62159986  0.70471209  0.41571989  1
  V  V36  1  0.70458870  0.49016901  0.28460170  1
  V  V37  1  -0.03197018  0.01340519  -0.00372319  1
  V  V38  1  -0.01929869  0.93571181  0.41921168  1
  V  V39  1  0.90263669  0.45126858  0.84931839  1
  V  V40  1  0.89662714  0.36805900  0.00643844  1
  V  V41  1  -0.01507330  0.77951899  0.23101996  1
  V  V42  1  0.09099595  0.64683467  0.50233622  1
  V  V43  1  0.23615062  0.06480947  0.36533447  1
  V  V44  1  0.44759026  0.77443022  0.69527112  1
  V  V45  1  0.64569425  0.05456014  0.10314049  1
  V  V46  1  0.53987590  0.35994097  0.88549064  1
  V  V47  1  0.65162363  0.72541993  0.92109133  1
  V  V48  1  0.69669380  0.56724011  0.01398991  1
  V  V49  1  0.75542849  0.27095853  0.05082832  1
  V  V50  1  0.53610149  0.61762715  0.08601840  1
  Zn  Zn51  1  0.23137236  0.16741739  0.71129253  1
  Zn  Zn52  1  0.24773074  0.44780026  0.46594374  1
  Zn  Zn53  1  0.47454267  0.66624525  0.90365760  1
  Zn  Zn54  1  0.82335829  0.09660985  0.07811482  1
  Zn  Zn55  1  0.05320934  0.83521162  0.57637589  1
  Zn  Zn56  1  0.99857114  0.70640219  0.93583185  1
  Zn  Zn57  1  0.80154029  0.47080270  0.10628288  1
  Zn  Zn58  1  0.99997317  0.20546433  1.02864691  1
  Zn  Zn59  1  0.93636807  0.73682713  0.41298266  1
  Zn  Zn60  1  0.18441795  0.75122812  0.21514826  1
  Zn  Zn61  1  0.57510300  0.80085465  0.10059255  1
  Zn  Zn62  1  0.49271624  0.01784991  0.76398559  1
  Zn  Zn63  1  0.06205603  0.26756205  0.55270291  1
  Zn  Zn64  1  0.29426625  0.28449566  0.83632850  1
  Zn  Zn65  1  0.41777383  0.35057321  0.71656378  1
  Zn  Zn66  1  0.94704781  0.94894723  0.68163742  1
  Zn  Zn67  1  0.64180265  0.15995120  0.67348309  1
  Zn  Zn68  1  0.99248989  0.45246528  0.10499564  1
  Zn  Zn69  1  0.76947321  0.08681051  0.55951231  1
  Zn  Zn70  1  0.83725587  0.86273348  0.29426163  1
  Zn  Zn71  1  0.64395960  0.98007091  0.39323689  1
  Zn  Zn72  1  0.79453896  0.82518927  0.81688203  1
  Zn  Zn73  1  0.14453164  0.84382762  0.92049518  1
  Zn  Zn74  1  0.07335211  0.52291308  0.38114313  1
  Zn  Zn75  1  0.04637293  0.06289423  0.36043625  1
  Zn  Zn76  1  0.36698124  0.13390308  0.43433335  1
  Zn  Zn77  1  0.42531074  0.93279507  0.60941074  1
  Zn  Zn78  1  0.44674547  0.91492725  0.05572801  1
  Zn  Zn79  1  0.80251685  0.20616628  0.90430485  1
  Zn  Zn80  1  0.56910491  0.10431864  0.26067576  1
  Zn  Zn81  1  0.70846308  0.69652215  0.14326956  1
  Zn  Zn82  1  0.53472982  0.57325837  0.32735274  1
  Zn  Zn83  1  0.67748509  0.80820457  0.57070920  1
  Zn  Zn84  1  0.08391531  0.02361326  0.83513785  1
  Zn  Zn85  1  0.06648804  0.87888974  0.09869910  1
  Zn  Zn86  1  0.34881463  0.30377383  0.35817341  1
  Zn  Zn87  1  0.25913272  0.58232392  0.56744939  1
  Zn  Zn88  1  0.25308906  0.74336740  0.68161630  1
  Zn  Zn89  1  0.76141838  0.35962650  0.41563171  1
  Zn  Zn90  1  0.52054288  0.60234098  0.74199847  1
  Zn  Zn91  1  0.72802290  0.39896055  0.91806662  1
  Zn  Zn92  1  0.54428997  0.29776064  0.59733235  1
  Zn  Zn93  1  0.23866973  0.22160619  0.25661430  1
  Zn  Zn94  1  0.15969743  0.88811248  0.36649727  1
  Zn  Zn95  1  0.57139542  0.22777786  0.11102310  1
  Zn  Zn96  1  0.34722654  0.89359605  0.75645256  1
  Zn  Zn97  1  0.32937669  0.04702867  0.09364767  1
  Zn  Zn98  1  0.41791251  0.24301898  0.94405257  1
  Zn  Zn99  1  0.37612362  0.54385963  0.09840772  1
  Zn  Zn100  1  0.33537562  0.44424652  0.21501009  1
  Zn  Zn101  1  0.28760326  0.05202179  0.56797439  1
  O  O102  1  0.12525364  0.17395652  0.25644347  1
  O  O103  1  0.13728232  0.12871592  0.66806170  1
  O  O104  1  0.12986757  0.67658520  0.15111072  1
  O  O105  1  0.06139664  0.63191260  0.59583690  1
  O  O106  1  0.59012108  0.12809502  0.14799040  1
  O  O107  1  0.67610788  0.06639016  0.62098394  1
  O  O108  1  0.64035747  0.60773251  0.09401793  1
  O  O109  1  0.61528084  0.76465811  0.49423930  1
  O  O110  1  0.42362470  0.39846736  0.33595510  1
  O  O111  1  0.34545056  0.32720284  0.92415549  1
  O  O112  1  0.37399832  0.89643380  0.34067164  1
  O  O113  1  0.37960693  0.87045041  0.86114659  1
  O  O114  1  0.89080370  0.47176347  0.29364163  1
  O  O115  1  0.89985993  0.35664028  0.90786283  1
  O  O116  1  0.90132706  0.89749022  0.37673929  1
  O  O117  1  0.88729123  0.85310602  0.86794534  1
  O  O118  1  0.22513930  -0.02723437  0.33865907  1
  O  O119  1  0.30823164  0.01745446  0.90174029  1
  O  O120  1  0.27690084  0.54968093  0.46294575  1
  O  O121  1  0.33027310  0.50567171  0.88674403  1
  O  O122  1  0.72508747  0.04248941  0.34724503  1
  O  O123  1  0.72399112  0.10415979  0.79341424  1
  O  O124  1  0.76464532  0.55880832  0.33148924  1
  O  O125  1  0.81160050  0.46679297  0.88091737  1
  O  O126  1  0.28753776  0.50404165  0.14249395  1
  O  O127  1  0.22719407  0.47856266  0.56803318  1
  O  O128  1  0.25748595  0.95662213  0.08725457  1
  O  O129  1  0.19734843  1.00073599  0.60657628  1
  O  O130  1  0.74117281  0.46899146  0.19572834  1
  O  O131  1  0.70692514  0.49522875  0.58288075  1
  O  O132  1  0.74449250  1.04774919  0.13916297  1
  O  O133  1  0.79147561  0.91958820  0.49709701  1
  O  O134  1  0.07508356  0.38164878  0.28626263  1
  O  O135  1  0.03990974  0.30084528  0.80936210  1
  O  O136  1  0.05940180  0.83210010  0.19304043  1
  O  O137  1  -0.01068420  0.88768458  0.76161951  1
  O  O138  1  0.43477224  0.41862862  0.26728029  1
  O  O139  1  0.52590497  0.36840714  0.75649592  1
  O  O140  1  0.49990071  0.86837573  0.13142157  1
  O  O141  1  0.48781159  0.82598445  0.77241134  1
  O  O142  1  0.46305561  0.12270613  0.25821302  1
  O  O143  1  0.48207114  0.11906696  0.81363342  1
  O  O144  1  0.43853751  0.60976148  0.30648046  1
  O  O145  1  0.48720022  0.68448117  0.68714729  1
  O  O146  1  0.97170347  0.10483664  0.29268278  1
  O  O147  1  1.03900808  0.12658658  0.82758276  1
  O  O148  1  1.00551843  0.57109939  0.30251158  1
  O  O149  1  0.98856142  0.60465215  0.86234468  1
  O  O150  1  0.37721119  0.26293749  0.04920508  1
  O  O151  1  0.41823805  0.15621933  0.52732077  1
  O  O152  1  0.38323027  0.72309078  -0.07934609  1
  O  O153  1  0.38697938  0.62693270  0.56314708  1
  O  O154  1  0.90042678  0.27483361  0.03678330  1
  O  O155  1  0.77957406  0.20795626  0.57900376  1
  O  O156  1  0.87636079  0.69757560  -0.08399567  1
  O  O157  1  0.89542664  0.76041707  0.51721120  1
  O  O158  1  0.16408202  0.27274495  0.50310306  1
  O  O159  1  0.15474322  0.24342739  1.10528491  1
  O  O160  1  0.08683076  0.74667219  0.51173362  1
  O  O161  1  0.31845721  0.61349726  1.01293980  1
  O  O162  1  0.62755963  0.22503700  0.58068326  1
  O  O163  1  0.66431719  0.26922558  1.07968859  1
  O  O164  1  0.48063407  0.79786130  0.40580868  1
  O  O165  1  0.62988501  0.76792115  1.00733396  1
  O  O166  1  0.48108069  0.25854587  0.16253582  1
  O  O167  1  0.45358545  0.15370306  0.67473881  1
  O  O168  1  0.52126359  0.70333639  0.12798845  1
  O  O169  1  0.46205006  0.82603794  0.61558393  1
  O  O170  1  0.99807367  0.24108023  0.12961302  1
  O  O171  1  0.88200302  0.17349367  0.71107254  1
  O  O172  1  0.97583830  0.69219537  0.17286427  1
  O  O173  1  0.97673839  0.77292810  0.63386216  1
  O  O174  1  -0.00563971  0.27080606  0.38352199  1
  O  O175  1  0.03206695  0.24914273  0.93549307  1
  O  O176  1  -0.00466950  0.76851944  0.32854179  1
  O  O177  1  0.03321152  0.80059757  0.89693700  1
  O  O178  1  0.47097174  0.30760510  0.45026721  1
  O  O179  1  0.49569764  0.26518514  0.86595098  1
  O  O180  1  0.43577897  0.79168606  0.45815498  1
  O  O181  1  0.57185195  0.70833671  0.86676944  1
  O  O182  1  0.26952108  0.07312975  0.46204219  1
  O  O183  1  0.25757187  0.10267466  1.01199485  1
  O  O184  1  0.18658634  0.66147721  0.52170466  1
  O  O185  1  0.18727111  0.52237135  0.97923532  1
  O  O186  1  0.70878861  0.12991418  0.47249855  1
  O  O187  1  0.78435625  0.17855120  1.01687809  1
  O  O188  1  0.71444925  0.67469663  0.41001573  1
  O  O189  1  0.78285530  0.56840218  1.05265363  1
  O  O190  1  0.24639267  0.37605906  0.03474270  1
  O  O191  1  0.29831149  0.35708808  0.45218555  1
  O  O192  1  0.25230122  0.81607613  -0.05799950  1
  O  O193  1  0.19169029  0.89013235  0.47943395  1
  O  O194  1  0.79366971  0.37508885  0.03690866  1
  O  O195  1  0.71549823  0.34185174  0.53209250  1
  O  O196  1  0.88845956  0.78614573  0.04331592  1
  O  O197  1  0.75100695  0.86498097  0.47545574  1
  O  O198  1  0.15058021  0.51381674  0.29359042  1
  O  O199  1  0.14242160  0.40616437  0.74362489  1
  O  O200  1  0.06887776  1.20479955  0.23187551  1
  O  O201  1  0.10234371  0.99065158  0.72796289  1
  O  O202  1  0.61449746  0.52617259  0.27876659  1
  O  O203  1  0.58736510  0.51798822  0.74271706  1
  O  O204  1  0.64153423  1.01956189  0.22705096  1
  O  O205  1  0.59914793  0.98760132  0.73889244  1
  O  O206  1  0.36560519  0.01237385  0.19869747  1
  O  O207  1  0.41058478  -0.03085066  0.71439555  1
  O  O208  1  0.34021663  0.53773288  0.28551992  1
  O  O209  1  0.38564536  0.44776461  0.75186577  1
  O  O210  1  0.83426444  0.04760505  0.25169482  1
  O  O211  1  0.85751867  0.00864675  0.74082614  1
  O  O212  1  0.89148832  0.51054125  0.23715148  1
  O  O213  1  0.90200248  0.42640835  0.76020169  1
  O  O214  1  0.15810213  0.43279197  0.39503973  1
  O  O215  1  0.13301179  0.37683577  0.91695844  1
  O  O216  1  0.05878761  0.94246295  0.35907770  1
  O  O217  1  0.12851699  0.91166213  0.83964431  1
  O  O218  1  0.44719452  0.25741125  0.39531530  1
  O  O219  1  0.63090823  0.39676222  0.84555703  1
  O  O220  1  0.63176004  0.89025129  0.32700013  1
  O  O221  1  0.60036772  0.87360939  0.84111283  1
  O  O222  1  0.35269803  0.15448676  0.15210178  1
  O  O223  1  0.31085331  0.13362904  0.64273844  1
  O  O224  1  0.35178290  0.63087994  0.17057641  1
  O  O225  1  0.43640925  0.62696402  0.51366581  1
  O  O226  1  0.88996443  0.14114401  0.15716009  1
  O  O227  1  0.86585721  0.02037495  0.81080953  1
  O  O228  1  0.84144131  0.64205353  -0.11276274  1
  O  O229  1  0.88031962  0.66905940  0.62611434  1
  O  O230  1  0.21668949  0.23757528  0.13772170  1
  O  O231  1  0.30483789  0.25701383  0.57518914  1
  O  O232  1  0.26507783  0.65567603  0.02809246  1
  O  O233  1  0.25516317  0.80832229  0.59142243  1
  O  O234  1  0.80545764  0.27157778  0.14021119  1
  O  O235  1  0.85332495  0.32915222  0.64310923  1
  O  O236  1  0.77255452  0.74360687  0.06255159  1
  O  O237  1  0.78177569  0.77347729  0.59283710  1
  O  O238  1  0.28963998  0.21469001  0.41177054  1
  O  O239  1  0.23060997  0.20224754  0.90840294  1
  O  O240  1  0.17036499  0.79372389  0.31417693  1
  O  O241  1  0.21809040  0.56954480  0.79118667  1
  O  O242  1  0.72453542  0.25293019  0.41999059  1
  O  O243  1  0.74272465  0.29065658  0.93887843  1
  O  O244  1  0.75463610  0.78552622  0.31949352  1
  O  O245  1  0.72294617  0.76755372  0.87175021  1
  O  O246  1  0.01252220  0.09885219  0.00777107  1
  O  O247  1  -0.00844233  0.17284588  0.54812006  1
  O  O248  1  0.03388359  0.66243711  0.02369095  1
  O  O249  1  -0.00324615  0.65357689  0.46659762  1
  O  O250  1  0.50364341  0.17471702  0.00251515  1
  O  O251  1  0.49438985  0.03097127  0.41206374  1
  O  O252  1  0.50808462  0.61604892  -0.00647001  1
  O  O253  1  0.56064423  0.62996531  0.42013689  1
  O  O254  1  0.53829073  0.29378219  0.47691440  1
  O  O255  1  0.56053694  0.34667211  0.97435190  1
  O  O256  1  0.34196580  0.87662620  0.39828653  1
  O  O257  1  0.48168147  0.84993079  0.95920873  1
  O  O258  1  1.00148948  0.35154866  0.52247222  1
  O  O259  1  1.00770931  0.37804367  1.01339730  1
  O  O260  1  1.00358219  0.88629363  0.49787875  1
  O  O261  1  0.99863267  0.94970344  1.06111106  1
  O  O262  1  0.52761987  0.46767318  0.41672230  1
  O  O263  1  0.47274068  0.43327351  0.89011627  1
  O  O264  1  0.56179850  1.05379786  0.37363356  1
  O  O265  1  0.49311800  0.97280958  0.86850558  1
  O  O266  1  0.99181210  0.46246565  0.40922687  1
  O  O267  1  1.00596750  0.44701574  0.87653950  1
  O  O268  1  0.96876756  1.03597498  0.44493656  1
  O  O269  1  0.99762917  0.97303339  0.90012768  1
  O  O270  1  0.13930081  0.03685383  0.17488249  1
  O  O271  1  -0.00952656  0.03869963  0.64490917  1
  O  O272  1  0.04249186  0.54323070  0.12952008  1
  O  O273  1  -0.07696460  0.48621076  0.54495473  1
  O  O274  1  0.56791507  -0.01964816  0.07078293  1
  O  O275  1  0.52290886  -0.00688218  0.59613081  1
  O  O276  1  0.47994567  0.55169084  0.13076895  1
  O  O277  1  0.45658019  0.47019627  0.57026578  1
  O  O278  1  0.26947093  0.41388594  0.29997989  1
  O  O279  1  0.21441867  0.26654839  0.76317487  1
  O  O280  1  0.24119357  0.81218222  0.14252148  1
  O  O281  1  0.24666792  0.92264403  0.73437500  1
  O  O282  1  0.70600420  0.41390808  0.34348076  1
  O  O283  1  0.70343077  0.40427504  0.71331126  1
  O  O284  1  0.75441244  0.91380891  0.24115298  1
  O  O285  1  0.73404090  0.90582095  0.77086559  1
  O  O286  1  0.26092520  0.11897917  0.27465496  1
  O  O287  1  0.26375826  0.10896044  0.80834807  1
  O  O288  1  0.25144612  0.66133187  0.24645375  1
  O  O289  1  0.25094861  0.63855863  0.65625084  1
  O  O290  1  0.81167008  0.16711614  0.32806343  1
  O  O291  1  0.72647189  0.17020166  0.75645346  1
  O  O292  1  0.76306868  0.66257916  0.22815465  1
  O  O293  1  0.65065998  0.74120465  0.66826743  1
  O  O294  1  0.35968903  0.06517627  0.34807302  1
  O  O295  1  0.35376782  0.14931419  0.92020113  1
  O  O296  1  0.30813829  0.66499821  0.36468411  1
  O  O297  1  0.45129299  0.58501117  0.82496503  1
  O  O298  1  1.04245921  0.22604776  0.40203204  1
  O  O299  1  0.75281145  0.10647316  0.86242937  1
  O  O300  1  0.86447305  0.67741659  0.35549867  1
  O  O301  1  0.92901296  0.57279522  0.83494761  1
  O  O302  1  0.17086087  0.41920727  0.19292382  1
  O  O303  1  0.09377016  0.28505399  0.65717756  1
  O  O304  1  0.14827194  0.86154128  0.03041152  1
  O  O305  1  0.13113643  0.88042322  0.63197591  1
  O  O306  1  0.58050487  0.35424589  0.26004879  1
  O  O307  1  0.59287180  0.39653383  0.62878332  1
  O  O308  1  0.63281124  0.94356918  0.07933402  1
  O  O309  1  0.64713821  0.89273507  0.63758169  1
  O  O310  1  0.18643959  0.31328476  0.29790601  1
  O  O311  1  -0.05763717  0.20779311  0.71905191  1
  O  O312  1  0.04102276  0.62206072  0.26915714  1
  O  O313  1  0.17217989  0.79116348  0.74507216  1
  O  O314  1  0.56400739  0.32932427  0.32217499  1
  O  O315  1  0.57058363  0.21800536  0.73338665  1
  O  O316  1  0.65586635  0.79085065  0.18168811  1
  O  O317  1  0.64035301  0.77781897  0.73134173  1
  O  O318  1  0.34232633  0.26311668  0.25376553  1
  O  O319  1  0.38608605  0.25415631  0.76646482  1
  O  O320  1  0.39253565  0.72593662  0.26907726  1
  O  O321  1  0.35203701  0.78033197  0.71906292  1
  O  O322  1  0.90926597  0.24394856  0.25611530  1
  O  O323  1  0.90324763  0.19609175  0.86538954  1
  O  O324  1  0.90272446  0.82304163  0.21593127  1
  O  O325  1  0.84926234  0.77152286  0.71694052  1
  O  O326  1  0.40780080  0.45164148  0.52360558  1
  O  O327  1  0.37901247  0.45548232  1.03051512  1
  O  O328  1  0.48924330  0.96126758  0.42550200  1
  O  O329  1  0.40973944  1.01078993  1.03282531  1
  O  O330  1  0.86085299  0.37582810  0.44589924  1
  O  O331  1  0.89822625  0.46440887  1.04919718  1
  O  O332  1  0.87289645  1.06621559  0.55795291  1
  O  O333  1  0.87505597  1.02840294  1.00670390  1
  O  O334  1  0.11816274  0.07047787  0.11871472  1
  O  O335  1  0.07392314  0.04603441  0.54168637  1
  O  O336  1  0.13521667  0.55366465  -0.05111872  1
  O  O337  1  0.09522355  0.54387952  0.50019444  1
  O  O338  1  0.66304974  0.08768628  0.01963945  1
  O  O339  1  0.64057609  -0.03261230  0.50253305  1
  O  O340  1  0.67491995  0.47765437  -0.01498015  1
  O  O341  1  0.57747354  0.46979020  0.46547262  1
  O  O342  1  0.35254021  0.35706646  0.14409783  1
  O  O343  1  0.43931555  0.29187364  0.62165922  1
  O  O344  1  0.35256353  0.84767794  0.03544767  1
  O  O345  1  0.32347690  0.94422144  0.56407995  1
  O  O346  1  0.93146088  0.37164102  0.16452443  1
  O  O347  1  0.82830441  0.39168863  0.62870413  1
  O  O348  1  0.84858796  0.73406270  0.07192965  1
  O  O349  1  0.88638314  0.86920222  0.62598499  1
  O  O350  1  0.14532807  0.09828934  0.37419568  1
  O  O351  1  0.17207554  0.06606440  0.90572350  1
  O  O352  1  0.11313152  0.63460714  0.40192292  1
  O  O353  1  0.15171394  0.57287041  0.80765789  1
  O  O354  1  0.65243795  0.16863862  0.31039874  1
  O  O355  1  0.51003702  0.10778670  0.97770539  1
  O  O356  1  0.60830991  0.74196674  0.32198147  1
  O  O357  1  0.69070958  0.63191864  0.93890723  1
