# generated using pymatgen
data_V51Zn51O256
_symmetry_space_group_name_H-M   'P 1'
_cell_length_a   17.52380367
_cell_length_b   17.27543860
_cell_length_c   17.36760285
_cell_angle_alpha   88.69126311
_cell_angle_beta   89.99003942
_cell_angle_gamma   89.70753847
_symmetry_Int_Tables_number   1
_chemical_formula_structural   V51Zn51O256
_chemical_formula_sum   'V51 Zn51 O256'
_cell_volume   5256.27860320
_cell_formula_units_Z   1
loop_
 _symmetry_equiv_pos_site_id
 _symmetry_equiv_pos_as_xyz
  1  'x, y, z'
loop_
 _atom_site_type_symbol
 _atom_site_label
 _atom_site_symmetry_multiplicity
 _atom_site_fract_x
 _atom_site_fract_y
 _atom_site_fract_z
 _atom_site_occupancy
  V  V0  1  0.62285698  0.37157937  0.24709071  1
  V  V1  1  0.52956912  0.51072159  0.01833350  1
  V  V2  1  0.25854316  0.87359356  0.61633478  1
  V  V3  1  0.02829683  0.00292316  -0.06365515  1
  V  V4  1  0.52343858  -0.00441885  0.49717742  1
  V  V5  1  0.11912036  0.91674756  0.26670745  1
  V  V6  1  0.46633464  0.87697570  0.86218519  1
  V  V7  1  0.39018795  0.26939649  0.60602385  1
  V  V8  1  0.79808066  0.86609021  0.11253686  1
  V  V9  1  0.13903441  0.68124496  0.01173181  1
  V  V10  1  0.48891442  0.24408730  0.74903365  1
  V  V11  1  0.72655966  0.83405913  0.68103255  1
  V  V12  1  0.49876265  0.11374447  0.63145727  1
  V  V13  1  -0.00274558  0.25975628  0.70429190  1
  V  V14  1  0.06324311  0.36058348  0.30191712  1
  V  V15  1  0.48862685  -0.01362033  -0.00503282  1
  V  V16  1  0.74344011  0.10413115  0.83828980  1
  V  V17  1  0.62181844  0.11241766  -0.01278812  1
  V  V18  1  0.11528563  0.76449996  0.85244377  1
  V  V19  1  0.61289539  0.49839623  0.67131679  1
  V  V20  1  0.13920879  0.53191730  0.59712343  1
  V  V21  1  0.26537687  0.54685987  0.24531975  1
  V  V22  1  0.64227934  0.01082557  0.65870500  1
  V  V23  1  0.74904715  0.60827747  0.34185366  1
  V  V24  1  -0.00184242  0.76736868  0.24791786  1
  V  V25  1  0.63005106  0.25905453  0.85924107  1
  V  V26  1  0.74270179  0.35283766  0.11505589  1
  V  V27  1  0.81209632  0.87462962  0.52438112  1
  V  V28  1  0.27446861  0.10214037  0.40304353  1
  V  V29  1  0.71504448  0.37646016  0.61119848  1
  V  V30  1  0.39172244  0.88420777  0.48079038  1
  V  V31  1  0.60617713  0.23956126  0.37333263  1
  V  V32  1  0.28432809  0.05548925  0.23659436  1
  V  V33  1  0.09501778  0.00589010  0.59163364  1
  V  V34  1  0.75527738  0.12710498  0.41493001  1
  V  V35  1  0.78030553  0.63341110  0.88121281  1
  V  V36  1  0.79327534  0.47936820  0.24014256  1
  V  V37  1  0.48865935  0.38263454  0.86246747  1
  V  V38  1  0.87525676  -0.03858450  0.84514581  1
  V  V39  1  0.01179448  0.59070674  0.09640809  1
  V  V40  1  0.23273689  0.89958424  0.14023443  1
  V  V41  1  0.23744241  0.46188792  0.74574902  1
  V  V42  1  0.60996817  0.75416934  0.91775521  1
  V  V43  1  0.62075934  -0.03422214  0.12203510  1
  V  V44  1  0.49830529  0.39226273  0.37941661  1
  V  V45  1  0.64462337  0.51164958  0.13275710  1
  V  V46  1  0.23116110  0.30380969  0.49928365  1
  V  V47  1  0.50229089  0.63449113  0.66770125  1
  V  V48  1  0.39395599  0.36358623  0.02188278  1
  V  V49  1  -0.02552927  0.19301408  0.30124508  1
  V  V50  1  0.36469990  0.51747649  0.86667342  1
  Zn  Zn51  1  0.67576199  0.41903649  0.94247794  1
  Zn  Zn52  1  0.03816670  0.33552257  0.52285356  1
  Zn  Zn53  1  0.06162710  0.58279414  0.27101495  1
  Zn  Zn54  1  0.83040556  0.47831204  0.03577958  1
  Zn  Zn55  1  0.43297275  0.44133721  0.69167396  1
  Zn  Zn56  1  0.28454892  0.57082643  0.03184753  1
  Zn  Zn57  1  0.80518107  0.06434168  0.57429953  1
  Zn  Zn58  1  0.23798914  0.42288884  0.94841931  1
  Zn  Zn59  1  0.79687430  0.28273258  0.30298880  1
  Zn  Zn60  1  0.16241586  0.71049760  0.66597891  1
  Zn  Zn61  1  0.76557098  -0.01696592  -0.00431537  1
  Zn  Zn62  1  0.77744762  0.65118673  0.13655162  1
  Zn  Zn63  1  0.47427418  0.66192622  0.87641195  1
  Zn  Zn64  1  0.38894780  0.11065237  0.50489907  1
  Zn  Zn65  1  0.72669844  0.40639247  0.40791494  1
  Zn  Zn66  1  0.39056647  0.26178955  0.39469615  1
  Zn  Zn67  1  0.15808067  0.71858426  0.19208111  1
  Zn  Zn68  1  0.41574026  0.97220288  0.15965778  1
  Zn  Zn69  1  0.09616784  0.07211938  0.39956118  1
  Zn  Zn70  1  0.00472868  0.88416921  0.10844945  1
  Zn  Zn71  1  0.92459729  0.89612727  0.68098722  1
  Zn  Zn72  1  0.67307637  0.19959744  0.68537719  1
  Zn  Zn73  1  0.80669957  0.77936955  0.25120781  1
  Zn  Zn74  1  0.92290281  0.16876060  0.92842061  1
  Zn  Zn75  1  0.40369773  0.74945733  0.60106114  1
  Zn  Zn76  1  0.68809511  0.65924157  0.71952618  1
  Zn  Zn77  1  0.94774920  0.09760779  0.47987932  1
  Zn  Zn78  1  0.85806935  0.73067687  0.40013496  1
  Zn  Zn79  1  0.55753282  0.30890665  0.54972622  1
  Zn  Zn80  1  0.14391335  0.89673581  0.97236799  1
  Zn  Zn81  1  0.43315364  0.92129968  0.68153515  1
  Zn  Zn82  1  0.82126906  0.24703707  0.80905875  1
  Zn  Zn83  1  0.55095936  0.06442557  0.82346993  1
  Zn  Zn84  1  0.26872315  0.86566422  0.81161096  1
  Zn  Zn85  1  0.18745807  0.47439765  0.42933573  1
  Zn  Zn86  1  0.63083017  0.20453744  0.15736550  1
  Zn  Zn87  1  -0.05300252  0.06000373  0.67560735  1
  Zn  Zn88  1  0.92680318  0.45762902  0.66458161  1
  Zn  Zn89  1  0.75931008  0.82636440  0.90238551  1
  Zn  Zn90  1  0.77452617  0.52343595  0.54115798  1
  Zn  Zn91  1  0.96746359  0.69300545  0.92544323  1
  Zn  Zn92  1  0.32340627  0.57873359  0.65911062  1
  Zn  Zn93  1  0.02621029  0.28386687  0.14908036  1
  Zn  Zn94  1  0.14170203  0.56705175  0.85329806  1
  Zn  Zn95  1  0.67870109  0.97140733  0.45916670  1
  Zn  Zn96  1  0.20090221  0.21634935  0.66102535  1
  Zn  Zn97  1  0.56567372  0.82866615  0.60187904  1
  Zn  Zn98  1  0.61378231  0.04340176  0.31376484  1
  Zn  Zn99  1  0.45633420  0.19840036  0.95125122  1
  Zn  Zn100  1  0.28744243  0.03164668  0.03395688  1
  Zn  Zn101  1  0.20419323  0.22982621  0.32245106  1
  O  O102  1  0.13825394  0.26550938  0.01301008  1
  O  O103  1  0.15687221  0.10687873  0.61771989  1
  O  O104  1  0.11110650  0.65324671  0.10995019  1
  O  O105  1  0.11396595  0.62089698  0.62983552  1
  O  O106  1  0.63363923  0.12620849  0.08357660  1
  O  O107  1  0.60977946  0.11475895  0.64393828  1
  O  O108  1  0.67674615  0.60331001  0.12284569  1
  O  O109  1  0.60685440  0.60989432  0.66443596  1
  O  O110  1  0.40118258  0.37145770  0.37253372  1
  O  O111  1  0.40246901  0.35539616  0.89643017  1
  O  O112  1  0.38958780  0.88892361  0.38737270  1
  O  O113  1  0.36887880  0.87995420  0.85861783  1
  O  O114  1  0.84180496  0.35458738  0.39428448  1
  O  O115  1  0.90595770  0.26693542  0.87834998  1
  O  O116  1  0.86575965  0.80677647  0.47610195  1
  O  O117  1  0.85569175  0.86579470  0.85320704  1
  O  O118  1  0.27291410  0.01962815  0.35065003  1
  O  O119  1  0.25539778  0.07255389  0.82944162  1
  O  O120  1  0.23444780  0.52778219  0.34342990  1
  O  O121  1  0.26819890  0.47283320  0.85128302  1
  O  O122  1  0.71397108  0.03895027  0.37664994  1
  O  O123  1  0.77169533  0.01187362  0.81909058  1
  O  O124  1  0.76577482  0.49197157  0.34261599  1
  O  O125  1  0.74172056  0.52522685  0.89993729  1
  O  O126  1  0.28627918  0.55955759  0.14504404  1
  O  O127  1  0.23262946  0.50872742  0.64116365  1
  O  O128  1  0.27653360  1.07407138  0.13791667  1
  O  O129  1  0.30067458  1.04715318  0.67205545  1
  O  O130  1  0.76215860  0.47737196  0.13236177  1
  O  O131  1  0.70835990  0.50610789  0.63034198  1
  O  O132  1  0.72728782  0.96598105  0.10113325  1
  O  O133  1  0.73788571  1.01994031  0.65225556  1
  O  O134  1  0.00574357  0.28761543  0.34292371  1
  O  O135  1  -0.01401891  0.36260972  0.69345615  1
  O  O136  1  0.02220028  0.85893379  0.27697651  1
  O  O137  1  -0.02717900  0.79464064  0.68314131  1
  O  O138  1  0.53008080  0.38715101  0.25403458  1
  O  O139  1  0.48808681  0.36493580  0.76150489  1
  O  O140  1  0.51163365  0.83259187  0.28223067  1
  O  O141  1  0.49120918  0.87787258  0.76611236  1
  O  O142  1  0.51521708  0.16420041  0.16509409  1
  O  O143  1  0.49738238  0.13902349  0.74501340  1
  O  O144  1  0.49412136  0.66038891  0.34016830  1
  O  O145  1  0.48020000  0.64655109  0.75891843  1
  O  O146  1  0.95851964  0.07292531  0.26568210  1
  O  O147  1  0.98941280  0.15711006  0.71615681  1
  O  O148  1  0.98598579  0.60129344  0.19308709  1
  O  O149  1  0.93603688  0.50544986  0.76834385  1
  O  O150  1  0.43124563  0.26982532  0.02911245  1
  O  O151  1  0.41108018  0.25861522  0.51138360  1
  O  O152  1  0.38663412  0.77192059  0.05410870  1
  O  O153  1  0.39658975  0.78411181  0.49625836  1
  O  O154  1  0.91657106  0.22869440  0.04031663  1
  O  O155  1  0.88671704  0.32687443  0.45440143  1
  O  O156  1  0.86939149  0.63818913  0.06865800  1
  O  O157  1  1.05587726  0.79830725  0.51962721  1
  O  O158  1  0.13435272  0.28796829  0.50073889  1
  O  O159  1  0.12820336  0.30701862  1.06968221  1
  O  O160  1  0.23592253  0.69695986  0.47566395  1
  O  O161  1  0.12468515  0.77816824  1.00240060  1
  O  O162  1  0.61297859  0.24564746  0.47111580  1
  O  O163  1  0.62360913  0.21651819  0.95787736  1
  O  O164  1  0.62521618  0.74152144  0.45745627  1
  O  O165  1  0.59801690  0.72859285  1.00792686  1
  O  O166  1  0.44507993  0.26739782  0.19524072  1
  O  O167  1  0.50672534  0.24744793  0.63341084  1
  O  O168  1  0.45452606  0.68931982  0.19248312  1
  O  O169  1  0.51820094  0.73273642  0.62763983  1
  O  O170  1  1.03162996  0.19648394  0.21998103  1
  O  O171  1  0.99083949  0.26017399  0.59934534  1
  O  O172  1  0.98921511  0.77658943  0.15031885  1
  O  O173  1  0.94485340  0.67267347  0.72567332  1
  O  O174  1  0.00045481  0.13780779  0.38605342  1
  O  O175  1  0.02205584  0.27497313  0.80071922  1
  O  O176  1  0.05166317  0.66482271  0.42679799  1
  O  O177  1  0.02061544  0.77771010  0.87246336  1
  O  O178  1  0.51281576  0.27537617  0.35970629  1
  O  O179  1  0.50115921  0.25078450  0.85564132  1
  O  O180  1  0.44714773  0.70247133  0.37003372  1
  O  O181  1  0.50213471  0.77511047  0.88761524  1
  O  O182  1  0.27729329  0.07781466  0.49897237  1
  O  O183  1  0.23993310  0.13261134  0.98428105  1
  O  O184  1  0.29692912  0.65543891  0.46890067  1
  O  O185  1  0.23827155  0.67226712  1.01900203  1
  O  O186  1  0.73166657  0.12328249  0.51021111  1
  O  O187  1  0.71034690  0.07384962  0.95073328  1
  O  O188  1  0.76822371  0.60423414  0.45656264  1
  O  O189  1  0.77978059  0.55610234  0.96593851  1
  O  O190  1  0.29250792  0.35361663  0.00699323  1
  O  O191  1  0.24202422  0.40146437  0.49278398  1
  O  O192  1  0.21965696  0.93923301  0.04292937  1
  O  O193  1  0.29922244  0.90796599  0.52458101  1
  O  O194  1  0.75598034  0.38440426  0.01530704  1
  O  O195  1  0.74239052  0.41320120  0.51626569  1
  O  O196  1  0.77549181  0.86395277  0.00975204  1
  O  O197  1  0.71857299  0.87265497  0.49407734  1
  O  O198  1  0.15878594  0.53814711  0.23553037  1
  O  O199  1  0.14623454  0.50267928  0.76855737  1
  O  O200  1  0.09794508  0.99404964  0.32434768  1
  O  O201  1  0.12447455  1.06459351  0.67770704  1
  O  O202  1  0.64802332  0.48577074  0.23097897  1
  O  O203  1  0.62571853  0.47937137  0.76236854  1
  O  O204  1  0.61752573  1.00677632  0.21340441  1
  O  O205  1  0.61830410  1.00404493  0.75283055  1
  O  O206  1  0.37993428  0.03383572  0.24217944  1
  O  O207  1  0.34213399  0.02218082  0.72442813  1
  O  O208  1  0.35022442  0.57508961  0.28413175  1
  O  O209  1  0.34593617  0.49667334  0.74041514  1
  O  O210  1  0.80685340  0.00178199  0.24515672  1
  O  O211  1  0.89037789  -0.01535721  0.73714944  1
  O  O212  1  0.88392460  0.46401007  0.23775278  1
  O  O213  1  0.89768713  0.45925689  0.82192844  1
  O  O214  1  0.08740889  0.42905398  0.39206645  1
  O  O215  1  0.15058789  0.49682847  0.94960590  1
  O  O216  1  0.16791444  0.84635866  0.30898061  1
  O  O217  1  0.17576937  0.84610590  0.87309586  1
  O  O218  1  0.64180764  0.36083133  0.35368611  1
  O  O219  1  0.59530849  0.36187656  0.88852039  1
  O  O220  1  0.60828730  0.77062074  0.39479335  1
  O  O221  1  0.64643247  0.84610815  0.90809479  1
  O  O222  1  0.29509069  0.23159603  0.11617193  1
  O  O223  1  0.40180613  0.14557456  0.61586996  1
  O  O224  1  0.40774462  0.70631629  0.03889255  1
  O  O225  1  0.40632383  0.63583508  0.61893543  1
  O  O226  1  0.91730336  0.10253022  0.14560637  1
  O  O227  1  0.90559624  0.10272894  0.58099649  1
  O  O228  1  0.90520516  0.56577357  0.06458468  1
  O  O229  1  0.88026242  0.52135015  0.58349046  1
  O  O230  1  0.25844328  0.27606086  0.15529723  1
  O  O231  1  0.27654316  0.26015970  0.59034297  1
  O  O232  1  0.21586959  0.80266480  0.15079864  1
  O  O233  1  0.22104560  0.78408579  0.60494536  1
  O  O234  1  0.72967303  0.25695204  0.11770360  1
  O  O235  1  0.70776673  0.27884805  0.60737331  1
  O  O236  1  0.79644942  0.76141811  0.13589126  1
  O  O237  1  0.70487353  0.74511086  0.64779293  1
  O  O238  1  0.26876088  0.26967430  0.41396513  1
  O  O239  1  0.28678555  0.18121383  0.94750695  1
  O  O240  1  0.21511908  0.74038492  0.41870020  1
  O  O241  1  0.28995416  0.74359600  0.80955921  1
  O  O242  1  0.72756905  0.21617967  0.36487219  1
  O  O243  1  0.72272309  0.28596915  0.85231064  1
  O  O244  1  0.76452875  0.71367006  0.33306794  1
  O  O245  1  0.72539167  0.71180862  0.91288093  1
  O  O246  1  -0.00322379  0.09587869  -0.04331032  1
  O  O247  1  -0.10841778  -0.06270082  0.34947895  1
  O  O248  1  0.03181086  0.64079604  -0.00337356  1
  O  O249  1  -0.05578414  0.64274245  0.56283504  1
  O  O250  1  0.51972383  0.10350263  -0.04509299  1
  O  O251  1  0.51295336  0.10201044  0.52624579  1
  O  O252  1  0.49997080  0.58979692  -0.03332130  1
  O  O253  1  0.55318823  0.61462035  0.49432647  1
  O  O254  1  0.52487427  0.38663661  0.47658567  1
  O  O255  1  0.48854853  0.42357826  0.98776077  1
  O  O256  1  0.50149839  0.89195619  0.53098242  1
  O  O257  1  0.47916066  0.88920364  0.98137005  1
  O  O258  1  0.94189307  0.37805982  0.47335719  1
  O  O259  1  0.98449886  0.25584022  1.04546150  1
  O  O260  1  1.07295450  0.82691265  0.45682940  1
  O  O261  1  1.03223928  0.92759340  1.00869144  1
  O  O262  1  0.50666403  0.48614216  0.35740028  1
  O  O263  1  0.46192024  0.48507358  0.84710083  1
  O  O264  1  0.56459154  0.98588564  0.40724834  1
  O  O265  1  0.49823313  0.97975560  0.87804172  1
  O  O266  1  1.04256431  0.46504327  0.33122702  1
  O  O267  1  0.92270228  0.45999797  0.89079945  1
  O  O268  1  0.94879357  0.94399809  0.38891308  1
  O  O269  1  0.98014607  0.96945531  0.85261602  1
  O  O270  1  -0.04221101  0.05804421  0.18916522  1
  O  O271  1  0.01380298  -0.03273016  0.63739953  1
  O  O272  1  0.04266781  0.50263749  0.08898286  1
  O  O273  1  0.04168124  0.48592224  0.61399604  1
  O  O274  1  0.50584978  -0.01546518  0.10411265  1
  O  O275  1  0.48841317  0.01488704  0.65058025  1
  O  O276  1  0.53863726  0.52466858  0.11928722  1
  O  O277  1  0.50579818  0.51961820  0.65514690  1
  O  O278  1  0.28419910  0.45119827  0.22846959  1
  O  O279  1  0.22773376  0.36963721  0.73456287  1
  O  O280  1  0.21825102  0.96470696  0.22348645  1
  O  O281  1  0.24094900  0.90355667  0.70966168  1
  O  O282  1  0.75818334  0.36817030  0.23508307  1
  O  O283  1  0.76904731  0.37622882  0.70937586  1
  O  O284  1  0.77191351  0.87984164  0.21407267  1
  O  O285  1  0.73742526  0.82653613  0.77499249  1
  O  O286  1  0.26624059  0.14950804  0.27083794  1
  O  O287  1  0.24692917  0.18615233  0.76121334  1
  O  O288  1  0.23723431  0.64947883  0.23858172  1
  O  O289  1  0.25725143  0.65539295  0.71730988  1
  O  O290  1  0.79482837  0.05337478  0.19804862  1
  O  O291  1  0.75899224  0.16416336  0.75064860  1
  O  O292  1  0.78408817  0.59039964  0.23937811  1
  O  O293  1  0.76815192  0.62512005  0.78353209  1
  O  O294  1  0.36785351  0.15114905  0.39685376  1
  O  O295  1  0.35109145  0.14951207  0.92127734  1
  O  O296  1  0.40965265  0.55842424  0.44496699  1
  O  O297  1  0.36830356  0.61397553  0.85956523  1
  O  O298  1  0.85077248  0.11571683  0.41376807  1
  O  O299  1  0.82026719  0.14560769  0.88576671  1
  O  O300  1  0.84316374  0.61406432  0.41844676  1
  O  O301  1  0.87297040  0.66273554  0.88942655  1
  O  O302  1  0.03233119  0.37331039  0.20849238  1
  O  O303  1  0.08903018  0.42677118  0.58416244  1
  O  O304  1  0.10317981  0.91065242  0.16207414  1
  O  O305  1  0.16344384  0.93766413  0.58113430  1
  O  O306  1  0.64343250  0.38341615  0.13387805  1
  O  O307  1  0.61330390  0.39705376  0.62466021  1
  O  O308  1  0.61018351  0.87271770  0.13171628  1
  O  O309  1  0.64179650  0.88959151  0.65444443  1
  O  O310  1  0.15359449  0.32216507  0.29253348  1
  O  O311  1  0.09797024  0.25250959  0.68775464  1
  O  O312  1  0.07697596  0.70335070  0.26939913  1
  O  O313  1  0.12186220  0.75588046  0.75642473  1
  O  O314  1  0.62877307  0.26660731  0.24543650  1
  O  O315  1  0.60470608  0.25936287  0.75590294  1
  O  O316  1  0.55779345  0.78987279  0.25133297  1
  O  O317  1  0.61613037  0.70624515  0.80325635  1
  O  O318  1  0.46126027  0.19731056  0.20917756  1
  O  O319  1  0.39428791  0.25169647  0.72388075  1
  O  O320  1  0.40454085  0.73684693  0.20643032  1
  O  O321  1  0.31072859  0.71286844  0.74507955  1
  O  O322  1  0.88299734  0.21806134  0.27903270  1
  O  O323  1  0.89555305  0.25680928  0.71831255  1
  O  O324  1  0.91061052  0.74631740  0.29700648  1
  O  O325  1  0.91754106  0.73574537  0.70087784  1
  O  O326  1  0.37713002  0.51059826  0.48595604  1
  O  O327  1  0.34827761  0.50621511  0.96912783  1
  O  O328  1  0.42241743  0.99879901  0.48717504  1
  O  O329  1  0.39497560  1.01921176  1.00952733  1
  O  O330  1  0.93998472  0.57614046  0.53821356  1
  O  O331  1  0.90221677  0.39117221  1.07819266  1
  O  O332  1  0.84313529  0.96662297  0.51082434  1
  O  O333  1  0.86074603  0.99654246  0.93698282  1
  O  O334  1  0.12190285  0.00524905  -0.08640738  1
  O  O335  1  0.05721722  0.04470065  0.50434170  1
  O  O336  1  0.17082257  0.54444380  0.01183337  1
  O  O337  1  0.15620922  0.55016391  0.50265614  1
  O  O338  1  0.60097514  -0.00029359  0.01114834  1
  O  O339  1  0.61395028  -0.00622816  0.55176616  1
  O  O340  1  0.62945594  0.49418015  0.01317905  1
  O  O341  1  0.56892983  0.54930153  0.47358662  1
  O  O342  1  0.40044645  0.39968801  0.10778169  1
  O  O343  1  0.39594327  0.36614304  0.61821991  1
  O  O344  1  0.33141038  0.90302351  0.14355807  1
  O  O345  1  0.36214647  0.84658474  0.64625025  1
  O  O346  1  0.86210230  0.34220805  0.11910735  1
  O  O347  1  0.82046662  0.39192072  0.65103597  1
  O  O348  1  0.88922880  0.89933293  0.11285120  1
  O  O349  1  0.81843272  0.86092682  0.63128214  1
  O  O350  1  0.17881244  0.14502913  0.39713492  1
  O  O351  1  0.21151774  0.12283062  0.79998067  1
  O  O352  1  0.03955551  0.60162916  0.39540219  1
  O  O353  1  0.14060621  0.66826020  0.89297903  1
  O  O354  1  0.59029790  0.14545911  0.34852229  1
  O  O355  1  0.64007650  0.13863530  0.84177408  1
  O  O356  1  0.65656810  0.60796386  0.34621706  1
  O  O357  1  0.59657203  0.65279997  0.86076763  1
