# generated using pymatgen
data_V51Zn51O256
_symmetry_space_group_name_H-M   'P 1'
_cell_length_a   17.45990158
_cell_length_b   17.39365398
_cell_length_c   17.86174033
_cell_angle_alpha   89.65518763
_cell_angle_beta   90.74191747
_cell_angle_gamma   91.31958125
_symmetry_Int_Tables_number   1
_chemical_formula_structural   V51Zn51O256
_chemical_formula_sum   'V51 Zn51 O256'
_cell_volume   5422.47648411
_cell_formula_units_Z   1
loop_
 _symmetry_equiv_pos_site_id
 _symmetry_equiv_pos_as_xyz
  1  'x, y, z'
loop_
 _atom_site_type_symbol
 _atom_site_label
 _atom_site_symmetry_multiplicity
 _atom_site_fract_x
 _atom_site_fract_y
 _atom_site_fract_z
 _atom_site_occupancy
  V  V0  1  0.33828543  0.27113753  0.64216347  1
  V  V1  1  0.36850676  0.15309962  0.24146817  1
  V  V2  1  0.34273027  0.41125068  0.03274412  1
  V  V3  1  0.71204459  0.88637041  0.18034235  1
  V  V4  1  0.22180809  0.22971417  0.01300532  1
  V  V5  1  0.65828082  0.05534908  0.47202079  1
  V  V6  1  0.90615480  0.61189057  0.79386960  1
  V  V7  1  0.08940700  0.10942506  0.00862582  1
  V  V8  1  0.75576826  0.61066288  0.35816064  1
  V  V9  1  0.35098438  0.51173331  0.86918941  1
  V  V10  1  0.38761016  0.06204969  0.43435193  1
  V  V11  1  0.02085721  0.62754925  0.13761304  1
  V  V12  1  0.35367249  0.45385278  0.38795964  1
  V  V13  1  0.76060873  0.23157182  -0.03028442  1
  V  V14  1  0.48283078  0.26092110  0.79298315  1
  V  V15  1  0.77800810  0.11872656  0.84291374  1
  V  V16  1  0.53651217  0.87073615  0.24845931  1
  V  V17  1  0.65336020  0.74502120  0.34423077  1
  V  V18  1  0.54284714  0.37866033  0.90178512  1
  V  V19  1  0.88252330  0.23402873  0.16881399  1
  V  V20  1  -0.00288284  0.10906835  0.16002615  1
  V  V21  1  0.64835522  0.60134975  -0.00861739  1
  V  V22  1  0.75729020  0.34987903  0.15900555  1
  V  V23  1  0.23284133  0.11777929  0.88714353  1
  V  V24  1  0.77824791  0.49847278  0.76315738  1
  V  V25  1  0.52996464  0.13535210  0.61941754  1
  V  V26  1  0.84251219  0.88105335  0.50720022  1
  V  V27  1  0.51769919  0.12454121  0.15641539  1
  V  V28  1  0.83264600  0.01207950  0.39391069  1
  V  V29  1  0.63536893  0.75100059  0.84111780  1
  V  V30  1  0.12553821  0.88828229  0.23046024  1
  V  V31  1  0.64191922  0.10199271  -0.04378485  1
  V  V32  1  0.00763629  0.74947264  0.77713211  1
  V  V33  1  0.32040076  0.61167482  0.71086419  1
  V  V34  1  0.54867158  0.36142935  0.41604359  1
  V  V35  1  0.09201827  0.48808757  0.62702437  1
  V  V36  1  0.43676932  0.81531272  0.39906059  1
  V  V37  1  0.35618874  0.14074427  0.77843776  1
  V  V38  1  0.62276561  0.37785843  0.74710059  1
  V  V39  1  -0.00182609  0.77318458  0.25885867  1
  V  V40  1  0.47650858  0.01949924  -0.04844891  1
  V  V41  1  0.86087278  0.60467183  0.22832266  1
  V  V42  1  0.00445191  0.12101424  0.63643609  1
  V  V43  1  0.87335222  0.73194203  0.58757499  1
  V  V44  1  0.13935814  0.01305915  0.66123927  1
  V  V45  1  0.23907873  0.89309353  0.60588715  1
  V  V46  1  0.85390315  0.38861787  0.50000418  1
  V  V47  1  0.88219280  -0.00857093  0.87852031  1
  V  V48  1  0.24177803  0.11250384  0.35137163  1
  V  V49  1  0.00201954  0.45908416  0.44577337  1
  V  V50  1  -0.00086479  0.63607521  0.57533583  1
  Zn  Zn51  1  0.62806997  0.53487888  0.85604008  1
  Zn  Zn52  1  0.85520176  1.01573756  0.18866428  1
  Zn  Zn53  1  0.36270132  0.26491697  0.91895691  1
  Zn  Zn54  1  0.16234208  0.71112898  0.66007270  1
  Zn  Zn55  1  0.90059208  0.47258748  0.64833184  1
  Zn  Zn56  1  0.67999202  0.95033551  0.87655768  1
  Zn  Zn57  1  0.34362492  0.65559590  0.33035296  1
  Zn  Zn58  1  0.25830859  0.28051397  0.46707008  1
  Zn  Zn59  1  0.64902428  0.86819692  0.48137221  1
  Zn  Zn60  1  0.53303502  0.05625239  0.32089217  1
  Zn  Zn61  1  0.34217066  0.78954900  0.68923561  1
  Zn  Zn62  1  1.01862202  0.66118845  0.93907385  1
  Zn  Zn63  1  0.00837637  0.60262523  0.33461831  1
  Zn  Zn64  1  0.34172195  0.35113066  0.20952311  1
  Zn  Zn65  1  0.07425551  0.32227885  0.54369366  1
  Zn  Zn66  1  0.55062452  0.07261489  0.78912394  1
  Zn  Zn67  1  0.18683074  0.45020006  0.49799691  1
  Zn  Zn68  1  0.05607909  0.07978304  0.81817997  1
  Zn  Zn69  1  0.47780830  0.55129400  -0.03260477  1
  Zn  Zn70  1  0.87912463  0.10793437  0.02618984  1
  Zn  Zn71  1  0.81897472  0.84379010  0.31431934  1
  Zn  Zn72  1  0.74971346  0.68932518  0.14893114  1
  Zn  Zn73  1  0.34960052  0.05530317  0.62472306  1
  Zn  Zn74  1  0.20250579  0.50560820  0.97589908  1
  Zn  Zn75  1  0.59407558  0.27459371  0.05970514  1
  Zn  Zn76  1  0.81825283  0.06054805  0.58340793  1
  Zn  Zn77  1  0.40475781  0.90753328  0.54725763  1
  Zn  Zn78  1  0.26704967  0.92044204  0.40640971  1
  Zn  Zn79  1  0.83887239  0.79435603  0.84955367  1
  Zn  Zn80  1  0.57938285  0.95866844  0.07142036  1
  Zn  Zn81  1  0.67931336  0.20972131  0.19500096  1
  Zn  Zn82  1  0.19343158  0.70126323  0.21151659  1
  Zn  Zn83  1  0.53153419  0.17342146  0.44431484  1
  Zn  Zn84  1  0.67154152  0.20771306  0.73227326  1
  Zn  Zn85  1  0.08331957  0.77323415  0.09040929  1
  Zn  Zn86  1  0.17291817  0.94862757  1.06629818  1
  Zn  Zn87  1  -0.03400763  0.91677876  0.66450089  1
  Zn  Zn88  1  0.91912417  0.19392114  0.45300677  1
  Zn  Zn89  1  0.75171068  0.70462370  0.73921293  1
  Zn  Zn90  1  0.18735982  0.07060037  0.18144672  1
  Zn  Zn91  1  0.32743718  0.06434922  0.06491856  1
  Zn  Zn92  1  0.49793499  0.33999506  0.60443112  1
  Zn  Zn93  1  0.11539802  0.60837126  0.77404208  1
  Zn  Zn94  1  0.20583565  0.17994609  0.68681994  1
  Zn  Zn95  1  0.74065113  0.40232958  0.35365950  1
  Zn  Zn96  1  0.88965682  0.45206477  0.12211974  1
  Zn  Zn97  1  0.44799198  0.68613069  0.82493851  1
  Zn  Zn98  1  0.34137605  0.81717618  0.25654060  1
  Zn  Zn99  1  0.40280283  0.41311896  0.74540297  1
  Zn  Zn100  1  0.73467865  0.41754814  0.92863677  1
  Zn  Zn101  1  0.91197359  0.69940815  0.41437597  1
  O  O102  1  0.09639837  0.10590271  0.11713236  1
  O  O103  1  0.13915417  0.11210929  0.62944288  1
  O  O104  1  0.11287585  0.62243635  0.17112259  1
  O  O105  1  0.09667873  0.64752466  0.59605654  1
  O  O106  1  0.61201473  0.12361852  0.18907483  1
  O  O107  1  0.59616968  0.12598026  0.69419010  1
  O  O108  1  0.70146067  0.65073034  0.05656315  1
  O  O109  1  0.67728929  0.57097621  0.57695508  1
  O  O110  1  0.32812727  0.35354857  0.40868146  1
  O  O111  1  0.36250399  0.41526119  0.85029210  1
  O  O112  1  0.35077996  0.85796015  0.36633850  1
  O  O113  1  0.25769194  0.87174651  0.82649484  1
  O  O114  1  0.84840567  0.33856910  0.40018245  1
  O  O115  1  0.94538189  0.35723894  0.92541391  1
  O  O116  1  0.85461558  0.90035558  0.40455860  1
  O  O117  1  0.87244652  0.89203766  0.87507392  1
  O  O118  1  0.27993825  0.03096889  0.41042001  1
  O  O119  1  0.24600661  0.02684510  0.88019084  1
  O  O120  1  0.25624002  0.47139999  0.41380001  1
  O  O121  1  0.25764206  0.53293337  0.88290736  1
  O  O122  1  0.73218940  0.01659478  0.40677187  1
  O  O123  1  0.77266257  0.00855660  0.84906230  1
  O  O124  1  0.75154286  0.51320630  0.35685382  1
  O  O125  1  0.79539053  0.44373414  0.84166200  1
  O  O126  1  0.23195341  0.58205979  0.05594773  1
  O  O127  1  0.18629366  0.49411244  0.59753751  1
  O  O128  1  0.24938300  1.00871521  0.11615813  1
  O  O129  1  0.24734197  0.99832452  0.63817227  1
  O  O130  1  0.76746913  0.43190443  0.10783668  1
  O  O131  1  0.78736550  0.46154540  0.67684570  1
  O  O132  1  0.75870259  0.87283280  0.00781895  1
  O  O133  1  0.76127480  0.98837590  0.66023076  1
  O  O134  1  0.06492900  0.35497746  0.12881809  1
  O  O135  1  -0.02208058  0.35812132  0.77848389  1
  O  O136  1  0.03056387  0.87350971  0.26977293  1
  O  O137  1  -0.00317566  0.83891682  0.73841151  1
  O  O138  1  0.54771400  0.38366002  0.24648201  1
  O  O139  1  0.50613322  0.37739907  0.78859943  1
  O  O140  1  0.44594603  0.84723048  0.21575111  1
  O  O141  1  0.57438660  0.92022338  0.73173655  1
  O  O142  1  0.47599287  0.12723706  0.25383017  1
  O  O143  1  0.46789547  0.15676045  0.78739593  1
  O  O144  1  0.46440986  0.75563428  0.02838136  1
  O  O145  1  0.54239220  0.62699467  0.66236582  1
  O  O146  1  1.01263240  0.11651408  0.24952246  1
  O  O147  1  1.02342116  0.14332026  0.72725211  1
  O  O148  1  0.97162196  0.62508812  0.23314413  1
  O  O149  1  0.99282314  0.63755516  0.74831185  1
  O  O150  1  0.38701191  0.33159559  0.00172114  1
  O  O151  1  0.33217901  0.26044928  0.54848378  1
  O  O152  1  0.31284258  0.74855036  -0.07886433  1
  O  O153  1  0.24955330  0.63210755  0.49256301  1
  O  O154  1  0.84907068  0.21509341  0.00886151  1
  O  O155  1  0.84661156  0.28141961  0.46084480  1
  O  O156  1  0.92317126  0.86672678  0.04628081  1
  O  O157  1  0.86611885  0.76646539  0.48861017  1
  O  O158  1  0.07877811  0.21876299  0.37656148  1
  O  O159  1  0.12212447  0.21428159  1.01786106  1
  O  O160  1  0.16710646  0.76531795  0.40521089  1
  O  O161  1  0.13745289  0.87023758  0.92033138  1
  O  O162  1  0.68568247  0.26381212  0.51084053  1
  O  O163  1  0.65939714  0.19719487  1.00563546  1
  O  O164  1  0.62188553  0.77941591  0.42969883  1
  O  O165  1  0.84250714  0.66558302  0.98646502  1
  O  O166  1  0.51492395  0.20721606  0.10349628  1
  O  O167  1  0.49101738  0.22658782  0.61855618  1
  O  O168  1  0.40846315  0.79519515  0.03848875  1
  O  O169  1  0.47279607  0.65927282  0.51883997  1
  O  O170  1  0.97793361  0.21461753  0.13552915  1
  O  O171  1  1.02194767  0.22050160  0.58513442  1
  O  O172  1  0.99940777  0.74477888  0.16213502  1
  O  O173  1  0.97401091  0.73051845  0.61639946  1
  O  O174  1  0.01084104  0.23231264  0.36347081  1
  O  O175  1  0.04325040  0.37544717  0.80828040  1
  O  O176  1  0.00639481  0.71603608  0.34539288  1
  O  O177  1  0.01897259  0.75327568  0.87317748  1
  O  O178  1  0.53345260  0.26861616  0.39153249  1
  O  O179  1  0.47893343  0.28078748  0.88992537  1
  O  O180  1  0.42688665  0.72096850  0.37267510  1
  O  O181  1  0.53445369  0.74195323  0.85101510  1
  O  O182  1  0.08176142  0.01876810  0.46400542  1
  O  O183  1  0.25031587  0.13037551  0.99511239  1
  O  O184  1  0.13990354  0.73255298  0.46006982  1
  O  O185  1  0.34491605  0.64440335  1.07607136  1
  O  O186  1  0.72633214  0.09457757  0.53280489  1
  O  O187  1  0.75270805  0.11387367  0.95258809  1
  O  O188  1  0.76135675  0.63504686  0.44714713  1
  O  O189  1  0.83815241  0.59604224  0.99680082  1
  O  O190  1  0.24565925  0.41095211  0.01243526  1
  O  O191  1  0.17384066  0.33946649  0.49845780  1
  O  O192  1  0.23881150  0.84455380  0.02914363  1
  O  O193  1  0.24461568  0.88861705  0.51094635  1
  O  O194  1  0.74593583  0.32826839  -0.01375660  1
  O  O195  1  0.76409532  0.41291545  0.50533695  1
  O  O196  1  0.78763067  0.81057087  -0.00382711  1
  O  O197  1  0.74946241  0.86389898  0.52839685  1
  O  O198  1  0.13052866  0.42720693  0.27434610  1
  O  O199  1  0.09870022  0.51372879  0.71948104  1
  O  O200  1  0.12630237  0.98532618  0.22726120  1
  O  O201  1  0.13339990  1.01542205  0.75421531  1
  O  O202  1  0.49315088  0.37830552  0.20230877  1
  O  O203  1  0.66492213  0.48363458  0.76765860  1
  O  O204  1  0.55095043  0.96640963  0.26215140  1
  O  O205  1  0.62152800  0.97870475  0.76993025  1
  O  O206  1  0.36170836  0.11746864  0.33818042  1
  O  O207  1  0.35665141  0.04819915  0.76458342  1
  O  O208  1  0.33212957  0.42442407  0.29236815  1
  O  O209  1  0.35774592  0.52718753  0.75818358  1
  O  O210  1  0.84830783  0.00577561  0.30005169  1
  O  O211  1  0.87336290  -0.03364606  0.72101549  1
  O  O212  1  0.86626397  0.50885202  0.21242595  1
  O  O213  1  0.89815948  0.51709903  0.75317672  1
  O  O214  1  0.10473188  0.37211574  0.30963126  1
  O  O215  1  0.09090798  0.47556142  0.95306543  1
  O  O216  1  0.20094019  0.88668235  0.31574590  1
  O  O217  1  0.09988657  0.89635683  0.86823753  1
  O  O218  1  0.63573885  0.39197592  0.38845642  1
  O  O219  1  0.63399208  0.37010445  0.86506774  1
  O  O220  1  0.51180795  0.85966145  0.35078417  1
  O  O221  1  0.64700993  0.84604968  0.86845447  1
  O  O222  1  0.37900846  0.12048912  0.14926452  1
  O  O223  1  0.33282765  0.16223242  0.66996138  1
  O  O224  1  0.48767328  0.53561408  0.20958485  1
  O  O225  1  0.33775310  0.60789534  0.62215101  1
  O  O226  1  0.87413743  0.12026756  0.13944095  1
  O  O227  1  0.90753153  0.11028524  0.62795783  1
  O  O228  1  0.86055620  0.65311412  0.14355650  1
  O  O229  1  0.87655600  0.63436575  0.57922238  1
  O  O230  1  0.26277845  0.26482316  0.08998155  1
  O  O231  1  0.24569472  0.28601867  0.66804908  1
  O  O232  1  0.19871319  0.73872471  0.09602703  1
  O  O233  1  0.23420024  0.79454485  0.64471022  1
  O  O234  1  0.77586959  0.23716951  0.14787255  1
  O  O235  1  0.71318605  0.26191381  0.57425710  1
  O  O236  1  0.74624075  0.79867185  0.15425294  1
  O  O237  1  0.80264595  0.74624500  0.65161362  1
  O  O238  1  0.24065491  0.19390020  0.40514605  1
  O  O239  1  0.24994855  0.26897189  0.92741710  1
  O  O240  1  0.29710083  0.66857890  0.45434315  1
  O  O241  1  0.24661784  0.72877937  0.90426601  1
  O  O242  1  0.73388299  0.18504463  0.33564426  1
  O  O243  1  0.76606340  0.22716747  0.87157412  1
  O  O244  1  0.75110222  0.75557526  0.34121825  1
  O  O245  1  0.74636993  0.73738216  0.84870336  1
  O  O246  1  -0.00522004  0.11460399  0.00125140  1
  O  O247  1  0.00651181  0.16562516  0.52409183  1
  O  O248  1  0.03762161  0.67957696  0.04301988  1
  O  O249  1  -0.00861459  0.64135079  0.47988256  1
  O  O250  1  0.53948348  0.10438460  -0.03085980  1
  O  O251  1  0.57941328  0.12258392  0.53377411  1
  O  O252  1  0.55796086  0.58816514  0.02868764  1
  O  O253  1  0.52620763  0.62596700  0.49050055  1
  O  O254  1  0.53633831  0.37150187  0.50868715  1
  O  O255  1  0.55803462  0.35632699  0.99293273  1
  O  O256  1  0.44971760  0.82801892  0.49511216  1
  O  O257  1  0.50940700  0.93430610  0.98854777  1
  O  O258  1  1.00685386  0.36010480  0.45635045  1
  O  O259  1  0.94236341  0.37541932  0.99352486  1
  O  O260  1  1.05962447  0.86453306  0.49551315  1
  O  O261  1  0.98503233  0.87291653  1.01511120  1
  O  O262  1  0.45285356  0.43002085  0.37655713  1
  O  O263  1  0.53215795  0.47991840  0.89663574  1
  O  O264  1  0.45734850  1.01115835  0.39517261  1
  O  O265  1  0.48215519  1.01062889  0.85595593  1
  O  O266  1  1.01274852  0.49667601  0.35622344  1
  O  O267  1  1.06507806  0.51257056  0.89422738  1
  O  O268  1  1.03263272  0.86248825  0.43173461  1
  O  O269  1  0.97423801  1.00976902  0.84456261  1
  O  O270  1  -0.03822499  0.01318235  0.14896138  1
  O  O271  1  0.02926921  0.01334643  0.63575018  1
  O  O272  1  -0.01137315  0.54015722  0.10888359  1
  O  O273  1  -0.01076436  0.53699480  0.61039671  1
  O  O274  1  0.51190047  0.03875278  0.10934997  1
  O  O275  1  0.46304297  0.06442451  0.63693430  1
  O  O276  1  0.53954676  0.53468118  0.25685708  1
  O  O277  1  0.51821209  0.56134643  0.64951650  1
  O  O278  1  0.21442788  0.32825697  0.21942818  1
  O  O279  1  0.20051081  0.39812498  0.77081176  1
  O  O280  1  0.24106063  0.88233722  0.24586158  1
  O  O281  1  0.32430626  0.85646126  0.81003079  1
  O  O282  1  0.75633933  0.37009816  0.25237750  1
  O  O283  1  0.69987469  0.32502382  0.72758612  1
  O  O284  1  0.72708309  0.89528712  0.27439459  1
  O  O285  1  0.80179789  0.94048457  0.70044870  1
  O  O286  1  0.25895418  0.12963859  0.24660596  1
  O  O287  1  0.24177881  0.15483762  0.78822655  1
  O  O288  1  0.19913813  0.60843787  0.32170852  1
  O  O289  1  0.22346669  0.63063263  0.72425648  1
  O  O290  1  0.74596031  0.13355346  0.28554187  1
  O  O291  1  0.75351912  0.14022122  0.75058451  1
  O  O292  1  0.75852984  0.62495147  0.24152432  1
  O  O293  1  0.79106253  0.60302262  0.77527397  1
  O  O294  1  0.42509067  0.14567418  0.46992386  1
  O  O295  1  0.34565999  0.15794585  0.87865874  1
  O  O296  1  0.36213361  0.55001789  0.35630441  1
  O  O297  1  0.41869056  0.59553188  0.87962141  1
  O  O298  1  0.87393246  0.10031771  0.41715571  1
  O  O299  1  0.87356283  0.11343290  0.84899446  1
  O  O300  1  0.86441215  0.62949798  0.33707632  1
  O  O301  1  0.93336148  0.60044160  0.88435231  1
  O  O302  1  0.10963575  0.41015968  0.12583776  1
  O  O303  1  0.06418491  0.39278794  0.62864993  1
  O  O304  1  0.11670055  0.87301838  0.12794634  1
  O  O305  1  0.13956125  0.91115758  0.62637708  1
  O  O306  1  0.65748733  0.31385519  0.14392038  1
  O  O307  1  0.57891073  0.39387358  0.66350265  1
  O  O308  1  0.60880250  0.89057498  0.15372461  1
  O  O309  1  0.60604249  0.88686306  0.67913186  1
  O  O310  1  0.18330921  0.28532894  0.26583906  1
  O  O311  1  0.18777106  0.37265073  0.83318941  1
  O  O312  1  0.11853483  0.77319732  0.24746596  1
  O  O313  1  0.10421802  0.72401571  0.75376456  1
  O  O314  1  0.68764457  0.24101309  0.31245369  1
  O  O315  1  0.57848145  0.26458362  0.76149994  1
  O  O316  1  0.60149684  0.78782239  0.26627362  1
  O  O317  1  0.64235102  0.73422918  0.74632678  1
  O  O318  1  0.36942548  0.25113341  0.24156360  1
  O  O319  1  0.38793377  0.26867983  0.75551178  1
  O  O320  1  0.29701903  0.71385407  0.25275108  1
  O  O321  1  0.37478067  0.70109819  0.74268873  1
  O  O322  1  0.88680520  0.22619970  0.25996660  1
  O  O323  1  0.95302545  0.28872191  0.78206075  1
  O  O324  1  0.90291426  0.79585428  0.26632220  1
  O  O325  1  0.89590748  0.72242166  0.78741742  1
  O  O326  1  0.38121090  0.47357605  0.48139466  1
  O  O327  1  0.37983548  0.49510843  0.97793359  1
  O  O328  1  0.37265215  1.00861333  0.52334374  1
  O  O329  1  0.38469353  1.03342729  0.98114415  1
  O  O330  1  0.90602842  0.47838418  0.47104725  1
  O  O331  1  0.90299655  0.44087311  1.00844333  1
  O  O332  1  0.85212882  0.98477908  0.50852472  1
  O  O333  1  0.87977055  1.01073414  0.97159038  1
  O  O334  1  0.11455256  0.01392101  0.00082948  1
  O  O335  1  0.03113167  0.00840829  0.41672486  1
  O  O336  1  0.29115145  0.62882197  0.02967595  1
  O  O337  1  0.07868952  0.49613373  0.49959067  1
  O  O338  1  0.65152936  0.00449718  -0.01574895  1
  O  O339  1  0.61847636  -0.03069171  0.50081071  1
  O  O340  1  0.68575119  0.51334901  -0.04031242  1
  O  O341  1  0.63532696  0.51547532  0.56402690  1
  O  O342  1  0.35781467  0.41840593  0.12796541  1
  O  O343  1  0.39549961  0.36416237  0.64729247  1
  O  O344  1  0.25524593  0.79661028  0.08290822  1
  O  O345  1  0.34788547  0.88648081  0.63760628  1
  O  O346  1  0.87393996  0.33865139  0.14949161  1
  O  O347  1  0.89375959  0.37822390  0.58906175  1
  O  O348  1  0.76871403  0.95945134  0.14234414  1
  O  O349  1  0.90161115  0.86478205  0.58756049  1
  O  O350  1  0.15216262  0.08290109  0.34205778  1
  O  O351  1  0.12671952  0.12438117  0.89658707  1
  O  O352  1  0.14680388  0.59199263  0.36682384  1
  O  O353  1  0.10117385  0.59082893  0.88826231  1
  O  O354  1  0.60420387  0.10102187  0.39553750  1
  O  O355  1  0.64161703  0.10611899  0.85828296  1
  O  O356  1  0.64733666  0.64565095  0.34319223  1
  O  O357  1  0.63606800  0.64437805  0.89955161  1
