# generated using pymatgen
data_V51Zn51O256
_symmetry_space_group_name_H-M   'P 1'
_cell_length_a   17.37778456
_cell_length_b   17.15613328
_cell_length_c   17.11086556
_cell_angle_alpha   89.84441969
_cell_angle_beta   89.72200086
_cell_angle_gamma   90.11327690
_symmetry_Int_Tables_number   1
_chemical_formula_structural   V51Zn51O256
_chemical_formula_sum   'V51 Zn51 O256'
_cell_volume   5101.26900545
_cell_formula_units_Z   1
loop_
 _symmetry_equiv_pos_site_id
 _symmetry_equiv_pos_as_xyz
  1  'x, y, z'
loop_
 _atom_site_type_symbol
 _atom_site_label
 _atom_site_symmetry_multiplicity
 _atom_site_fract_x
 _atom_site_fract_y
 _atom_site_fract_z
 _atom_site_occupancy
  V  V0  1  0.51195214  0.52900474  0.45103639  1
  V  V1  1  0.85487272  0.76632414  0.68296903  1
  V  V2  1  -0.01822822  0.16812549  0.66907793  1
  V  V3  1  0.68901471  0.01251354  0.65589802  1
  V  V4  1  0.36422373  0.73749916  0.61729497  1
  V  V5  1  0.61683403  0.14004288  -0.04090050  1
  V  V6  1  0.84976149  0.25436057  0.11458811  1
  V  V7  1  0.24294698  0.12366918  0.86140064  1
  V  V8  1  0.25520372  0.01121515  0.23380119  1
  V  V9  1  0.25284624  0.41295378  0.63558793  1
  V  V10  1  -0.03957962  0.02224266  0.55493168  1
  V  V11  1  0.49305164  0.90110575  0.42427583  1
  V  V12  1  0.00291204  0.15496013  0.13774450  1
  V  V13  1  0.86300039  0.13446275  0.26275985  1
  V  V14  1  0.11427843  0.86547105  0.76637466  1
  V  V15  1  0.66028172  0.66068651  0.00882662  1
  V  V16  1  0.23286155  0.35891170  0.11818959  1
  V  V17  1  0.76909094  0.36922781  0.60378152  1
  V  V18  1  0.26908469  0.47738054  0.26899462  1
  V  V19  1  0.34730180  0.87828524  0.52370978  1
  V  V20  1  0.84810754  0.86321068  0.03322522  1
  V  V21  1  0.38629465  0.23839030  0.11492117  1
  V  V22  1  0.52481446  0.32260749  0.77876396  1
  V  V23  1  0.50126997  0.77095200  0.72517275  1
  V  V24  1  0.49078161  0.78622122  0.25028755  1
  V  V25  1  0.52512772  0.61825604  0.61511620  1
  V  V26  1  0.73964934  0.59819225  0.85676810  1
  V  V27  1  0.62587028  0.80149189  0.38684697  1
  V  V28  1  0.37537289  0.00003576  0.84287057  1
  V  V29  1  0.22940520  0.22485636  0.00153892  1
  V  V30  1  0.38145720  0.75523845  0.11046072  1
  V  V31  1  0.62600704  0.89907036  0.20149747  1
  V  V32  1  0.02708456  0.51524847  -0.00698614  1
  V  V33  1  0.90719221  0.61511584  0.76991939  1
  V  V34  1  0.74193383  0.00705312  0.25373202  1
  V  V35  1  0.00497054  0.49782531  0.48751457  1
  V  V36  1  0.48786249  0.88408131  0.87978612  1
  V  V37  1  0.02371358  0.68246637  0.23520959  1
  V  V38  1  0.88132621  0.00577492  0.91368147  1
  V  V39  1  0.22990819  0.25304113  0.48004585  1
  V  V40  1  0.38656723  0.13120775  0.26693684  1
  V  V41  1  -0.02804601  0.38975997  0.90668241  1
  V  V42  1  0.25456324  0.63969400  0.87132258  1
  V  V43  1  0.02071420  -0.03272293  0.04072170  1
  V  V44  1  0.02613474  0.94104198  0.39287510  1
  V  V45  1  0.39366145  0.60371887  0.74682940  1
  V  V46  1  0.35936115  0.36584545  -0.02334523  1
  V  V47  1  0.29093032  0.65858641  0.38562779  1
  V  V48  1  0.40308031  0.39000626  0.47565477  1
  V  V49  1  0.62912516  0.77312885  0.86476261  1
  V  V50  1  0.02122569  0.28867087  0.78561348  1
  Zn  Zn51  1  0.31661208  0.30230049  0.30351582  1
  Zn  Zn52  1  0.40332512  0.72159572  0.90481612  1
  Zn  Zn53  1  0.07229861  0.65204174  0.55640982  1
  Zn  Zn54  1  0.06989126  0.48362493  0.25139123  1
  Zn  Zn55  1  0.38630453  0.45743299  0.12757259  1
  Zn  Zn56  1  0.23824609  0.51817092  1.00621995  1
  Zn  Zn57  1  0.31475696  0.84256337  0.33398044  1
  Zn  Zn58  1  0.52216428  0.01660813  0.28604168  1
  Zn  Zn59  1  0.86955175  0.95855868  0.72880561  1
  Zn  Zn60  1  0.44108751  0.44224314  0.65797114  1
  Zn  Zn61  1  0.51790346  0.28374818  0.58525482  1
  Zn  Zn62  1  0.20903595  0.14638800  0.16365578  1
  Zn  Zn63  1  0.92950193  0.93737438  0.21127384  1
  Zn  Zn64  1  0.66257890  0.19959840  0.68441304  1
  Zn  Zn65  1  0.87955596  0.65911315  -0.03863770  1
  Zn  Zn66  1  0.53989326  0.61345084  0.83573252  1
  Zn  Zn67  1  0.15063080  0.98668804  0.93337814  1
  Zn  Zn68  1  0.87414914  0.55536306  0.61473330  1
  Zn  Zn69  1  0.21257098  0.62760778  0.20769215  1
  Zn  Zn70  1  -0.01244063  0.75991823  0.03420024  1
  Zn  Zn71  1  0.33453575  0.54911605  0.54927489  1
  Zn  Zn72  1  0.54790956  0.81541751  0.04639489  1
  Zn  Zn73  1  0.41843380  0.19673766  0.90905971  1
  Zn  Zn74  1  0.94675429  0.19464218  0.96207653  1
  Zn  Zn75  1  0.43138671  0.59303046  0.27918016  1
  Zn  Zn76  1  0.31914529  0.81441103  0.78525934  1
  Zn  Zn77  1  0.91415534  0.80870865  0.85362456  1
  Zn  Zn78  1  0.23066330  0.32323792  0.82032165  1
  Zn  Zn79  1  0.61635970  0.69264500  0.20101380  1
  Zn  Zn80  1  0.17071970  0.80676648  0.44741977  1
  Zn  Zn81  1  0.69240672  0.14772430  0.14854377  1
  Zn  Zn82  1  0.82522272  0.26383148  0.77740236  1
  Zn  Zn83  1  0.03512384  0.04858985  0.83133163  1
  Zn  Zn84  1  0.53742520  0.32738422  0.03764383  1
  Zn  Zn85  1  0.90757550  0.34980512  0.25368860  1
  Zn  Zn86  1  0.84024498  0.04510475  0.10117614  1
  Zn  Zn87  1  0.41106258  0.94048322  0.17038404  1
  Zn  Zn88  1  0.32798841  0.05149023  0.04966489  1
  Zn  Zn89  1  0.81826867  0.13987802  0.55706840  1
  Zn  Zn90  1  0.70621143  0.39347090  0.87523415  1
  Zn  Zn91  1  0.69323902  0.93630626  0.93928631  1
  Zn  Zn92  1  0.29325795  0.06605481  0.54130106  1
  Zn  Zn93  1  0.39160062  0.20236141  0.46098158  1
  Zn  Zn94  1  0.68365720  0.69800338  0.68983151  1
  Zn  Zn95  1  1.02486478  0.36019489  0.11760623  1
  Zn  Zn96  1  0.05523739  0.68350300  0.85983667  1
  Zn  Zn97  1  0.21460263  0.61786321  0.67127175  1
  Zn  Zn98  1  0.07235752  0.09086994  0.28230667  1
  Zn  Zn99  1  0.45950751  0.71283148  0.44330213  1
  Zn  Zn100  1  0.08021161  0.32323641  0.58350301  1
  Zn  Zn101  1  0.62573473  0.40424932  0.49846125  1
  O  O102  1  0.09922987  0.14502498  0.17407236  1
  O  O103  1  0.01616647  0.10765730  0.58684100  1
  O  O104  1  0.18562184  0.75733907  0.01756360  1
  O  O105  1  0.11225183  0.65120299  0.65639267  1
  O  O106  1  0.61097659  0.11909513  0.06416499  1
  O  O107  1  0.71943779  0.10973825  0.60484392  1
  O  O108  1  0.66739605  0.69422895  0.10538624  1
  O  O109  1  0.62070490  0.63502479  0.62022206  1
  O  O110  1  0.38300277  0.36070409  0.38302831  1
  O  O111  1  0.32536506  0.36559321  0.88471278  1
  O  O112  1  0.38674492  0.87671787  0.41708151  1
  O  O113  1  0.38463282  0.88190927  0.84861397  1
  O  O114  1  0.89737198  0.35633828  0.35957372  1
  O  O115  1  0.88015707  0.40316781  0.90564622  1
  O  O116  1  0.96498123  0.91591184  0.31650505  1
  O  O117  1  0.89060127  0.88232551  0.93089008  1
  O  O118  1  0.22685045  0.02592630  0.43864555  1
  O  O119  1  0.26250615  -0.00477994  0.88825177  1
  O  O120  1  0.26389439  0.45944681  0.36166222  1
  O  O121  1  0.24267960  0.51408762  0.87551288  1
  O  O122  1  0.74673471  -0.01244918  0.34590296  1
  O  O123  1  0.78402542  -0.01188998  0.89571004  1
  O  O124  1  0.65906207  0.38908839  0.35701635  1
  O  O125  1  0.71591097  0.50223222  0.86187180  1
  O  O126  1  0.23999597  0.45953463  0.10484251  1
  O  O127  1  0.25088116  0.51915840  0.62861499  1
  O  O128  1  0.24838113  1.02500216  0.13263654  1
  O  O129  1  0.20652699  1.03665363  0.62374482  1
  O  O130  1  0.69682421  0.49327447  0.21997096  1
  O  O131  1  0.79840561  0.46597781  0.62081789  1
  O  O132  1  0.73090088  1.04595049  0.11818008  1
  O  O133  1  0.78098895  1.02288427  0.70916865  1
  O  O134  1  -0.00013615  0.41093840  0.21737610  1
  O  O135  1  -0.00488511  0.38475157  0.79261789  1
  O  O136  1  -0.00498754  0.77819475  0.24506368  1
  O  O137  1  0.01673236  0.85902927  0.79910972  1
  O  O138  1  0.58234446  0.37152738  0.20669084  1
  O  O139  1  0.49096988  0.34363830  0.68042613  1
  O  O140  1  0.50465481  0.89915169  0.23494341  1
  O  O141  1  0.49822831  0.86561729  0.71853182  1
  O  O142  1  0.48253715  0.11306791  0.24524036  1
  O  O143  1  0.39474237  0.16293901  0.70778350  1
  O  O144  1  0.51439685  0.68162184  0.25139573  1
  O  O145  1  0.50627504  0.62829992  0.72708497  1
  O  O146  1  0.96871584  0.11669430  0.23999891  1
  O  O147  1  1.02126290  0.11711753  0.74489738  1
  O  O148  1  1.02139159  0.57862451  0.20607437  1
  O  O149  1  1.00229979  0.61485509  0.78905198  1
  O  O150  1  0.36476371  0.24848131  -0.00187763  1
  O  O151  1  0.42908433  0.29037874  0.51696637  1
  O  O152  1  0.39778477  0.73861329  0.01437139  1
  O  O153  1  0.38381538  0.75633824  0.51589491  1
  O  O154  1  0.87566159  0.26346506  0.01812155  1
  O  O155  1  0.95939609  0.22154088  0.42423653  1
  O  O156  1  0.86951071  0.75933616  0.02696683  1
  O  O157  1  0.89261098  0.71109477  0.48522043  1
  O  O158  1  0.13559436  0.25872659  0.50641716  1
  O  O159  1  0.13621040  0.22328904  1.00862921  1
  O  O160  1  0.13010923  0.71640648  0.49460020  1
  O  O161  1  0.12106568  0.72880374  1.00617915  1
  O  O162  1  0.60059219  0.29761120  0.51060365  1
  O  O163  1  0.59751230  0.24288839  0.97740407  1
  O  O164  1  0.64136905  0.76393306  0.47230390  1
  O  O165  1  0.60138202  0.74759028  0.97263476  1
  O  O166  1  0.48253662  0.25897674  0.10838742  1
  O  O167  1  0.57731822  0.19781885  0.61495134  1
  O  O168  1  0.48546567  0.77608488  0.13808306  1
  O  O169  1  0.49804780  0.73645651  0.62596209  1
  O  O170  1  0.98785748  0.25429355  0.13895672  1
  O  O171  1  1.02682725  0.26599555  0.66625369  1
  O  O172  1  0.99564082  0.70373376  0.13494357  1
  O  O173  1  0.95791558  0.73601854  0.49957941  1
  O  O174  1  0.09585814  0.19462306  0.34867107  1
  O  O175  1  -0.00511387  0.28410099  0.89954222  1
  O  O176  1  0.08269279  0.68743862  0.31688428  1
  O  O177  1  -0.02310841  0.73038252  0.92196776  1
  O  O178  1  0.60387720  0.13076230  0.42922461  1
  O  O179  1  0.45897378  0.26772420  0.82842876  1
  O  O180  1  0.51394468  0.79092073  0.37387436  1
  O  O181  1  0.49446526  0.77619909  0.84817943  1
  O  O182  1  0.28855697  0.17099485  0.51418093  1
  O  O183  1  0.25794552  0.12380969  0.99282440  1
  O  O184  1  0.27559801  0.61493031  0.47340783  1
  O  O185  1  0.27949014  0.61648508  0.96575521  1
  O  O186  1  0.77681497  0.20277792  0.48321763  1
  O  O187  1  0.71138988  0.17017362  0.95813455  1
  O  O188  1  0.77848949  0.61811257  0.55327853  1
  O  O189  1  0.75438718  0.64112499  0.96458180  1
  O  O190  1  0.24348060  0.33949698  0.00934377  1
  O  O191  1  0.27985623  0.35005926  0.49297587  1
  O  O192  1  0.16944468  0.86032171  0.13272823  1
  O  O193  1  0.25384878  0.86409663  0.50316071  1
  O  O194  1  0.69959172  0.39000383  0.00489577  1
  O  O195  1  0.74089392  0.38211635  0.49951680  1
  O  O196  1  0.75161817  0.87849087  0.01822604  1
  O  O197  1  0.78300885  0.74761823  0.37686826  1
  O  O198  1  0.17887203  0.51253735  0.21949738  1
  O  O199  1  0.18556887  0.48936394  0.82433698  1
  O  O200  1  0.16176649  1.02264712  0.26593816  1
  O  O201  1  0.10471765  0.96832406  0.75968462  1
  O  O202  1  0.54637182  0.43326967  0.19063728  1
  O  O203  1  0.55000624  0.42761935  0.80416466  1
  O  O204  1  0.62443779  0.99905021  0.23922578  1
  O  O205  1  0.63120298  1.08346641  0.70717108  1
  O  O206  1  0.37052911  0.02114673  0.24799084  1
  O  O207  1  0.35127937  0.00136495  0.75120759  1
  O  O208  1  0.36601637  0.50762683  0.23093454  1
  O  O209  1  0.40260899  0.50670593  0.74421868  1
  O  O210  1  0.84543498  0.01617292  0.22249995  1
  O  O211  1  0.92427174  -0.00084110  0.81602808  1
  O  O212  1  0.75677847  0.49138846  0.25751963  1
  O  O213  1  0.89551711  0.52523685  0.72354295  1
  O  O214  1  0.09857069  0.32464019  0.34171406  1
  O  O215  1  0.15817202  0.42074516  0.84119681  1
  O  O216  1  0.10520355  0.88073902  0.39596741  1
  O  O217  1  0.14608912  0.88579149  0.86617530  1
  O  O218  1  0.57150437  0.25552888  0.32006803  1
  O  O219  1  0.58758626  0.37922297  0.85861854  1
  O  O220  1  0.60710677  0.89881759  0.40277449  1
  O  O221  1  0.60482854  0.87807358  0.88093009  1
  O  O222  1  0.37878769  0.13816292  0.11382435  1
  O  O223  1  0.45982666  0.08459539  0.59225199  1
  O  O224  1  0.37678367  0.66015203  0.16958336  1
  O  O225  1  0.39530312  0.62328861  0.63277295  1
  O  O226  1  0.88138496  0.14751548  0.13141870  1
  O  O227  1  0.88500539  0.16511924  0.64212534  1
  O  O228  1  0.80104512  0.64089590  0.19918558  1
  O  O229  1  0.88725798  0.65830240  0.66507607  1
  O  O230  1  0.25602764  0.23603248  0.11232989  1
  O  O231  1  0.27169225  0.31648718  0.57012482  1
  O  O232  1  0.29891774  0.67974298  0.14560239  1
  O  O233  1  0.27165297  0.70926560  0.62411320  1
  O  O234  1  0.75187292  0.23956731  0.11740339  1
  O  O235  1  0.72323753  0.27517408  0.61685444  1
  O  O236  1  0.80394892  0.71203320  0.18773277  1
  O  O237  1  0.76119707  0.76390383  0.64789087  1
  O  O238  1  0.24544987  0.25493604  0.38117747  1
  O  O239  1  0.24167871  0.22780870  0.88706390  1
  O  O240  1  0.25268352  0.75483519  0.37566470  1
  O  O241  1  0.29471139  0.73594857  0.86716373  1
  O  O242  1  0.62595657  0.23315077  0.27669666  1
  O  O243  1  0.76398495  0.30576026  0.85785269  1
  O  O244  1  0.74227150  0.80267810  0.35181552  1
  O  O245  1  0.72215612  0.78150733  0.86188059  1
  O  O246  1  0.00639442  0.13114532  0.04039288  1
  O  O247  1  -0.02640374  0.22713401  0.49407576  1
  O  O248  1  -0.04131143  0.58571003  0.01093442  1
  O  O249  1  0.02763163  0.59628771  0.46113792  1
  O  O250  1  0.51165702  0.14060669  -0.04631710  1
  O  O251  1  0.46986873  0.10960565  0.52474499  1
  O  O252  1  0.47542873  0.53630530  -0.01658878  1
  O  O253  1  0.50535198  0.62602464  0.50202478  1
  O  O254  1  0.50528189  0.41374437  0.47483450  1
  O  O255  1  0.45967156  0.36647198  0.97054149  1
  O  O256  1  0.49131559  0.89736027  0.52015268  1
  O  O257  1  0.48083412  0.87901905  0.97714585  1
  O  O258  1  1.00268740  0.40482164  0.53435600  1
  O  O259  1  1.00107458  0.41284072  1.01686137  1
  O  O260  1  0.99082564  0.94380901  0.49317871  1
  O  O261  1  1.01726535  0.86715472  1.04312186  1
  O  O262  1  0.50744948  0.54350630  0.35332747  1
  O  O263  1  0.51092430  0.51076874  0.92679691  1
  O  O264  1  0.49255896  0.99641562  0.39316457  1
  O  O265  1  0.48057828  0.98641996  0.85247601  1
  O  O266  1  0.97320428  0.47506429  0.39762139  1
  O  O267  1  1.01757491  0.49044770  0.89468325  1
  O  O268  1  1.04866397  1.03738934  0.38088394  1
  O  O269  1  1.00850476  1.00113841  0.93594042  1
  O  O270  1  -0.00321263  -0.00280510  0.13675035  1
  O  O271  1  -0.06704578  -0.01870454  0.64073728  1
  O  O272  1  -0.16560188  0.49467471  0.11223622  1
  O  O273  1  0.00809251  0.55228805  0.58752980  1
  O  O274  1  0.41818336  -0.00826246  0.07179144  1
  O  O275  1  0.60858773  -0.01644226  0.60468947  1
  O  O276  1  0.50580467  0.43205032  0.11860183  1
  O  O277  1  0.51486247  0.51828664  0.61115743  1
  O  O278  1  0.26312459  0.37609988  0.23193207  1
  O  O279  1  0.27303567  0.37593932  0.72482000  1
  O  O280  1  0.27120209  0.91467768  0.26442730  1
  O  O281  1  0.21531292  0.85607700  0.74743688  1
  O  O282  1  0.71544412  0.35601009  0.32888130  1
  O  O283  1  0.79187069  0.35042397  0.70407617  1
  O  O284  1  0.72568305  0.90350273  0.21001031  1
  O  O285  1  0.85289992  0.85337052  0.75751547  1
  O  O286  1  0.27429751  0.12039883  0.25612914  1
  O  O287  1  0.24842219  0.12948735  0.76677736  1
  O  O288  1  0.26132238  0.60168818  0.30577958  1
  O  O289  1  0.28898769  0.61693234  0.76430015  1
  O  O290  1  0.74657101  0.11708826  0.25052195  1
  O  O291  1  0.74898221  0.18957730  0.75234877  1
  O  O292  1  0.67410954  0.63565273  0.29705286  1
  O  O293  1  0.73901611  0.62446451  0.76043670  1
  O  O294  1  0.38918516  0.14739702  0.36625100  1
  O  O295  1  0.36045216  0.10504970  0.87078605  1
  O  O296  1  0.39091380  0.66012619  0.36772312  1
  O  O297  1  0.42483259  0.62375216  0.84785114  1
  O  O298  1  0.86420243  0.12100665  0.35680053  1
  O  O299  1  0.88684058  0.10598371  0.92680950  1
  O  O300  1  0.75424233  0.60262142  0.48683171  1
  O  O301  1  0.84932644  0.59935599  0.86245709  1
  O  O302  1  0.13775455  0.34397479  0.13176146  1
  O  O303  1  0.15685906  0.39406255  0.62302353  1
  O  O304  1  0.12768401  0.88795183  0.18274409  1
  O  O305  1  0.09473301  0.86246654  0.66668208  1
  O  O306  1  0.64568823  0.38205858  0.05479632  1
  O  O307  1  0.66723401  0.41247790  0.61232739  1
  O  O308  1  0.60754201  0.89110043  0.10518771  1
  O  O309  1  0.67981639  0.94089445  0.72683254  1
  O  O310  1  0.08392325  0.25972991  0.30815156  1
  O  O311  1  0.11904577  0.28176426  0.79508743  1
  O  O312  1  0.12227305  0.68707111  0.19274095  1
  O  O313  1  0.10714364  0.76274050  0.78101921  1
  O  O314  1  0.60453206  0.20457278  0.20528704  1
  O  O315  1  0.60063863  0.26466705  0.75565367  1
  O  O316  1  0.61311223  0.80152560  0.25611781  1
  O  O317  1  0.60688513  0.75501556  0.75713873  1
  O  O318  1  0.37553652  0.23564508  0.22946883  1
  O  O319  1  0.37590328  0.22084287  0.67092293  1
  O  O320  1  0.39692190  0.78878287  0.26918334  1
  O  O321  1  0.39225520  0.74177950  0.73095896  1
  O  O322  1  0.86131095  0.23683053  0.25086618  1
  O  O323  1  0.92956885  0.23364455  0.77065616  1
  O  O324  1  0.94449306  0.64942917  0.28625846  1
  O  O325  1  0.88998537  0.72611001  0.78202515  1
  O  O326  1  0.40311606  0.50317905  0.46621354  1
  O  O327  1  0.35023681  0.46633537  1.01342476  1
  O  O328  1  0.35133207  0.97701870  0.54359374  1
  O  O329  1  0.31775600  0.97493550  0.94514666  1
  O  O330  1  0.90060980  0.51502003  0.51199620  1
  O  O331  1  0.77234148  0.51786258  1.08842180  1
  O  O332  1  0.88054724  1.05978615  0.51269345  1
  O  O333  1  0.88922168  0.97908383  1.02585411  1
  O  O334  1  0.12073973  -0.01771221  0.03805706  1
  O  O335  1  0.14468055  0.01231056  0.59474296  1
  O  O336  1  0.12041360  0.53870335  0.01342123  1
  O  O337  1  0.10156952  0.47368921  0.48013178  1
  O  O338  1  0.63250990  0.03767597  -0.04469038  1
  O  O339  1  0.73809813  -0.03118747  0.57649668  1
  O  O340  1  0.61547732  0.57758609  0.02037857  1
  O  O341  1  0.61008095  0.50979749  0.46583044  1
  O  O342  1  0.35320904  0.34708617  0.10895331  1
  O  O343  1  0.35949522  0.42675857  0.58192120  1
  O  O344  1  0.34607892  0.84496098  0.12794898  1
  O  O345  1  0.35393202  0.84286514  0.62651543  1
  O  O346  1  0.86276328  0.35018927  0.15234698  1
  O  O347  1  0.85156796  0.33569581  0.56300802  1
  O  O348  1  0.87349225  0.87394432  0.13204074  1
  O  O349  1  0.90960770  0.81145264  0.61915165  1
  O  O350  1  0.18230502  0.07846601  0.41788310  1
  O  O351  1  0.14579480  0.08377198  0.87254754  1
  O  O352  1  0.11600177  0.51929083  0.34065694  1
  O  O353  1  0.15837566  0.64872924  0.86651223  1
  O  O354  1  0.66428617  0.11940962  0.39388489  1
  O  O355  1  0.61544410  0.14113040  0.85699980  1
  O  O356  1  0.65103323  0.66127105  0.36258635  1
  O  O357  1  0.63679518  0.64815785  0.87504719  1
