# generated using pymatgen
data_V51Zn51O256
_symmetry_space_group_name_H-M   'P 1'
_cell_length_a   17.14290174
_cell_length_b   17.33447488
_cell_length_c   17.40699097
_cell_angle_alpha   90.16321834
_cell_angle_beta   90.41504927
_cell_angle_gamma   89.21896201
_symmetry_Int_Tables_number   1
_chemical_formula_structural   V51Zn51O256
_chemical_formula_sum   'V51 Zn51 O256'
_cell_volume   5172.08126699
_cell_formula_units_Z   1
loop_
 _symmetry_equiv_pos_site_id
 _symmetry_equiv_pos_as_xyz
  1  'x, y, z'
loop_
 _atom_site_type_symbol
 _atom_site_label
 _atom_site_symmetry_multiplicity
 _atom_site_fract_x
 _atom_site_fract_y
 _atom_site_fract_z
 _atom_site_occupancy
  V  V0  1  0.39361298  0.32326384  0.05279195  1
  V  V1  1  0.01397491  0.59871383  0.14519037  1
  V  V2  1  0.88091673  0.36494923  0.51044960  1
  V  V3  1  0.74255167  0.75143372  0.49354290  1
  V  V4  1  0.80436198  0.12859021  0.37177108  1
  V  V5  1  0.25355303  0.79138668  0.50090993  1
  V  V6  1  0.01216529  0.51943084  0.51304465  1
  V  V7  1  0.12807791  0.61562311  -0.02007826  1
  V  V8  1  0.74060882  0.24952213  0.49151782  1
  V  V9  1  0.62526617  0.63236292  0.45724990  1
  V  V10  1  0.61831906  0.12557259  0.46776196  1
  V  V11  1  0.51148383  0.24237531  0.74750397  1
  V  V12  1  -0.02899983  0.86479763  0.34880877  1
  V  V13  1  0.13314054  0.64295744  0.49834018  1
  V  V14  1  0.63888837  0.37318286  0.28433020  1
  V  V15  1  0.53727048  0.01462526  -0.02576506  1
  V  V16  1  0.37190054  0.38305602  0.48721469  1
  V  V17  1  0.87885637  0.75500706  0.63358842  1
  V  V18  1  0.36041140  0.80837137  0.00540270  1
  V  V19  1  0.03418188  0.39257457  0.40195627  1
  V  V20  1  0.73845113  0.11134324  0.87921741  1
  V  V21  1  0.51054776  0.13878548  0.60877481  1
  V  V22  1  0.25535869  0.40828591  0.63014983  1
  V  V23  1  -0.02797989  0.48910342  0.01253781  1
  V  V24  1  0.87319688  0.69794208  0.06826815  1
  V  V25  1  0.14897869  0.15754953  0.47395056  1
  V  V26  1  -0.04974185  0.39447238  0.87405056  1
  V  V27  1  0.27124675  0.39979407  0.14050407  1
  V  V28  1  0.86738927  0.50635292  0.39438087  1
  V  V29  1  0.35966385  0.24468426  0.62720407  1
  V  V30  1  0.61467276  -0.00180081  0.60616879  1
  V  V31  1  0.75282037  0.01144318  0.72456154  1
  V  V32  1  0.86545729  0.62348961  0.25066343  1
  V  V33  1  0.37167553  0.73801356  0.62832650  1
  V  V34  1  0.58803467  0.48989786  0.08284732  1
  V  V35  1  0.00860813  0.25869583  0.27892663  1
  V  V36  1  -0.00401324  0.63308561  0.63880219  1
  V  V37  1  0.20606537  0.87760571  0.12812240  1
  V  V38  1  0.47524003  0.52775994  -0.06413609  1
  V  V39  1  0.88461332  0.87948251  0.00746523  1
  V  V40  1  0.19592023  0.04399359  0.31994215  1
  V  V41  1  0.76640702  0.87218193  0.61663185  1
  V  V42  1  0.01514885  0.26011364  0.75861035  1
  V  V43  1  0.36507269  0.53214077  0.38224664  1
  V  V44  1  0.62551810  0.88219129  0.25687687  1
  V  V45  1  0.54315673  0.87869246  0.85825845  1
  V  V46  1  0.89521248  0.01033687  0.84025908  1
  V  V47  1  0.34987598  0.12689793  0.28404264  1
  V  V48  1  0.64719426  0.52054890  0.65140229  1
  V  V49  1  0.16790129  0.40412452  0.81000713  1
  V  V50  1  0.76636586  0.48032917  0.24675216  1
  Zn  Zn51  1  0.66238113  0.25862842  0.84224042  1
  Zn  Zn52  1  0.79675402  0.05501700  0.53620619  1
  Zn  Zn53  1  0.72342743  0.20287130  0.21521047  1
  Zn  Zn54  1  1.04747174  0.77930993  1.04919153  1
  Zn  Zn55  1  0.31355097  0.56482702  0.56038929  1
  Zn  Zn56  1  0.65847089  0.67260525  0.04859205  1
  Zn  Zn57  1  0.42687699  0.69301415  0.45711108  1
  Zn  Zn58  1  0.87567411  0.21543979  0.84087665  1
  Zn  Zn59  1  0.20945368  0.26075218  0.22147952  1
  Zn  Zn60  1  0.97505484  0.18401301  0.47283649  1
  Zn  Zn61  1  0.80824989  0.58386908  0.56361601  1
  Zn  Zn62  1  0.54899013  0.34107731  0.96194001  1
  Zn  Zn63  1  0.40773227  0.18261520  0.46953363  1
  Zn  Zn64  1  0.37034022  0.34956918  0.77299523  1
  Zn  Zn65  1  0.01671054  0.07531928  0.33268243  1
  Zn  Zn66  1  0.05524608  0.57396105  0.32901018  1
  Zn  Zn67  1  0.11998254  0.38727669  -0.00585723  1
  Zn  Zn68  1  0.68942849  0.19292213  0.66496937  1
  Zn  Zn69  1  0.57369523  0.06828496  0.78939816  1
  Zn  Zn70  1  0.07051202  0.08196702  0.78590531  1
  Zn  Zn71  1  0.19429297  0.86158433  0.33050766  1
  Zn  Zn72  1  0.57015999  0.31301474  0.14822154  1
  Zn  Zn73  1  0.54121369  0.07232925  0.28519091  1
  Zn  Zn74  1  0.29034330  0.45841549  0.95039989  1
  Zn  Zn75  1  0.49615294  0.36629923  0.62424882  1
  Zn  Zn76  1  0.96696391  0.42180530  0.67157598  1
  Zn  Zn77  1  0.20223172  0.43286395  0.31954552  1
  Zn  Zn78  1  0.55463807  0.85174750  0.05456484  1
  Zn  Zn79  1  0.68681942  0.43438813  0.46293377  1
  Zn  Zn80  1  0.91854320  0.68287476  0.44386741  1
  Zn  Zn81  1  0.45235075  0.44001813  0.20622469  1
  Zn  Zn82  1  0.71879392  0.94960229  0.43445104  1
  Zn  Zn83  1  0.78669467  0.55235714  0.07820906  1
  Zn  Zn84  1  0.17152091  0.71704591  0.64904795  1
  Zn  Zn85  1  0.56704748  0.41892145  0.79975196  1
  Zn  Zn86  1  0.03962802  0.55418858  0.82029050  1
  Zn  Zn87  1  0.55640198  0.69734174  0.58856382  1
  Zn  Zn88  1  0.59017799  0.53963115  0.33785369  1
  Zn  Zn89  1  0.72039102  -0.02000969  0.00929113  1
  Zn  Zn90  1  0.17337566  0.97039115  0.49826273  1
  Zn  Zn91  1  0.46195349  0.70001918  0.90834006  1
  Zn  Zn92  1  0.09833908  0.29682267  0.59218620  1
  Zn  Zn93  1  0.31772023  0.61828031  0.02301486  1
  Zn  Zn94  1  0.84087534  0.32023719  0.32946522  1
  Zn  Zn95  1  0.51879825  0.85786979  0.67242762  1
  Zn  Zn96  1  0.04576899  0.82139146  0.54291811  1
  Zn  Zn97  1  0.39388429  0.83554707  0.80789528  1
  Zn  Zn98  1  0.95250384  0.42850358  0.21262803  1
  Zn  Zn99  1  0.69925216  0.81362821  0.94846815  1
  Zn  Zn100  1  0.28491701  0.09927819  0.59860706  1
  Zn  Zn101  1  0.77940292  0.79936926  0.29467675  1
  O  O102  1  0.08776789  0.14889134  0.09761292  1
  O  O103  1  0.06881186  0.03484902  0.61853041  1
  O  O104  1  0.10780557  0.59885444  0.15997782  1
  O  O105  1  0.10059972  0.64221780  0.61361580  1
  O  O106  1  0.60328147  0.13254194  0.19300091  1
  O  O107  1  0.61697550  0.13225820  0.59617161  1
  O  O108  1  0.65760681  0.56369143  0.07127587  1
  O  O109  1  0.60137491  0.60828937  0.63743948  1
  O  O110  1  0.37174826  0.37706817  0.39266689  1
  O  O111  1  0.41889876  0.33942679  0.94277042  1
  O  O112  1  0.42991158  0.80171980  0.31766932  1
  O  O113  1  0.35663966  0.85219065  0.91570402  1
  O  O114  1  0.89527295  0.39572591  0.40175804  1
  O  O115  1  0.85907976  0.39156714  0.89807769  1
  O  O116  1  0.86780936  0.86743491  0.33914352  1
  O  O117  1  0.88247464  0.93894792  0.90587027  1
  O  O118  1  0.19477582  -0.03552628  0.38434312  1
  O  O119  1  0.33166874  0.07787980  0.85346612  1
  O  O120  1  0.27405736  0.51037334  0.34943426  1
  O  O121  1  0.36326120  0.37110670  0.88987302  1
  O  O122  1  0.76129677  0.03702728  0.36525076  1
  O  O123  1  0.73561471  0.01801536  0.82768068  1
  O  O124  1  0.77028935  0.49453041  0.39100672  1
  O  O125  1  0.70941127  0.50376966  0.89224364  1
  O  O126  1  0.26657839  0.49344280  0.14033025  1
  O  O127  1  0.26320045  0.50573603  0.64018704  1
  O  O128  1  0.21033103  0.97079454  0.11421363  1
  O  O129  1  0.26697858  1.00704452  0.66224253  1
  O  O130  1  0.77820603  0.46773084  0.15196797  1
  O  O131  1  0.74627934  0.53508665  0.63968835  1
  O  O132  1  0.74647804  1.02549103  0.12692499  1
  O  O133  1  0.73896131  0.99110305  0.60870716  1
  O  O134  1  0.04088557  0.41939431  0.29117050  1
  O  O135  1  -0.04923990  0.42578534  0.77954018  1
  O  O136  1  -0.02312341  0.84451678  0.24995317  1
  O  O137  1  0.13696901  0.94378495  0.87518580  1
  O  O138  1  0.54148480  0.37992762  0.24604127  1
  O  O139  1  0.49149636  0.35506808  0.73604259  1
  O  O140  1  0.54503323  0.84162221  0.29305244  1
  O  O141  1  0.48788127  0.90224051  0.76567033  1
  O  O142  1  0.44123194  0.10581013  0.24701477  1
  O  O143  1  0.51084761  0.13406280  0.71669528  1
  O  O144  1  0.47957926  0.65303261  0.24014353  1
  O  O145  1  0.42131884  0.60433673  0.76858112  1
  O  O146  1  0.98020356  0.16613808  0.27450909  1
  O  O147  1  1.08225363  0.18494053  0.75439137  1
  O  O148  1  0.98262688  0.60668843  0.24796574  1
  O  O149  1  1.00504704  0.62398059  0.73472889  1
  O  O150  1  0.35848451  0.23800958  0.06261344  1
  O  O151  1  0.36833374  0.27439456  0.52245707  1
  O  O152  1  0.36856614  0.70779623  -0.02299537  1
  O  O153  1  0.35949661  0.76517060  0.51157681  1
  O  O154  1  0.92317365  0.10973845  0.04718037  1
  O  O155  1  0.90815479  0.27121230  0.50776801  1
  O  O156  1  0.89895574  0.67889595  -0.01977743  1
  O  O157  1  0.84950474  0.73558124  0.51259954  1
  O  O158  1  0.07595506  0.20629559  0.53948077  1
  O  O159  1  0.11284288  0.19021759  0.99225702  1
  O  O160  1  0.14109040  0.75219069  0.51859408  1
  O  O161  1  0.13121843  0.70657588  1.01268234  1
  O  O162  1  0.64177214  0.23865452  0.47757496  1
  O  O163  1  0.67684651  0.21593072  1.06109910  1
  O  O164  1  0.63537767  0.73496192  0.50841470  1
  O  O165  1  0.62440876  0.76960902  1.02035885  1
  O  O166  1  0.55862096  0.16833518  0.14602960  1
  O  O167  1  0.49675752  0.24340553  0.61983475  1
  O  O168  1  0.49976168  0.69499806  0.18741172  1
  O  O169  1  0.47717254  0.77212897  0.61694092  1
  O  O170  1  0.90124825  0.27433938  0.08341682  1
  O  O171  1  1.02008557  0.31758533  0.67451868  1
  O  O172  1  0.98770693  0.69463098  0.10857884  1
  O  O173  1  0.98700356  0.75026951  0.61103875  1
  O  O174  1  0.01503915  0.28890050  0.37956636  1
  O  O175  1  -0.02883369  0.28827218  0.85902592  1
  O  O176  1  -0.03251313  0.76239484  0.37131219  1
  O  O177  1  0.02158184  0.83581825  0.82009127  1
  O  O178  1  0.49166974  0.25929290  0.36439746  1
  O  O179  1  0.50421781  0.23264586  0.84036165  1
  O  O180  1  0.47443064  0.76571672  0.36025838  1
  O  O181  1  0.49800567  0.78252804  0.84969824  1
  O  O182  1  0.19937715  0.07922101  0.52742213  1
  O  O183  1  0.25448106  0.09619243  1.01364771  1
  O  O184  1  0.23074238  0.62735061  0.50839061  1
  O  O185  1  0.22083799  0.56905951  0.99174915  1
  O  O186  1  0.74300256  0.13549131  0.47333152  1
  O  O187  1  0.73375016  0.08423870  0.97269533  1
  O  O188  1  0.73214883  0.63614616  0.49216296  1
  O  O189  1  0.74792542  0.55436408  0.92345725  1
  O  O190  1  0.30588702  0.38383810  0.03338851  1
  O  O191  1  0.27276901  0.39735187  0.53081275  1
  O  O192  1  0.27734013  0.82929392  0.06097378  1
  O  O193  1  0.24837160  0.88514985  0.52405370  1
  O  O194  1  0.68413052  0.26368121  0.00539855  1
  O  O195  1  0.77169288  0.35655163  0.49143043  1
  O  O196  1  0.77246694  0.88533519  -0.01018059  1
  O  O197  1  0.72783632  0.86091963  0.51352637  1
  O  O198  1  0.10014038  0.47796778  0.27887106  1
  O  O199  1  0.11889757  0.48348877  0.77761670  1
  O  O200  1  0.10961299  1.04081747  0.27043195  1
  O  O201  1  0.17930682  1.04167881  0.80030256  1
  O  O202  1  0.65533509  0.48110731  0.26610844  1
  O  O203  1  0.63131217  0.48875253  0.74336274  1
  O  O204  1  0.59919148  0.98068910  0.25045542  1
  O  O205  1  0.63537046  1.01642418  0.70792347  1
  O  O206  1  0.28555700  0.04623069  0.26651544  1
  O  O207  1  0.32353201  -0.01728062  0.71470494  1
  O  O208  1  0.42400574  0.51690120  0.28790234  1
  O  O209  1  0.39226939  0.54462277  0.73870730  1
  O  O210  1  0.81104858  0.03843224  0.15694146  1
  O  O211  1  0.85805782  -0.00698694  0.74442273  1
  O  O212  1  0.87285939  0.48526505  0.27744773  1
  O  O213  1  0.78142174  0.43706382  0.76066049  1
  O  O214  1  0.13102390  0.39460297  0.40821322  1
  O  O215  1  0.18865725  0.41801629  0.91319633  1
  O  O216  1  0.07496339  0.85981188  0.34789081  1
  O  O217  1  0.19239530  0.97169479  0.83705877  1
  O  O218  1  0.63159452  0.36871481  0.38000970  1
  O  O219  1  0.61329978  0.35140406  0.87739469  1
  O  O220  1  0.65142172  0.90332248  0.35794043  1
  O  O221  1  0.63993705  0.85965415  0.85912055  1
  O  O222  1  0.30273189  0.20342896  0.23956811  1
  O  O223  1  0.39455301  0.13912081  0.58798782  1
  O  O224  1  0.34730120  0.67483390  0.12125512  1
  O  O225  1  0.37926830  0.64142158  0.61387323  1
  O  O226  1  0.93839504  0.12797141  0.11331145  1
  O  O227  1  0.89860373  0.07184307  0.59741513  1
  O  O228  1  0.88036908  0.60850566  0.14700466  1
  O  O229  1  0.88789724  0.64274288  0.62522295  1
  O  O230  1  0.20549781  0.30197991  0.10631148  1
  O  O231  1  0.26829138  0.21118635  0.63572396  1
  O  O232  1  0.14014211  0.73431846  0.20856945  1
  O  O233  1  0.26526172  0.75754057  0.61371726  1
  O  O234  1  0.74437255  0.19833559  0.10146205  1
  O  O235  1  0.75804279  0.23554008  0.58755997  1
  O  O236  1  0.77179379  0.66394567  0.06542437  1
  O  O237  1  0.76186313  0.76770291  0.62010689  1
  O  O238  1  0.20362524  0.23443702  0.46874861  1
  O  O239  1  0.25317593  0.22007125  0.91172342  1
  O  O240  1  0.24057252  0.78972840  0.40318946  1
  O  O241  1  0.22842146  0.72476023  0.81705072  1
  O  O242  1  0.79122349  0.24040823  0.39411682  1
  O  O243  1  0.76670352  0.21461118  0.86430859  1
  O  O244  1  0.75218713  0.76255870  0.39740341  1
  O  O245  1  0.72953546  0.71660105  0.88737787  1
  O  O246  1  0.08936258  0.13944168  -0.05127695  1
  O  O247  1  -0.06066499  0.13104536  0.58714942  1
  O  O248  1  0.04109091  0.57029425  0.02523896  1
  O  O249  1  -0.00171239  0.62532486  0.50686503  1
  O  O250  1  0.55721549  0.10564883  -0.01467339  1
  O  O251  1  0.51596187  0.14217864  0.49430585  1
  O  O252  1  0.52320929  0.61345301  -0.05148053  1
  O  O253  1  0.52297434  0.64533045  0.48806089  1
  O  O254  1  0.46619575  0.38921729  0.52172968  1
  O  O255  1  0.50319188  0.31200080  1.05826075  1
  O  O256  1  0.50035123  0.86931393  0.47141693  1
  O  O257  1  0.51245090  0.89325596  0.95186269  1
  O  O258  1  1.00253275  0.40206597  0.50560821  1
  O  O259  1  1.00677632  0.38973599  0.99059909  1
  O  O260  1  0.97059197  0.86848246  0.45459698  1
  O  O261  1  0.97182726  0.83259470  0.98479052  1
  O  O262  1  0.47715686  0.50863597  0.35339713  1
  O  O263  1  0.48658027  0.48693930  0.84888276  1
  O  O264  1  0.47699136  0.99773156  0.37044744  1
  O  O265  1  0.54704736  0.99846686  0.86919076  1
  O  O266  1  0.99911920  0.50282853  0.40354932  1
  O  O267  1  0.98290793  0.49916122  0.90459319  1
  O  O268  1  0.97354587  0.96593170  0.34475281  1
  O  O269  1  0.99325846  1.02388693  0.83321187  1
  O  O270  1  0.05943560  0.05188314  0.01735750  1
  O  O271  1  0.03136780  0.02293252  0.67795862  1
  O  O272  1  -0.01240162  0.48848726  0.12496574  1
  O  O273  1  -0.00918332  0.52264987  0.61811065  1
  O  O274  1  0.45191562  0.00854780  0.05548825  1
  O  O275  1  0.51462152  0.02907224  0.60548994  1
  O  O276  1  0.51537989  0.51366187  0.14500850  1
  O  O277  1  0.57722592  0.45417689  0.59478110  1
  O  O278  1  0.24369634  0.37093668  0.23703595  1
  O  O279  1  0.25745108  0.38976075  0.75910008  1
  O  O280  1  0.22218904  0.86016800  0.22659427  1
  O  O281  1  0.30616125  0.91776772  0.74669982  1
  O  O282  1  0.75509653  0.37819716  0.27784391  1
  O  O283  1  0.77573378  0.36878530  0.74434224  1
  O  O284  1  0.73616339  0.89397689  0.24476251  1
  O  O285  1  0.74154796  0.89756517  0.71076344  1
  O  O286  1  0.19244014  0.12693877  0.37276464  1
  O  O287  1  0.22404806  0.20275807  0.84955927  1
  O  O288  1  0.28908818  0.62171972  0.22532238  1
  O  O289  1  0.20310374  0.67879758  0.76818712  1
  O  O290  1  0.79785304  0.15110062  0.27358605  1
  O  O291  1  0.75818996  0.10916667  0.70574011  1
  O  O292  1  0.76734246  0.58716263  0.25411155  1
  O  O293  1  0.79482215  0.61154319  0.78525484  1
  O  O294  1  0.36448784  0.13788530  0.38136979  1
  O  O295  1  0.37284383  0.12525298  0.88584887  1
  O  O296  1  0.36612536  0.62956974  0.38867248  1
  O  O297  1  0.39511471  0.62138969  0.84223595  1
  O  O298  1  0.89878836  0.11719372  0.40463307  1
  O  O299  1  0.85774587  0.10162776  0.87162135  1
  O  O300  1  0.88389286  0.60819208  0.36388262  1
  O  O301  1  0.85375407  0.57321862  0.79823233  1
  O  O302  1  0.16336604  0.37519414  0.09962238  1
  O  O303  1  0.16074311  0.37583040  0.63126069  1
  O  O304  1  0.11282898  0.84834081  0.10443032  1
  O  O305  1  0.10914548  0.88524272  0.69863720  1
  O  O306  1  0.63194107  0.40599250  0.10745684  1
  O  O307  1  0.65538959  0.42809860  0.58133710  1
  O  O308  1  0.59885555  0.87391096  0.16050252  1
  O  O309  1  0.60066698  0.90100167  0.60844427  1
  O  O310  1  0.09763597  0.26666093  0.23726937  1
  O  O311  1  0.10501089  0.32925651  0.80936634  1
  O  O312  1  0.14246684  0.70889924  0.27427549  1
  O  O313  1  0.14991081  0.82930913  0.72052202  1
  O  O314  1  0.64901439  0.28205441  0.22901199  1
  O  O315  1  0.61794885  0.25015868  0.73185381  1
  O  O316  1  0.66908526  0.78137160  0.25569792  1
  O  O317  1  0.65976723  0.68688119  0.78056917  1
  O  O318  1  0.46221962  0.25922030  0.29977270  1
  O  O319  1  0.39458203  0.23826750  0.72805606  1
  O  O320  1  0.31428310  0.68152506  0.19343063  1
  O  O321  1  0.36834702  0.76219154  0.72422305  1
  O  O322  1  0.92779930  0.32016002  0.24584840  1
  O  O323  1  0.92945975  0.21200754  0.74241734  1
  O  O324  1  0.84505572  0.71914556  0.25186091  1
  O  O325  1  0.87908607  0.75805453  0.72675810  1
  O  O326  1  0.36771152  0.50194918  0.48221192  1
  O  O327  1  0.37817316  0.52856411  0.97359122  1
  O  O328  1  0.42739101  0.95448463  0.34148139  1
  O  O329  1  0.41911064  1.01867443  0.98766083  1
  O  O330  1  0.88129062  0.51778904  0.49642427  1
  O  O331  1  0.87506267  0.50299241  1.01728218  1
  O  O332  1  0.82302131  0.97233945  0.46692245  1
  O  O333  1  0.90312727  0.94933399  1.06724788  1
  O  O334  1  0.09151146  0.07495016  0.08161340  1
  O  O335  1  0.08266269  -0.07682639  0.53859489  1
  O  O336  1  0.10446874  0.61951599  -0.11437403  1
  O  O337  1  0.11031389  0.52748604  0.51405154  1
  O  O338  1  0.61175928  -0.03508245  0.03004497  1
  O  O339  1  0.63547363  0.02250370  0.49662674  1
  O  O340  1  0.53802847  0.46352171  -0.00716423  1
  O  O341  1  0.62403309  0.52790350  0.45124368  1
  O  O342  1  0.38184701  0.37157702  0.15214541  1
  O  O343  1  0.35123035  0.35307595  0.64860668  1
  O  O344  1  0.44133441  0.82727421  0.06044420  1
  O  O345  1  0.44308497  0.90739322  0.49083039  1
  O  O346  1  0.87221222  0.26052805  0.02034908  1
  O  O347  1  0.88109653  0.39593295  0.60265138  1
  O  O348  1  0.85825646  0.79696476  0.07853057  1
  O  O349  1  0.86732607  0.86800547  0.61232491  1
  O  O350  1  0.05698582  0.11863104  0.42769455  1
  O  O351  1  0.23037598  0.05094708  0.96551060  1
  O  O352  1  0.11118671  0.63723928  0.40244461  1
  O  O353  1  0.07423802  0.78775243  0.82520924  1
  O  O354  1  0.60429666  0.11688262  0.37169596  1
  O  O355  1  0.64366032  0.13785463  0.84937278  1
  O  O356  1  0.62017867  0.64921868  0.36134991  1
  O  O357  1  0.66079473  0.69258153  0.85275753  1
