# generated using pymatgen
data_V51Zn51O256
_symmetry_space_group_name_H-M   'P 1'
_cell_length_a   17.34192227
_cell_length_b   17.57628421
_cell_length_c   17.49642778
_cell_angle_alpha   90.24894020
_cell_angle_beta   90.18200433
_cell_angle_gamma   90.67569354
_symmetry_Int_Tables_number   1
_chemical_formula_structural   V51Zn51O256
_chemical_formula_sum   'V51 Zn51 O256'
_cell_volume   5332.57690414
_cell_formula_units_Z   1
loop_
 _symmetry_equiv_pos_site_id
 _symmetry_equiv_pos_as_xyz
  1  'x, y, z'
loop_
 _atom_site_type_symbol
 _atom_site_label
 _atom_site_symmetry_multiplicity
 _atom_site_fract_x
 _atom_site_fract_y
 _atom_site_fract_z
 _atom_site_occupancy
  V  V0  1  0.70825651  0.12057498  0.39486714  1
  V  V1  1  0.47598167  0.81871311  0.42375413  1
  V  V2  1  0.60988677  -0.04706896  0.20884838  1
  V  V3  1  0.43218926  0.18672796  0.12774580  1
  V  V4  1  -0.00258003  0.11369007  0.11871828  1
  V  V5  1  0.09935351  0.44274634  0.58149581  1
  V  V6  1  0.24688626  0.60190473  0.37156566  1
  V  V7  1  0.13938251  0.75215585  0.35096500  1
  V  V8  1  0.35655988  -0.03986771  0.39461168  1
  V  V9  1  0.65430695  0.48485606  0.11979317  1
  V  V10  1  0.02964306  0.24216758  0.76820994  1
  V  V11  1  0.19624874  0.54018688  0.71405129  1
  V  V12  1  0.88074375  0.37290575  -0.00281460  1
  V  V13  1  0.83897162  0.81038204  0.53591314  1
  V  V14  1  0.38831495  0.28104978  0.63772852  1
  V  V15  1  0.14988175  0.27057770  0.34704080  1
  V  V16  1  0.86596843  0.15627733  0.75321802  1
  V  V17  1  0.61441846  0.01382814  0.62462647  1
  V  V18  1  0.60875389  0.57358761  0.49193428  1
  V  V19  1  0.78554524  0.55453277  0.21411898  1
  V  V20  1  0.12795425  -0.00010825  0.11243966  1
  V  V21  1  0.52618237  0.38804531  0.92751851  1
  V  V22  1  0.73043173  0.24233763  -0.00991222  1
  V  V23  1  0.36594176  0.51441190  0.92629648  1
  V  V24  1  0.00146271  0.00750700  -0.02808274  1
  V  V25  1  0.75831219  0.60977486  0.87926375  1
  V  V26  1  0.88465771  0.49027935  0.86787768  1
  V  V27  1  0.50633568  0.00646903  0.49229709  1
  V  V28  1  0.74442771  0.87332557  0.66533070  1
  V  V29  1  0.48355165  0.38376536  0.26969329  1
  V  V30  1  0.10816060  0.74288019  0.90068230  1
  V  V31  1  0.01135396  0.49647346  0.01478953  1
  V  V32  1  0.49126828  0.85688173  0.85968359  1
  V  V33  1  0.87515373  0.24693959  0.10889841  1
  V  V34  1  0.13065836  0.89244815  0.23625346  1
  V  V35  1  0.66673695  0.81569764  0.33222056  1
  V  V36  1  0.26500014  0.70901920  0.01914059  1
  V  V37  1  0.54742575  0.24726470  0.39368569  1
  V  V38  1  -0.01075168  0.93029873  0.35106197  1
  V  V39  1  0.85815106  0.00734906  0.86249465  1
  V  V40  1  -0.01871775  0.61783739  0.14169616  1
  V  V41  1  0.62080830  0.67201785  0.01837657  1
  V  V42  1  0.51107525  0.74164113  0.25286166  1
  V  V43  1  0.38715215  0.91682851  0.01029669  1
  V  V44  1  0.72357668  0.12820762  0.87060125  1
  V  V45  1  0.18059140  0.12041282  0.48158556  1
  V  V46  1  0.11128175  0.89719904  0.74963684  1
  V  V47  1  0.20234162  0.35163335  0.10908889  1
  V  V48  1  -0.01910008  0.01573299  0.51729784  1
  V  V49  1  0.36352835  0.43292390  0.39591884  1
  V  V50  1  0.00244258  0.25548778  0.23398270  1
  Zn  Zn51  1  1.02034890  0.48084564  0.74362508  1
  Zn  Zn52  1  0.44016039  0.23214258  0.94270639  1
  Zn  Zn53  1  0.31974520  0.28817588  0.26442476  1
  Zn  Zn54  1  0.36340851  0.44730334  0.75968344  1
  Zn  Zn55  1  0.69078113  0.91133298  0.85620487  1
  Zn  Zn56  1  0.96868772  0.76302157  0.43618973  1
  Zn  Zn57  1  0.29506678  0.82578340  0.87999601  1
  Zn  Zn58  1  0.84590269  0.57739675  0.04450401  1
  Zn  Zn59  1  0.41131496  -0.01386043  0.19173984  1
  Zn  Zn60  1  0.82297711  0.02303794  0.61396767  1
  Zn  Zn61  1  0.58810586  0.55878080  0.28288523  1
  Zn  Zn62  1  0.51708356  0.38591656  0.52545270  1
  Zn  Zn63  1  0.17662580  0.44905463  0.41448421  1
  Zn  Zn64  1  1.02703133  0.12139231  0.38498664  1
  Zn  Zn65  1  0.94075208  0.95021704  0.71208790  1
  Zn  Zn66  1  0.71116583  0.42741266  0.93531612  1
  Zn  Zn67  1  0.33509714  0.76734774  0.34485343  1
  Zn  Zn68  1  0.22403477  0.51159298  1.03689250  1
  Zn  Zn69  1  0.75708762  0.06448793  0.22027467  1
  Zn  Zn70  1  0.82854899  0.71124251  0.35174566  1
  Zn  Zn71  1  0.69709242  0.93450948  0.46816471  1
  Zn  Zn72  1  0.19573418  0.17402177  0.15513615  1
  Zn  Zn73  1  0.47010170  0.94357070  0.68354946  1
  Zn  Zn74  1  0.38332156  0.14534617  0.46988420  1
  Zn  Zn75  1  0.14897460  0.96184363  0.43592327  1
  Zn  Zn76  1  0.45010595  0.68585289  0.92349138  1
  Zn  Zn77  1  0.71241567  0.70846635  0.19395726  1
  Zn  Zn78  1  0.57840930  0.30983901  0.10447482  1
  Zn  Zn79  1  0.96333024  0.85233039  0.87797795  1
  Zn  Zn80  1  0.86260522  0.19613840  0.31342417  1
  Zn  Zn81  1  0.90936167  0.96217057  0.16521769  1
  Zn  Zn82  1  0.93320398  0.42905150  0.18234782  1
  Zn  Zn83  1  0.02528342  0.83495508  0.05663380  1
  Zn  Zn84  1  0.62545393  0.78419251  0.53150145  1
  Zn  Zn85  1  0.15548380  0.54878136  0.89169244  1
  Zn  Zn86  1  0.03581361  0.86993135  0.57810951  1
  Zn  Zn87  1  0.43477574  0.62430670  0.36998346  1
  Zn  Zn88  1  0.17908431  0.90493140  0.97676740  1
  Zn  Zn89  1  0.19233746  0.19314086  0.66403115  1
  Zn  Zn90  1  0.81701982  0.06656435  0.04438907  1
  Zn  Zn91  1  0.42655401  0.61896059  0.06292291  1
  Zn  Zn92  1  0.15578739  0.72633323  0.16316752  1
  Zn  Zn93  1  0.94327708  0.18216615  0.93344229  1
  Zn  Zn94  1  0.13321272  0.72979053  0.69959651  1
  Zn  Zn95  1  0.07565961  0.25488537  0.52453140  1
  Zn  Zn96  1  0.56738075  0.02007567  0.82633792  1
  Zn  Zn97  1  0.71930224  0.16165957  0.66175189  1
  Zn  Zn98  1  0.55007882  0.83170788  0.07228248  1
  Zn  Zn99  1  0.47488080  0.45646058  0.08205258  1
  Zn  Zn100  1  0.18185008  0.06680846  0.29152268  1
  Zn  Zn101  1  0.97220217  0.64253961  0.92096353  1
  O  O102  1  0.10832277  0.10478712  0.11699143  1
  O  O103  1  0.15578474  0.18445273  0.56116570  1
  O  O104  1  0.07084576  0.67997214  0.09621230  1
  O  O105  1  0.03824800  0.65988856  0.66921416  1
  O  O106  1  0.64989069  0.04353397  0.20572619  1
  O  O107  1  0.62958793  0.10884578  0.61985503  1
  O  O108  1  0.65873242  0.65825830  0.10794323  1
  O  O109  1  0.57452846  0.58269591  0.58484838  1
  O  O110  1  0.38422947  0.37809390  0.30527895  1
  O  O111  1  0.35698281  0.43573830  0.86700488  1
  O  O112  1  0.37351967  0.85819842  0.40886527  1
  O  O113  1  0.39606432  0.88015595  0.88142146  1
  O  O114  1  0.87367912  0.27927843  0.40752664  1
  O  O115  1  0.88668127  0.39149134  0.89026753  1
  O  O116  1  0.93204307  0.86118051  0.38632585  1
  O  O117  1  0.86984133  0.91146444  0.85590534  1
  O  O118  1  0.25909657  -0.03790671  0.40570438  1
  O  O119  1  0.23157595  0.07125213  0.75763367  1
  O  O120  1  0.21918004  0.51375772  0.33556826  1
  O  O121  1  0.26244373  0.53311780  0.92774104  1
  O  O122  1  0.69369499  0.02641908  0.40164611  1
  O  O123  1  0.75556632  0.01295590  0.86530508  1
  O  O124  1  0.78678268  0.43027920  0.41690968  1
  O  O125  1  0.77199548  0.50102622  0.87375216  1
  O  O126  1  0.19530623  0.51149311  0.15982819  1
  O  O127  1  0.18350135  0.47908773  0.63409563  1
  O  O128  1  0.22057342  0.99579163  0.10457069  1
  O  O129  1  0.33646069  0.91413254  0.61402790  1
  O  O130  1  0.76075472  0.53986569  0.11584811  1
  O  O131  1  0.76649100  0.46637469  0.65433428  1
  O  O132  1  0.74986583  0.90916433  0.01347188  1
  O  O133  1  0.71288479  0.98002477  0.63569490  1
  O  O134  1  -0.01051761  0.35019068  0.24233263  1
  O  O135  1  0.02759676  0.35668708  0.76000621  1
  O  O136  1  -0.03725776  0.93372854  0.25661347  1
  O  O137  1  0.01131353  0.89084505  0.77848421  1
  O  O138  1  0.47759435  0.38335223  0.17340593  1
  O  O139  1  0.53528098  0.49195220  0.75930726  1
  O  O140  1  0.54154024  0.80491191  0.34358146  1
  O  O141  1  0.48194237  0.86858399  0.76123659  1
  O  O142  1  0.41405974  0.12233881  0.28732949  1
  O  O143  1  0.45081472  0.03168002  0.81568646  1
  O  O144  1  0.50734594  0.64110921  0.27779131  1
  O  O145  1  0.48402128  0.67507627  0.71339996  1
  O  O146  1  0.97883153  0.09918844  0.21009612  1
  O  O147  1  0.96932052  0.16662361  0.73139962  1
  O  O148  1  1.01736071  0.61974877  0.22760661  1
  O  O149  1  0.86725781  0.70583737  0.74049367  1
  O  O150  1  0.40360552  0.19266724  0.03187054  1
  O  O151  1  0.37955050  0.21435755  0.56118434  1
  O  O152  1  0.36803671  0.70183609  0.01138693  1
  O  O153  1  0.35750510  0.63003488  0.62794565  1
  O  O154  1  0.90116101  0.26535026  -0.00016575  1
  O  O155  1  0.91888143  0.24607000  0.45886310  1
  O  O156  1  0.82556570  0.73594086  -0.03082243  1
  O  O157  1  0.94442527  0.80885024  0.53950769  1
  O  O158  1  0.11189119  0.21320883  0.42340213  1
  O  O159  1  0.17594701  0.16751121  0.95194662  1
  O  O160  1  0.21160773  0.73534753  0.54155162  1
  O  O161  1  0.11095373  0.81257941  0.97741055  1
  O  O162  1  0.57327746  0.30862058  0.46460869  1
  O  O163  1  0.64141135  0.25294664  1.02187388  1
  O  O164  1  0.62099967  0.67627264  0.50639227  1
  O  O165  1  0.62207608  0.76644980  1.00549199  1
  O  O166  1  0.52533635  0.22044882  0.13916686  1
  O  O167  1  0.48146618  0.29893659  0.59397471  1
  O  O168  1  0.52421048  0.75844708  0.15750236  1
  O  O169  1  0.37359801  0.67612370  0.57807076  1
  O  O170  1  1.00791636  0.22841230  0.13617867  1
  O  O171  1  0.97925234  0.31817004  0.70939416  1
  O  O172  1  1.00251841  0.72644511  0.10585812  1
  O  O173  1  1.01006800  0.67568153  0.59817005  1
  O  O174  1  -0.02402254  0.19835639  0.32110986  1
  O  O175  1  0.01677927  0.23347638  0.86387811  1
  O  O176  1  0.08131515  0.76889610  0.42799752  1
  O  O177  1  0.00000092  0.74880761  0.89893222  1
  O  O178  1  0.45922733  0.20960218  0.41502975  1
  O  O179  1  0.47154146  0.31428165  0.88485818  1
  O  O180  1  0.43253160  0.72748572  0.41922044  1
  O  O181  1  0.50459044  0.76008064  0.86710132  1
  O  O182  1  0.27181394  0.14538634  0.45622097  1
  O  O183  1  0.28714706  0.04561020  0.79532499  1
  O  O184  1  0.24993668  0.60275591  0.46539282  1
  O  O185  1  0.22898541  0.62248638  1.04474298  1
  O  O186  1  0.72269311  0.15416835  0.49868451  1
  O  O187  1  0.75457752  0.13758636  0.98177109  1
  O  O188  1  0.70460096  0.55615798  0.50013888  1
  O  O189  1  0.80477150  0.68995605  1.02592015  1
  O  O190  1  0.23873042  0.40452802  0.03104920  1
  O  O191  1  0.27978802  0.40713164  0.43929951  1
  O  O192  1  0.28569282  0.88403381  -0.02223608  1
  O  O193  1  0.24136712  0.79825254  0.53472104  1
  O  O194  1  0.77350311  0.34096038  -0.01853590  1
  O  O195  1  0.76686187  0.30009845  0.53028744  1
  O  O196  1  0.73608355  0.86381294  -0.04626478  1
  O  O197  1  0.79204090  0.89282440  0.50905536  1
  O  O198  1  0.16481727  0.56968491  0.19285628  1
  O  O199  1  0.12426973  0.51518858  0.78623075  1
  O  O200  1  0.11965717  0.99795304  0.22335289  1
  O  O201  1  0.12069659  0.97935050  0.70959374  1
  O  O202  1  0.68504607  0.52509745  0.23315532  1
  O  O203  1  0.47004165  0.51720136  0.74615024  1
  O  O204  1  0.66341980  0.90474478  0.28650955  1
  O  O205  1  0.57860858  0.99166665  0.71695540  1
  O  O206  1  0.37113728  -0.01917197  0.30146624  1
  O  O207  1  0.34544861  -0.04248940  0.67593926  1
  O  O208  1  0.36230601  0.54438693  0.19770700  1
  O  O209  1  0.28803029  0.52178395  0.74183236  1
  O  O210  1  0.81795708  0.01881664  0.14565592  1
  O  O211  1  0.89294036  0.03422535  0.76999687  1
  O  O212  1  0.85073777  0.48666468  0.24043379  1
  O  O213  1  0.91256926  0.49499011  0.77512233  1
  O  O214  1  0.12513176  0.36052072  0.36585621  1
  O  O215  1  0.15778094  0.31935436  0.91602292  1
  O  O216  1  0.09477748  0.90542929  0.33815341  1
  O  O217  1  0.16030804  0.92301951  0.84972612  1
  O  O218  1  0.53469595  0.30372269  0.30845285  1
  O  O219  1  0.61865896  0.38744533  0.89125846  1
  O  O220  1  0.66033761  0.83030145  0.43298967  1
  O  O221  1  0.57944818  0.91929199  0.87450312  1
  O  O222  1  0.42425704  0.09187525  0.15773369  1
  O  O223  1  0.42943290  0.22815594  0.70864282  1
  O  O224  1  0.37796309  0.61022112  0.17559187  1
  O  O225  1  0.32860841  0.78320756  0.72678694  1
  O  O226  1  0.89681869  0.14570537  0.08865066  1
  O  O227  1  0.82589418  0.12595451  0.65711434  1
  O  O228  1  0.88009627  0.61603494  0.15233094  1
  O  O229  1  0.87730974  0.65598317  0.68820527  1
  O  O230  1  0.20907695  0.25435407  0.08944308  1
  O  O231  1  0.29173551  0.25065293  0.65518438  1
  O  O232  1  0.23292248  0.76586580  0.09289130  1
  O  O233  1  0.27470518  0.78269836  0.67656785  1
  O  O234  1  0.77832969  0.23663240  0.09457656  1
  O  O235  1  0.68407883  0.27104984  0.65858720  1
  O  O236  1  0.78155099  0.80141928  0.14790908  1
  O  O237  1  0.79770893  0.78780191  0.62649607  1
  O  O238  1  0.24747907  0.26208749  0.34249310  1
  O  O239  1  0.27044438  0.25410492  0.83760017  1
  O  O240  1  0.22671620  0.79225138  0.36887291  1
  O  O241  1  0.22711311  0.73619641  0.92704841  1
  O  O242  1  0.71290603  0.28925180  0.26299994  1
  O  O243  1  0.71559135  0.23114095  0.88809142  1
  O  O244  1  0.81222105  0.74072247  0.47385666  1
  O  O245  1  0.78915505  0.72308514  0.90221879  1
  O  O246  1  0.00644697  0.11183332  -0.00386846  1
  O  O247  1  0.02324890  0.10477887  0.50731920  1
  O  O248  1  -0.03662660  0.59596720  0.02292876  1
  O  O249  1  -0.02927368  0.62393698  0.56551111  1
  O  O250  1  0.47619563  0.14139154  -0.12365442  1
  O  O251  1  0.54023366  0.08759712  0.46190289  1
  O  O252  1  0.52147012  0.64421552  0.00894521  1
  O  O253  1  0.51231523  0.58030914  0.44479297  1
  O  O254  1  0.43892925  0.40333122  0.44978797  1
  O  O255  1  0.52109779  0.36975117  1.02726809  1
  O  O256  1  0.51704054  0.81084160  0.51154739  1
  O  O257  1  0.47729225  0.86223787  0.99672601  1
  O  O258  1  0.96566524  0.29357362  0.49774131  1
  O  O259  1  0.98848853  0.39984663  1.00368011  1
  O  O260  1  1.04724630  0.93513574  0.48084355  1
  O  O261  1  0.97968049  0.90216821  0.98055677  1
  O  O262  1  0.52467383  0.46616101  0.29803382  1
  O  O263  1  0.48559204  0.47626189  0.92077195  1
  O  O264  1  0.49314152  0.93237335  0.42245524  1
  O  O265  1  0.42264383  1.09150474  0.85418194  1
  O  O266  1  0.94674881  0.43646164  0.40869288  1
  O  O267  1  0.98021322  0.51412722  0.90903461  1
  O  O268  1  0.96700173  1.02048926  0.39129277  1
  O  O269  1  1.01518569  1.01391960  0.87929722  1
  O  O270  1  -0.01114572  0.01014609  0.09551327  1
  O  O271  1  -0.00771841  -0.02522333  0.61151537  1
  O  O272  1  -0.00366723  0.50603476  0.12203516  1
  O  O273  1  0.02239066  0.47684893  0.63307029  1
  O  O274  1  0.51491258  -0.04355987  0.22865471  1
  O  O275  1  0.49390207  0.01214711  0.59719018  1
  O  O276  1  0.56028236  0.51938927  0.12837078  1
  O  O277  1  0.50596006  0.44710482  0.61095473  1
  O  O278  1  0.24118371  0.36367755  0.21642244  1
  O  O279  1  0.16256656  0.36747631  0.86611122  1
  O  O280  1  0.22349596  0.88859745  0.23675455  1
  O  O281  1  0.21610557  0.89147270  0.80111161  1
  O  O282  1  0.73636033  0.38901496  0.38806767  1
  O  O283  1  0.70485829  0.43095323  0.65356796  1
  O  O284  1  0.76122381  0.79129412  0.32445458  1
  O  O285  1  0.72451614  0.86702719  0.76045435  1
  O  O286  1  0.24742254  0.12233189  0.23111969  1
  O  O287  1  0.24855700  0.09549054  0.68493069  1
  O  O288  1  0.21201563  0.63174448  0.20044537  1
  O  O289  1  0.19094616  0.63549175  0.69500276  1
  O  O290  1  0.77288109  0.13025737  0.31028030  1
  O  O291  1  0.73942025  0.13586105  0.77284266  1
  O  O292  1  0.78125362  0.64492181  0.26220453  1
  O  O293  1  0.73495896  0.63360786  0.79364685  1
  O  O294  1  0.35173631  0.14550739  0.30843551  1
  O  O295  1  0.31528248  0.20065211  0.84802159  1
  O  O296  1  0.32390280  0.65675281  0.33041019  1
  O  O297  1  0.39941684  0.59521750  0.88255003  1
  O  O298  1  0.79136543  0.14911928  0.45773307  1
  O  O299  1  0.85963855  0.13553412  0.86125789  1
  O  O300  1  0.92781104  0.68410737  0.37467409  1
  O  O301  1  0.86609845  0.60153564  0.89396729  1
  O  O302  1  0.11304381  0.37877994  0.12331855  1
  O  O303  1  0.10032917  0.34504118  0.58100912  1
  O  O304  1  0.09623879  0.89015104  0.13421275  1
  O  O305  1  0.10644232  0.83298018  0.66165768  1
  O  O306  1  0.64849454  0.39033999  0.14521261  1
  O  O307  1  0.63221260  0.27663241  0.71795414  1
  O  O308  1  0.62054996  0.90173228  0.12558474  1
  O  O309  1  0.66039276  0.83883886  0.61884036  1
  O  O310  1  0.10727420  0.24099701  0.25667349  1
  O  O311  1  0.12310791  0.22389505  0.74199004  1
  O  O312  1  0.11027840  0.78094413  0.25154149  1
  O  O313  1  0.12616896  0.77062325  0.80791666  1
  O  O314  1  0.67860661  0.24308825  0.22233928  1
  O  O315  1  0.60832086  0.34247886  0.73370518  1
  O  O316  1  0.63260869  0.74195657  0.26608255  1
  O  O317  1  0.48626117  0.73241984  0.67382034  1
  O  O318  1  0.37240085  0.24173748  0.18495167  1
  O  O319  1  0.39054894  0.35521936  0.71397137  1
  O  O320  1  0.41829305  0.77087888  0.26454406  1
  O  O321  1  0.31207374  0.74794856  0.79416167  1
  O  O322  1  0.88399379  0.24427379  0.21277581  1
  O  O323  1  0.84517510  0.24664248  0.75534129  1
  O  O324  1  0.85701987  0.79300652  0.14823521  1
  O  O325  1  0.91762437  0.76037513  0.74833796  1
  O  O326  1  0.37320056  0.52935168  0.38360995  1
  O  O327  1  0.39073699  0.51494666  1.03275689  1
  O  O328  1  0.39557304  1.03295268  0.46385162  1
  O  O329  1  0.40412072  1.00477940  0.98320901  1
  O  O330  1  0.93487248  0.49741218  0.44002453  1
  O  O331  1  0.85865020  0.47038167  1.00844971  1
  O  O332  1  0.88251472  1.02653873  0.52015898  1
  O  O333  1  0.88724594  1.02216788  0.96289044  1
  O  O334  1  0.10753383  -0.01407986  0.00732604  1
  O  O335  1  0.18718634  0.03614025  0.52557475  1
  O  O336  1  0.10777710  0.50984618  -0.00403433  1
  O  O337  1  0.10248044  0.47774473  0.49071810  1
  O  O338  1  0.71736370  -0.02464278  0.01324883  1
  O  O339  1  0.60667646  -0.03184140  0.52795678  1
  O  O340  1  0.66614268  0.47956246  0.02296081  1
  O  O341  1  0.59506733  0.47252270  0.49540851  1
  O  O342  1  0.28514209  0.40631626  0.16651581  1
  O  O343  1  0.35442583  0.37056999  0.59362435  1
  O  O344  1  0.38186647  0.92042012  0.10898146  1
  O  O345  1  0.39824057  0.87414655  0.59756490  1
  O  O346  1  0.88362843  0.35558678  0.10650603  1
  O  O347  1  0.81705740  0.33852138  0.56201340  1
  O  O348  1  0.89654236  0.85120343  0.11333937  1
  O  O349  1  0.84087775  0.92295865  0.66340801  1
  O  O350  1  0.13382850  0.07250546  0.38816880  1
  O  O351  1  0.17808384  0.12315963  0.89816878  1
  O  O352  1  0.15573351  0.65534503  0.34817079  1
  O  O353  1  0.09958683  0.64367111  0.90787617  1
  O  O354  1  0.62771802  0.18111320  0.37559940  1
  O  O355  1  0.63040520  0.09720659  0.87441743  1
  O  O356  1  0.62387446  0.58836908  0.38681142  1
  O  O357  1  0.67875415  0.62322332  0.94513482  1
