# generated using pymatgen
data_V51Zn51O256
_symmetry_space_group_name_H-M   'P 1'
_cell_length_a   17.50294489
_cell_length_b   17.22447252
_cell_length_c   17.46513062
_cell_angle_alpha   89.97549507
_cell_angle_beta   89.61772106
_cell_angle_gamma   89.25484066
_symmetry_Int_Tables_number   1
_chemical_formula_structural   V51Zn51O256
_chemical_formula_sum   'V51 Zn51 O256'
_cell_volume   5264.80721181
_cell_formula_units_Z   1
loop_
 _symmetry_equiv_pos_site_id
 _symmetry_equiv_pos_as_xyz
  1  'x, y, z'
loop_
 _atom_site_type_symbol
 _atom_site_label
 _atom_site_symmetry_multiplicity
 _atom_site_fract_x
 _atom_site_fract_y
 _atom_site_fract_z
 _atom_site_occupancy
  V  V0  1  0.86261788  -0.01187354  0.39617417  1
  V  V1  1  0.41505574  0.12205224  0.22771800  1
  V  V2  1  -0.01526451  0.87899226  0.41573412  1
  V  V3  1  0.00071472  0.11892517  0.14736308  1
  V  V4  1  0.62406582  0.61500490  0.51113135  1
  V  V5  1  0.47621121  0.61120484  0.62245265  1
  V  V6  1  -0.03447172  0.00519027  0.01702053  1
  V  V7  1  0.60510391  0.39609684  0.79781396  1
  V  V8  1  0.01789966  0.76884656  0.25466974  1
  V  V9  1  0.14474098  -0.00712305  0.16863985  1
  V  V10  1  0.81011149  0.75247571  0.00353132  1
  V  V11  1  0.01979893  0.24831483  0.27245599  1
  V  V12  1  0.76815882  -0.02717294  0.24565176  1
  V  V13  1  0.87649588  0.50808831  0.36820812  1
  V  V14  1  0.87670071  0.63795965  0.23885751  1
  V  V15  1  0.10999037  0.76331052  0.41763068  1
  V  V16  1  0.02079051  0.46373193  -0.01769532  1
  V  V17  1  0.74364854  0.62900798  0.36040132  1
  V  V18  1  0.38348548  0.47496372  0.32367796  1
  V  V19  1  0.30965129  0.10875393  0.70100936  1
  V  V20  1  0.60843686  0.13932369  0.50969664  1
  V  V21  1  0.83197215  0.78811656  0.61925540  1
  V  V22  1  0.61066619  0.74934279  0.86157770  1
  V  V23  1  0.16546272  0.28576590  0.85027010  1
  V  V24  1  0.39502131  0.34044960  0.01696252  1
  V  V25  1  0.38751687  0.83901779  0.01023687  1
  V  V26  1  0.25845987  0.67120926  0.41753569  1
  V  V27  1  0.21423348  0.52555780  0.76236334  1
  V  V28  1  0.40381045  0.70564134  0.13913734  1
  V  V29  1  0.73918673  0.14154571  0.37058348  1
  V  V30  1  -0.01969434  0.33585478  0.83232892  1
  V  V31  1  -0.03308006  0.60455294  0.61644365  1
  V  V32  1  0.59126638  -0.04324379  0.62881555  1
  V  V33  1  0.35941764  -0.01745109  0.91720886  1
  V  V34  1  0.76766446  0.36736505  0.54213037  1
  V  V35  1  0.50605425  -0.03494879  0.47115666  1
  V  V36  1  0.15135049  0.19088007  0.36846941  1
  V  V37  1  0.73440762  0.75419516  0.48614261  1
  V  V38  1  0.14505712  0.11809379  0.03507076  1
  V  V39  1  0.37993229  0.37388212  0.52929003  1
  V  V40  1  0.07125036  0.58853155  0.17453712  1
  V  V41  1  0.00617725  0.49171124  0.48792291  1
  V  V42  1  0.47904910  0.77181229  0.73879023  1
  V  V43  1  0.60903769  0.86956440  0.22385099  1
  V  V44  1  0.89663720  0.26292467  0.11022702  1
  V  V45  1  0.24194288  0.09786281  0.88010880  1
  V  V46  1  0.11200944  0.78386180  0.89521343  1
  V  V47  1  0.88657134  0.12664271  0.28432624  1
  V  V48  1  0.22765444  0.29262874  0.48315952  1
  V  V49  1  0.26432633  0.84057785  0.14821091  1
  V  V50  1  0.22471575  0.64581318  0.88296121  1
  Zn  Zn51  1  0.28278179  0.29362134  0.68070801  1
  Zn  Zn52  1  0.61535349  0.85660046  0.40664303  1
  Zn  Zn53  1  0.83326047  0.80197623  0.31865700  1
  Zn  Zn54  1  0.54930315  0.78486809  0.55991781  1
  Zn  Zn55  1  0.79242858  0.33621647  0.79134281  1
  Zn  Zn56  1  0.94998564  0.63959031  0.04092697  1
  Zn  Zn57  1  0.20679004  0.49618589  0.43457681  1
  Zn  Zn58  1  0.07580411  0.30225115  0.08981738  1
  Zn  Zn59  1  0.02161428  0.78549843  0.58752731  1
  Zn  Zn60  1  0.13012548  0.98031858  0.34886844  1
  Zn  Zn61  1  0.21335971  0.46167384  0.96475051  1
  Zn  Zn62  1  0.96776543  0.94962289  0.22230992  1
  Zn  Zn63  1  0.07648898  0.64322490  0.73815747  1
  Zn  Zn64  1  0.94755488  0.43262931  0.22001370  1
  Zn  Zn65  1  0.57031384  0.31702015  0.52251732  1
  Zn  Zn66  1  0.59144982  0.03798518  0.30960279  1
  Zn  Zn67  1  0.29683834  0.55739375  0.57596563  1
  Zn  Zn68  1  0.74460585  -0.05788741  0.53811397  1
  Zn  Zn69  1  0.45056109  0.63913456  0.41989635  1
  Zn  Zn70  1  0.03275112  0.46587311  0.70089476  1
  Zn  Zn71  1  1.01418507  0.20768624  0.96165545  1
  Zn  Zn72  1  0.34672532  0.50927021  0.12495373  1
  Zn  Zn73  1  0.91960680  0.68884446  0.44622535  1
  Zn  Zn74  1  0.45461878  0.46623859  0.90687735  1
  Zn  Zn75  1  0.42748457  0.66988414  0.90882634  1
  Zn  Zn76  1  0.28299631  0.85160139  0.34655318  1
  Zn  Zn77  1  0.46592600  0.98313522  0.74748058  1
  Zn  Zn78  1  0.05206089  0.30196714  0.46365136  1
  Zn  Zn79  1  0.20812338  0.15888809  0.18972918  1
  Zn  Zn80  1  0.31628645  0.78772934  0.83863584  1
  Zn  Zn81  1  0.50602575  0.49178268  0.47838300  1
  Zn  Zn82  1  0.35036094  0.28041076  0.35500508  1
  Zn  Zn83  1  0.75828554  0.88411003  0.90154561  1
  Zn  Zn84  1  0.55171404  0.59606817  0.81519048  1
  Zn  Zn85  1  0.78385829  0.13231269  0.13475431  1
  Zn  Zn86  1  0.57704551  0.23345249  0.68541570  1
  Zn  Zn87  1  0.56193744  0.78034031  0.06092622  1
  Zn  Zn88  1  0.19691044  0.93155157  0.99018182  1
  Zn  Zn89  1  0.95693382  0.88136219  0.87182071  1
  Zn  Zn90  1  0.23565994  0.61673234  0.08167054  1
  Zn  Zn91  1  0.81362577  -0.06149830  0.07550269  1
  Zn  Zn92  1  0.40879650  0.91216885  0.20345217  1
  Zn  Zn93  1  0.71877245  0.72353353  0.17182706  1
  Zn  Zn94  1  0.67675294  0.77885659  0.68875067  1
  Zn  Zn95  1  0.58540903  0.31063984  -0.03378917  1
  Zn  Zn96  1  0.19217125  0.69351772  0.24694709  1
  Zn  Zn97  1  0.84543474  0.31017611  0.36504190  1
  Zn  Zn98  1  0.06133963  0.58969091  0.34696466  1
  Zn  Zn99  1  0.80726347  0.56217797  0.54333830  1
  Zn  Zn100  1  0.47801338  0.41007787  0.65585498  1
  Zn  Zn101  1  0.80621036  0.76276715  0.81768505  1
  O  O102  1  0.10666701  0.11358822  0.14466690  1
  O  O103  1  0.07659607  0.09576842  0.68660368  1
  O  O104  1  0.17228537  0.60342679  0.17711227  1
  O  O105  1  0.03467517  0.68224769  0.63877889  1
  O  O106  1  0.65779469  0.14358613  0.12076638  1
  O  O107  1  0.60532727  0.16123185  0.60630469  1
  O  O108  1  0.75098792  0.51644093  0.11268871  1
  O  O109  1  0.63532274  0.60556770  0.60386481  1
  O  O110  1  0.39837539  0.37507124  0.32929971  1
  O  O111  1  0.41481934  0.35875072  0.91304342  1
  O  O112  1  0.43965031  0.79315873  0.34194123  1
  O  O113  1  0.35177816  0.86776106  0.91117235  1
  O  O114  1  0.88071156  0.41171849  0.32927491  1
  O  O115  1  0.88768921  0.30215685  0.82776946  1
  O  O116  1  0.87165109  0.88311935  0.38636097  1
  O  O117  1  0.85735535  0.85783538  0.84972270  1
  O  O118  1  0.23799862  -0.04840854  0.37794074  1
  O  O119  1  0.25054395  -0.01435559  0.90530037  1
  O  O120  1  0.29701739  0.48748308  0.36401015  1
  O  O121  1  0.23474749  0.53895278  0.87165028  1
  O  O122  1  0.76001440  0.00350198  0.34391594  1
  O  O123  1  0.74065903  -0.00929938  0.86294452  1
  O  O124  1  0.77170493  0.52777109  0.35455379  1
  O  O125  1  0.73429780  0.52851973  0.95885899  1
  O  O126  1  0.25631593  0.50430119  0.06020815  1
  O  O127  1  0.26049867  0.52483960  0.67569270  1
  O  O128  1  0.21931169  1.03704086  0.20757104  1
  O  O129  1  0.18645167  0.93279735  0.73636617  1
  O  O130  1  0.79323177  0.46145734  0.09712209  1
  O  O131  1  0.77040740  0.46159615  0.57228745  1
  O  O132  1  0.77512346  1.01575414  0.14960939  1
  O  O133  1  0.74139271  1.03669596  0.74212449  1
  O  O134  1  0.02046691  0.34381908  0.26726219  1
  O  O135  1  0.00062118  0.36874765  0.74391153  1
  O  O136  1  -0.01484705  0.86259743  0.28712423  1
  O  O137  1  0.08956455  0.85727156  0.66588423  1
  O  O138  1  0.55473611  0.37317036  0.18383250  1
  O  O139  1  0.50574046  0.41163991  0.76670777  1
  O  O140  1  0.51479786  0.89336170  0.21327101  1
  O  O141  1  0.47997452  0.86918533  0.73141170  1
  O  O142  1  0.51263469  0.10575258  0.25951772  1
  O  O143  1  0.50732527  0.15981758  0.75306893  1
  O  O144  1  0.62415582  0.51616704  0.20905642  1
  O  O145  1  0.49739009  0.60187733  0.71921835  1
  O  O146  1  0.99242994  0.11924695  0.25246222  1
  O  O147  1  0.86321684  0.07848165  0.63840151  1
  O  O148  1  1.02654507  0.64500812  0.25293707  1
  O  O149  1  0.99499611  0.57053509  0.71970181  1
  O  O150  1  0.35928381  0.25027313  0.01338381  1
  O  O151  1  0.33865010  0.29789894  0.47005345  1
  O  O152  1  0.38813874  0.74154227  -0.01017392  1
  O  O153  1  0.39051235  0.82757486  0.39060408  1
  O  O154  1  0.93342413  0.26382980  0.01816042  1
  O  O155  1  0.81047870  0.30646583  0.62682904  1
  O  O156  1  0.90595945  0.73903984  0.01912432  1
  O  O157  1  0.84313961  0.75092362  0.51210638  1
  O  O158  1  0.14127540  0.23220558  0.47449199  1
  O  O159  1  0.10903196  0.21781322  1.02231336  1
  O  O160  1  0.10617054  0.77547769  0.51375840  1
  O  O161  1  0.06001016  0.70131246  0.94114516  1
  O  O162  1  0.57260689  0.21986539  0.46562824  1
  O  O163  1  0.62504784  0.22865691  0.91905587  1
  O  O164  1  0.63019449  0.72663952  0.48355004  1
  O  O165  1  0.59942244  0.76660605  0.95950139  1
  O  O166  1  0.62807936  0.20449734  0.09483893  1
  O  O167  1  0.53787653  0.31851091  0.62779593  1
  O  O168  1  0.49982275  0.70443263  0.11401592  1
  O  O169  1  0.49400882  0.73001916  0.63873007  1
  O  O170  1  1.01094730  0.23706734  0.15950922  1
  O  O171  1  0.96095927  0.21407176  0.66220817  1
  O  O172  1  1.03243907  0.77912978  0.16392979  1
  O  O173  1  0.92565304  0.79041925  0.64348907  1
  O  O174  1  0.04638934  0.23144001  0.37458083  1
  O  O175  1  0.05386066  0.26258380  0.86255905  1
  O  O176  1  -0.00149170  0.76535899  0.40120357  1
  O  O177  1  0.04734695  0.82713558  0.83450042  1
  O  O178  1  0.61854138  0.26465468  0.25795183  1
  O  O179  1  0.47116445  0.18071474  0.81112747  1
  O  O180  1  0.49018839  0.74388957  0.37221312  1
  O  O181  1  0.49683774  0.73919498  0.84498577  1
  O  O182  1  0.23508156  0.29661694  0.58010339  1
  O  O183  1  0.23214797  0.13701805  1.06652430  1
  O  O184  1  0.23800789  0.59493362  0.48701386  1
  O  O185  1  0.21214855  0.65465075  0.97839792  1
  O  O186  1  0.70602590  0.12675237  0.46608869  1
  O  O187  1  0.72961687  0.13634174  0.97253530  1
  O  O188  1  0.73560213  0.62633127  0.47464266  1
  O  O189  1  0.80080743  0.53211220  0.93668031  1
  O  O190  1  0.30264286  0.37743054  -0.00443885  1
  O  O191  1  0.19461388  0.37954774  0.45280409  1
  O  O192  1  0.27791895  0.87316264  0.05097565  1
  O  O193  1  0.23636543  0.94939054  0.46993878  1
  O  O194  1  0.79486682  0.36837667  -0.03204282  1
  O  O195  1  0.82981705  0.33991657  0.47141105  1
  O  O196  1  0.78162482  0.85676461  0.00847062  1
  O  O197  1  0.71343172  0.85404083  0.46852476  1
  O  O198  1  0.15048746  0.51517894  0.32834701  1
  O  O199  1  0.13579488  0.47209042  0.75225761  1
  O  O200  1  0.08098565  0.98361588  0.24785101  1
  O  O201  1  0.12106701  0.95161693  0.75393722  1
  O  O202  1  0.52723072  0.39182763  0.24579169  1
  O  O203  1  0.61415963  0.49736440  0.82111477  1
  O  O204  1  0.65765813  0.96367224  0.23575345  1
  O  O205  1  0.57431455  0.99748389  0.71748249  1
  O  O206  1  0.39926741  0.03165098  0.18029576  1
  O  O207  1  0.38472840  0.04306499  0.70384722  1
  O  O208  1  0.38279157  0.49793852  0.22606859  1
  O  O209  1  0.37046927  0.48246101  0.81283147  1
  O  O210  1  0.87967052  0.01155482  0.26843652  1
  O  O211  1  0.87233013  0.07020578  0.80288407  1
  O  O212  1  0.89699290  0.53601673  0.25453879  1
  O  O213  1  0.79101756  0.51870890  0.74783078  1
  O  O214  1  0.13172727  0.43564643  0.30578753  1
  O  O215  1  0.17969871  0.36380973  0.90629341  1
  O  O216  1  0.08647108  0.88610342  0.40080087  1
  O  O217  1  0.12833631  0.84636943  0.96768770  1
  O  O218  1  0.59654374  0.29543907  0.31709902  1
  O  O219  1  0.56274698  0.40125160  0.90138509  1
  O  O220  1  0.62720569  0.81765982  0.30386190  1
  O  O221  1  0.69155214  0.81269797  0.84385143  1
  O  O222  1  0.46045452  0.15909530  0.14703567  1
  O  O223  1  0.26142176  0.10066210  0.62087928  1
  O  O224  1  0.35192943  0.62464032  0.10047208  1
  O  O225  1  0.38091478  0.62137936  0.61000599  1
  O  O226  1  0.90048852  0.15057522  0.14308224  1
  O  O227  1  0.82238480  0.13567524  0.65025476  1
  O  O228  1  0.89012812  0.63757986  0.14459890  1
  O  O229  1  0.86922179  0.61940232  0.62079123  1
  O  O230  1  0.22987597  0.28327903  0.16389970  1
  O  O231  1  0.10851769  0.37782356  0.62270352  1
  O  O232  1  0.24050495  0.74537110  0.15678514  1
  O  O233  1  0.29652050  0.84506201  0.57383735  1
  O  O234  1  0.80013992  0.24192240  0.10208250  1
  O  O235  1  0.67700710  0.34196455  0.52028047  1
  O  O236  1  0.75738733  0.70321474  0.07183418  1
  O  O237  1  0.72878795  0.74457884  0.58763262  1
  O  O238  1  0.24567070  0.23374849  0.37699699  1
  O  O239  1  0.22045441  0.20757622  0.88411759  1
  O  O240  1  0.22180787  0.77501585  0.40950676  1
  O  O241  1  0.20536615  0.76356935  0.85196854  1
  O  O242  1  0.75681978  0.23776053  0.36379676  1
  O  O243  1  0.77735509  0.30024893  0.95817934  1
  O  O244  1  0.76457075  0.73754341  0.38119465  1
  O  O245  1  0.79401370  0.71072354  0.91575864  1
  O  O246  1  0.00702980  0.10606112  0.02397021  1
  O  O247  1  -0.03098885  0.19525280  0.59474491  1
  O  O248  1  0.04859181  0.62733218  0.08967541  1
  O  O249  1  -0.02116857  0.61457904  0.51214691  1
  O  O250  1  0.57545526  0.08084811  -0.08923163  1
  O  O251  1  0.54433049  0.06962520  0.47868177  1
  O  O252  1  0.60628190  0.60162579  0.00321506  1
  O  O253  1  0.51479519  0.63746336  0.51601685  1
  O  O254  1  0.47510584  0.38187630  0.49468136  1
  O  O255  1  0.49143949  0.30662312  1.01967748  1
  O  O256  1  0.53155723  0.86033518  0.48121437  1
  O  O257  1  0.48122308  0.85776134  1.02305546  1
  O  O258  1  0.99663106  0.39108237  0.48069214  1
  O  O259  1  1.03361976  0.39580624  1.05343516  1
  O  O260  1  0.97747647  0.87082555  0.51091296  1
  O  O261  1  0.96355192  0.89885724  1.05670173  1
  O  O262  1  0.45096390  0.53049341  0.38555332  1
  O  O263  1  0.47784837  0.57008799  0.89734333  1
  O  O264  1  0.56282636  0.96036780  0.37945135  1
  O  O265  1  0.43512703  0.98984362  0.85561105  1
  O  O266  1  0.98712802  0.51859481  0.38393352  1
  O  O267  1  0.98396937  0.41358839  0.89543773  1
  O  O268  1  0.96533135  0.98804502  0.40384834  1
  O  O269  1  0.99355763  0.97004427  0.92945536  1
  O  O270  1  -0.01245916  0.01743072  0.13220863  1
  O  O271  1  0.01898245  0.05600880  0.68865398  1
  O  O272  1  0.03909368  0.49593676  0.18609744  1
  O  O273  1  -0.01233177  0.49900844  0.59572490  1
  O  O274  1  0.55645358  0.01346685  0.04839174  1
  O  O275  1  0.50501242  -0.03178994  0.58118751  1
  O  O276  1  0.55968127  0.54467885  0.21024630  1
  O  O277  1  0.48802006  0.50758494  0.59730743  1
  O  O278  1  0.18287039  0.40244815  0.26687895  1
  O  O279  1  0.31528933  0.44019041  0.79106654  1
  O  O280  1  0.30930837  0.87607475  0.23774878  1
  O  O281  1  0.31396377  0.90125988  0.61245629  1
  O  O282  1  0.71624369  0.40322984  0.24587551  1
  O  O283  1  0.69451889  0.36765990  0.83708593  1
  O  O284  1  0.79017060  0.87668892  0.23900502  1
  O  O285  1  0.73348597  0.97800201  0.78378092  1
  O  O286  1  0.32125676  0.15315833  0.20545052  1
  O  O287  1  0.23795147  0.08755698  0.78164896  1
  O  O288  1  0.25496590  0.64269938  0.32497612  1
  O  O289  1  0.18053456  0.62595036  0.76969680  1
  O  O290  1  0.79431287  0.14090665  0.25162676  1
  O  O291  1  0.69031403  0.18046858  0.74238127  1
  O  O292  1  0.77189023  0.65917958  0.24761862  1
  O  O293  1  0.63814255  0.65386624  0.85591931  1
  O  O294  1  0.39752833  0.05778464  0.31046175  1
  O  O295  1  0.33489866  0.09775329  0.90903452  1
  O  O296  1  0.35156991  0.68559440  0.43781292  1
  O  O297  1  0.32005743  0.66706482  0.86681712  1
  O  O298  1  0.85743856  0.10913182  0.38084548  1
  O  O299  1  0.91115459  0.12714266  0.81814510  1
  O  O300  1  0.87241661  0.62638126  0.36392689  1
  O  O301  1  0.83060940  0.46228835  0.77028364  1
  O  O302  1  0.18673649  0.33007894  0.12701153  1
  O  O303  1  0.07474128  0.31689145  0.60730590  1
  O  O304  1  0.17630649  0.89246119  0.16294049  1
  O  O305  1  0.10721007  0.97803404  0.57134405  1
  O  O306  1  0.64491185  0.36493067  0.04767487  1
  O  O307  1  0.64064837  0.41876535  0.71002612  1
  O  O308  1  0.62239434  0.98922221  0.05675493  1
  O  O309  1  0.61799711  0.85711507  0.62723846  1
  O  O310  1  0.13259663  0.21148872  0.26728694  1
  O  O311  1  0.20120791  0.30610028  0.76156304  1
  O  O312  1  0.11524227  0.76570626  0.29432387  1
  O  O313  1  0.16022326  0.85161346  0.65655752  1
  O  O314  1  0.70950252  0.36072902  0.19029038  1
  O  O315  1  0.58273164  0.29631434  0.78256844  1
  O  O316  1  0.64019369  0.80435437  0.14854817  1
  O  O317  1  0.59099597  0.75853321  0.75210735  1
  O  O318  1  0.40786916  0.20834773  0.28565382  1
  O  O319  1  0.33976816  0.20387747  0.71084505  1
  O  O320  1  0.39806950  0.69862908  0.23232628  1
  O  O321  1  0.38089435  0.75945651  0.75303936  1
  O  O322  1  0.91459812  0.23353344  0.29918938  1
  O  O323  1  0.73388368  0.19821593  0.79584481  1
  O  O324  1  0.90942741  0.73632577  0.26449632  1
  O  O325  1  0.78723854  0.76042420  0.71155160  1
  O  O326  1  0.33288181  0.45992081  0.51928824  1
  O  O327  1  0.42502673  0.45119484  1.02142393  1
  O  O328  1  0.41560958  0.96938740  0.45190319  1
  O  O329  1  0.38697381  0.97423536  1.00801828  1
  O  O330  1  0.87573219  0.50364902  0.46782331  1
  O  O331  1  0.95289481  0.53413993  1.00340626  1
  O  O332  1  0.82767135  0.99736521  0.48527079  1
  O  O333  1  0.86973843  1.01946144  1.01278142  1
  O  O334  1  0.14199788  0.00349880  0.06128224  1
  O  O335  1  0.09849515  0.03851444  0.53544621  1
  O  O336  1  0.10685526  0.50347202  -0.03493813  1
  O  O337  1  0.10068140  0.50540712  0.48666087  1
  O  O338  1  0.61899694  0.06966876  -0.14295683  1
  O  O339  1  0.66170619  0.00521855  0.57599876  1
  O  O340  1  0.63018963  0.43681689  0.05703577  1
  O  O341  1  0.61190309  0.52491676  0.47037094  1
  O  O342  1  0.38980527  0.35553250  0.11456838  1
  O  O343  1  0.37733771  0.35656689  0.62864424  1
  O  O344  1  0.37808368  0.81471501  0.12356853  1
  O  O345  1  0.25882995  1.00923649  0.50072113  1
  O  O346  1  0.89988190  0.35123136  0.15561308  1
  O  O347  1  0.75875964  0.31803852  0.68394069  1
  O  O348  1  0.91416230  0.89142833  0.11805935  1
  O  O349  1  0.80691129  0.88325464  0.61027661  1
  O  O350  1  0.15163606  0.09355794  0.37427309  1
  O  O351  1  0.15219454  0.09067425  0.93719164  1
  O  O352  1  0.11909023  0.66326357  0.40887250  1
  O  O353  1  0.09769760  0.66762868  0.87550145  1
  O  O354  1  0.65736083  0.12442757  0.32138516  1
  O  O355  1  0.78117060  0.13501315  0.92463207  1
  O  O356  1  0.65240736  0.62990215  0.34203573  1
  O  O357  1  0.60987480  0.58384925  1.07080328  1
