# generated using pymatgen
data_V51Zn51O256
_symmetry_space_group_name_H-M   'P 1'
_cell_length_a   17.81308020
_cell_length_b   17.29765817
_cell_length_c   17.80065347
_cell_angle_alpha   87.80578126
_cell_angle_beta   88.91344630
_cell_angle_gamma   90.00228645
_symmetry_Int_Tables_number   1
_chemical_formula_structural   V51Zn51O256
_chemical_formula_sum   'V51 Zn51 O256'
_cell_volume   5479.81007131
_cell_formula_units_Z   1
loop_
 _symmetry_equiv_pos_site_id
 _symmetry_equiv_pos_as_xyz
  1  'x, y, z'
loop_
 _atom_site_type_symbol
 _atom_site_label
 _atom_site_symmetry_multiplicity
 _atom_site_fract_x
 _atom_site_fract_y
 _atom_site_fract_z
 _atom_site_occupancy
  V  V0  1  0.45728760  0.29928823  0.71842967  1
  V  V1  1  0.87536575  0.84526734  0.48109275  1
  V  V2  1  0.74840824  0.61807835  0.35590733  1
  V  V3  1  0.50685251  0.01194904  0.46412782  1
  V  V4  1  0.75552772  0.90042992  0.60221573  1
  V  V5  1  0.72992915  0.45658206  0.75218932  1
  V  V6  1  0.51044148  0.02355309  0.01191783  1
  V  V7  1  0.75965929  0.72435707  0.49383241  1
  V  V8  1  0.71982290  0.78605577  0.03206081  1
  V  V9  1  0.07510478  0.73513164  0.36014759  1
  V  V10  1  0.00294421  0.38406017  0.89076667  1
  V  V11  1  0.17803953  0.62384930  0.47034102  1
  V  V12  1  -0.04931431  0.59248072  0.60089658  1
  V  V13  1  0.33272408  -0.03024494  0.84484567  1
  V  V14  1  0.23497043  0.01235313  0.21202888  1
  V  V15  1  0.28451148  0.14867473  0.87668759  1
  V  V16  1  0.22441392  -0.00853499  0.70099908  1
  V  V17  1  0.23745941  0.63903799  0.84870593  1
  V  V18  1  0.61521340  0.49456583  0.12343798  1
  V  V19  1  0.36583746  0.51119404  0.87511170  1
  V  V20  1  0.07361675  0.71643822  0.79082038  1
  V  V21  1  0.39325195  0.25804916  0.13999461  1
  V  V22  1  0.88330562  -0.01093145  0.35534085  1
  V  V23  1  0.52079204  0.77963219  0.77881546  1
  V  V24  1  0.18018933  0.86332455  0.27441244  1
  V  V25  1  0.60642566  0.37621980  0.25645852  1
  V  V26  1  0.70691228  0.20738694  0.58227468  1
  V  V27  1  0.18916878  0.25522749  0.51849929  1
  V  V28  1  0.62055355  0.74268249  0.37190030  1
  V  V29  1  -0.00536256  -0.04275145  0.50626571  1
  V  V30  1  0.75633363  0.49076143  0.23963827  1
  V  V31  1  0.73970979  -0.01995563  0.25204272  1
  V  V32  1  0.08500537  0.38385166  0.23042189  1
  V  V33  1  0.26081043  0.24790572  0.02067488  1
  V  V34  1  0.09346995  0.23513046  0.36697248  1
  V  V35  1  0.65521988  0.06847723  0.12466206  1
  V  V36  1  0.70339359  0.51233719  0.92821346  1
  V  V37  1  0.25377247  0.13221742  0.34938424  1
  V  V38  1  0.00536482  0.42949883  0.41422209  1
  V  V39  1  0.23688612  0.48394600  0.73688752  1
  V  V40  1  0.62662477  0.61061057  0.51055872  1
  V  V41  1  0.26531280  0.48276236  0.25999977  1
  V  V42  1  0.76236563  0.14266990  0.34572562  1
  V  V43  1  0.38924681  0.70146550  0.66291933  1
  V  V44  1  0.48085316  0.38486038  0.38278143  1
  V  V45  1  0.58324956  0.38360996  0.77965270  1
  V  V46  1  0.28361153  0.41420489  0.09777335  1
  V  V47  1  0.84993286  0.33573819  0.57149526  1
  V  V48  1  0.13160277  0.23985700  0.89234121  1
  V  V49  1  0.87922420  0.64250248  0.23195137  1
  V  V50  1  0.12214709  0.35972142  0.75694218  1
  Zn  Zn51  1  0.23337469  0.28767382  0.22648494  1
  Zn  Zn52  1  0.07448848  0.30644570  0.05235594  1
  Zn  Zn53  1  0.64669483  0.46987525  0.40671872  1
  Zn  Zn54  1  0.46750755  0.27114679  0.97881436  1
  Zn  Zn55  1  0.77042826  0.51888702  0.55794962  1
  Zn  Zn56  1  0.80262211  0.36675726  0.87944937  1
  Zn  Zn57  1  0.10860116  0.06389176  0.83162408  1
  Zn  Zn58  1  0.89501801  0.27542726  0.39483837  1
  Zn  Zn59  1  0.18192055  0.89536911  0.08325417  1
  Zn  Zn60  1  0.80895379  0.03047808  0.05832169  1
  Zn  Zn61  1  0.78624913  0.58571352  0.07647437  1
  Zn  Zn62  1  0.58922305  0.17009925  0.73165890  1
  Zn  Zn63  1  0.65739025  0.67315912  0.19681955  1
  Zn  Zn64  1  0.05963533  0.56930415  0.27915860  1
  Zn  Zn65  1  0.91112141  0.34503918  0.75371672  1
  Zn  Zn66  1  0.17903994  0.42802652  0.42974054  1
  Zn  Zn67  1  0.80427453  0.80739043  0.30626434  1
  Zn  Zn68  1  0.51779603  0.97690348  0.77810509  1
  Zn  Zn69  1  0.53644010  0.27826762  0.54739026  1
  Zn  Zn70  1  0.54629683  0.82868321  -0.04053500  1
  Zn  Zn71  1  0.73818023  0.29305743  0.27587211  1
  Zn  Zn72  1  0.22306211  0.80977487  0.91368268  1
  Zn  Zn73  1  0.46790996  0.10678047  0.85955103  1
  Zn  Zn74  1  0.69188727  0.91758043  0.43480498  1
  Zn  Zn75  1  0.56224113  0.56786783  0.82897633  1
  Zn  Zn76  1  0.01988096  0.39607978  0.61220220  1
  Zn  Zn77  1  0.42219508  1.08031027  0.21854111  1
  Zn  Zn78  1  0.05960547  0.54407061  0.80051775  1
  Zn  Zn79  1  0.34070035  0.97444103  0.35265024  1
  Zn  Zn80  1  0.80879959  0.05130451  0.50365635  1
  Zn  Zn81  1  0.61797749  0.37129908  0.97650345  1
  Zn  Zn82  1  0.47937869  0.70160495  0.49324937  1
  Zn  Zn83  1  0.22959653  0.67184464  0.31186582  1
  Zn  Zn84  1  0.22105995  0.79672445  0.72529355  1
  Zn  Zn85  1  0.45005097  0.18096636  0.35098986  1
  Zn  Zn86  1  0.59206235  0.26887743  0.12678176  1
  Zn  Zn87  1  0.34390384  0.08668588  0.06860243  1
  Zn  Zn88  1  0.08577473  0.02221538  0.35208066  1
  Zn  Zn89  1  0.18723592  0.43053261  0.92772229  1
  Zn  Zn90  1  0.91470324  0.45048556  0.29004778  1
  Zn  Zn91  1  0.19875285  0.65272994  0.66247797  1
  Zn  Zn92  1  0.31536066  0.33478025  0.83187022  1
  Zn  Zn93  1  0.66207459  0.73293715  0.63775513  1
  Zn  Zn94  1  0.20016095  0.18205802  0.71442931  1
  Zn  Zn95  1  0.66127795  0.97027237  0.97924651  1
  Zn  Zn96  1  0.26743464  0.56851513  -0.00250884  1
  Zn  Zn97  1  0.59367493  0.08617906  0.30251077  1
  Zn  Zn98  1  0.43407404  0.50555557  0.72388891  1
  Zn  Zn99  1  0.96119291  0.02685991  0.94010206  1
  Zn  Zn100  1  -0.08059549  0.64797232  0.42230792  1
  Zn  Zn101  1  0.44095041  0.43395138  0.19035934  1
  O  O102  1  0.07332302  0.17332886  0.14667313  1
  O  O103  1  0.02963643  0.14845823  0.70878768  1
  O  O104  1  -0.03148055  0.71521765  0.05159677  1
  O  O105  1  0.19775284  0.62405325  0.56332761  1
  O  O106  1  0.64378886  0.16372547  0.13227287  1
  O  O107  1  0.53600479  0.08506315  0.77695016  1
  O  O108  1  0.62787167  0.59421944  0.13023387  1
  O  O109  1  0.63590024  0.63202285  0.60465126  1
  O  O110  1  0.39506340  0.41493114  0.38819178  1
  O  O111  1  0.36349556  0.41283647  0.89388744  1
  O  O112  1  0.41906378  0.98963465  0.28096772  1
  O  O113  1  0.30640948  0.87950258  0.87455238  1
  O  O114  1  0.92042731  0.38609591  0.38399929  1
  O  O115  1  0.90887274  0.35233884  0.87622728  1
  O  O116  1  0.86480551  0.88372309  0.37626560  1
  O  O117  1  0.87372629  0.85623470  0.89328629  1
  O  O118  1  0.25965352  0.04360786  0.39398241  1
  O  O119  1  0.27423593  0.03635336  0.88828680  1
  O  O120  1  0.24628735  0.43760448  0.34407301  1
  O  O121  1  0.24811380  0.51697729  0.88400116  1
  O  O122  1  0.72137993  -0.01191685  0.34807391  1
  O  O123  1  0.78623050  0.07579020  0.84406315  1
  O  O124  1  0.73716693  0.51219515  0.35138682  1
  O  O125  1  0.71688110  0.40386042  0.93107977  1
  O  O126  1  0.28376756  0.51220611  0.08975867  1
  O  O127  1  0.24046458  0.48031722  0.64622669  1
  O  O128  1  0.19020231  0.99201284  0.13000398  1
  O  O129  1  0.24382136  1.00689566  0.61178755  1
  O  O130  1  0.74604693  0.50135179  0.14110157  1
  O  O131  1  0.73408767  0.49700507  0.66560614  1
  O  O132  1  0.75480995  1.02660520  0.14943247  1
  O  O133  1  0.73542176  0.96992240  0.52667074  1
  O  O134  1  -0.00943832  0.38446171  0.24269433  1
  O  O135  1  0.01980636  0.35372734  0.78564223  1
  O  O136  1  0.09293475  0.83259488  0.32927638  1
  O  O137  1  -0.13885384  0.79201411  0.87120933  1
  O  O138  1  0.50616828  0.38912620  0.27624534  1
  O  O139  1  0.48779138  0.40130860  0.72587939  1
  O  O140  1  0.49756620  0.84441357  0.11185160  1
  O  O141  1  0.53881622  0.87543820  0.75231486  1
  O  O142  1  0.50242057  0.13434425  0.27019628  1
  O  O143  1  0.45952009  0.23175822  0.81772334  1
  O  O144  1  0.45771420  0.69535907  0.25961956  1
  O  O145  1  0.55496758  0.67256140  0.76267677  1
  O  O146  1  1.04964685  0.11154050  0.18048010  1
  O  O147  1  1.01341801  0.12231541  0.77904155  1
  O  O148  1  0.97304195  0.62249920  0.23268858  1
  O  O149  1  1.00978328  0.56806358  0.69154117  1
  O  O150  1  0.36925024  0.26373652  0.03239411  1
  O  O151  1  0.34942293  0.13911269  0.57084859  1
  O  O152  1  0.31527479  0.71582742  0.06803473  1
  O  O153  1  0.42279114  0.73216375  0.57503373  1
  O  O154  1  0.88685613  0.21312398  0.02054431  1
  O  O155  1  0.88930617  0.27951899  0.50476446  1
  O  O156  1  0.81561942  0.81728551  0.09914442  1
  O  O157  1  0.87131578  0.74449506  0.47241831  1
  O  O158  1  0.10329565  0.23992579  0.47189756  1
  O  O159  1  0.15680098  0.25715651  0.99405090  1
  O  O160  1  0.11147769  0.70464103  0.44900293  1
  O  O161  1  0.06940887  0.78217411  0.87925908  1
  O  O162  1  0.63518216  0.24772525  0.52984515  1
  O  O163  1  0.80485112  0.32461568  1.11929959  1
  O  O164  1  0.65549847  0.72058624  0.48874372  1
  O  O165  1  0.64447652  0.76901643  0.97529200  1
  O  O166  1  0.48199093  0.28408352  0.15856367  1
  O  O167  1  0.46594402  0.26648695  0.62849857  1
  O  O168  1  0.50165166  0.78864459  0.05654903  1
  O  O169  1  0.36038673  0.89354339  0.59417799  1
  O  O170  1  1.02664697  0.20490262  0.09248274  1
  O  O171  1  0.99166085  0.20571202  0.68243131  1
  O  O172  1  0.94569086  0.72531096  -0.01257231  1
  O  O173  1  0.94239814  0.70595150  0.62561409  1
  O  O174  1  -0.00075780  0.23783148  0.35964462  1
  O  O175  1  0.04243123  0.22019723  0.90291652  1
  O  O176  1  -0.01762099  0.72304898  0.36354232  1
  O  O177  1  -0.01126726  0.68495983  0.77447395  1
  O  O178  1  0.50024758  0.27224551  0.38771582  1
  O  O179  1  0.43254791  0.27959273  0.87176332  1
  O  O180  1  0.52598486  0.73358188  0.40358138  1
  O  O181  1  0.50804607  0.77919266  0.87343162  1
  O  O182  1  0.24936671  0.20666962  0.44543368  1
  O  O183  1  0.26773647  0.14779455  1.01674881  1
  O  O184  1  0.25665399  0.64779866  0.41737106  1
  O  O185  1  0.22449264  0.65452469  0.94597782  1
  O  O186  1  0.75868067  0.14459065  0.53017290  1
  O  O187  1  0.82213188  0.22610200  1.00154630  1
  O  O188  1  0.77657385  0.62253813  0.47002015  1
  O  O189  1  0.75929082  0.69244042  1.03141870  1
  O  O190  1  0.24857490  0.37934145  0.01346346  1
  O  O191  1  0.20657447  0.35135012  0.50828586  1
  O  O192  1  0.17784819  0.83823590  0.00137933  1
  O  O193  1  0.23326161  0.82698244  0.54283210  1
  O  O194  1  0.87212386  0.34840230  0.12248754  1
  O  O195  1  0.77007451  0.28395163  0.61075450  1
  O  O196  1  0.69520411  0.88325658  0.04433287  1
  O  O197  1  0.76332710  0.83253873  0.47447177  1
  O  O198  1  0.11453444  0.47807249  0.24578576  1
  O  O199  1  0.12750858  0.46782715  0.76034666  1
  O  O200  1  0.14560036  0.97002119  0.27929158  1
  O  O201  1  0.16712977  1.07031830  0.73629777  1
  O  O202  1  0.64364641  0.47872075  0.23770487  1
  O  O203  1  0.60850601  0.48406615  0.76513586  1
  O  O204  1  0.64277213  1.02364021  0.22461928  1
  O  O205  1  0.68995622  0.88341323  0.84634410  1
  O  O206  1  0.32324061  0.03612722  0.17061319  1
  O  O207  1  0.31626455  -0.01497360  0.74735875  1
  O  O208  1  0.36019487  0.48201636  0.24473446  1
  O  O209  1  0.33355593  0.48459394  0.76400447  1
  O  O210  1  0.84634865  -0.00675588  0.26569405  1
  O  O211  1  0.90438170  0.03538330  0.75888956  1
  O  O212  1  0.85334792  0.52470408  0.24158772  1
  O  O213  1  0.81653960  0.40843699  0.76895419  1
  O  O214  1  0.08389762  0.37755503  0.38369577  1
  O  O215  1  0.11718857  0.35843259  0.88168180  1
  O  O216  1  0.37016058  0.82362928  0.44546135  1
  O  O217  1  0.05304966  0.82474263  0.81630094  1
  O  O218  1  0.64740272  0.37484901  0.34485014  1
  O  O219  1  0.56699883  0.37454313  0.87259434  1
  O  O220  1  0.63666454  0.83991927  0.38233205  1
  O  O221  1  0.71966558  0.93701732  0.88179342  1
  O  O222  1  0.40437379  0.15528173  0.13495358  1
  O  O223  1  0.37545564  0.11116106  0.62961328  1
  O  O224  1  0.46738763  0.64347706  0.11217675  1
  O  O225  1  0.41115951  0.60592520  0.67294785  1
  O  O226  1  0.93881431  0.15548292  0.21969888  1
  O  O227  1  0.91629607  0.12845785  0.56753315  1
  O  O228  1  0.85680243  0.63511002  0.13723959  1
  O  O229  1  0.86306658  0.56048383  0.60898316  1
  O  O230  1  0.24485272  0.26316577  0.11470569  1
  O  O231  1  0.19902573  0.21693595  0.60786929  1
  O  O232  1  0.31352481  0.72792740  0.18669376  1
  O  O233  1  0.29279576  0.72574644  0.67044752  1
  O  O234  1  0.78413519  0.26410701  0.16449826  1
  O  O235  1  0.66925340  0.16127481  0.66141135  1
  O  O236  1  0.68233365  0.75578534  0.12158272  1
  O  O237  1  0.76736209  0.71502347  0.58769025  1
  O  O238  1  0.22035490  0.23983984  0.37379176  1
  O  O239  1  0.26875315  0.25456470  0.90478035  1
  O  O240  1  0.32717341  0.86350352  0.40505924  1
  O  O241  1  0.22242774  0.74467094  0.82684451  1
  O  O242  1  0.80024765  0.24065748  0.35254112  1
  O  O243  1  0.77099579  0.25116619  0.85591716  1
  O  O244  1  0.74189563  0.72978953  0.36562752  1
  O  O245  1  0.78674746  0.80791762  0.96105586  1
  O  O246  1  0.01355288  0.00897530  0.08314465  1
  O  O247  1  -0.01923616  0.13053004  0.54201250  1
  O  O248  1  0.08549288  0.55204621  -0.02012836  1
  O  O249  1  -0.02781030  0.60967838  0.50862956  1
  O  O250  1  0.52418067  0.10504190  -0.04287591  1
  O  O251  1  0.49740146  0.11527102  0.43384908  1
  O  O252  1  0.47867510  0.63350146  0.04555927  1
  O  O253  1  0.53226295  0.60201690  0.50290868  1
  O  O254  1  0.47135283  0.29974327  0.45976256  1
  O  O255  1  0.56338401  0.28653108  1.01908869  1
  O  O256  1  0.48532923  0.92046110  0.49868336  1
  O  O257  1  0.55604161  0.94273192  0.96365878  1
  O  O258  1  1.00778749  0.43103216  0.51003034  1
  O  O259  1  1.01056436  0.36547049  0.98605485  1
  O  O260  1  0.97621495  0.85418214  0.48814938  1
  O  O261  1  1.02251329  0.84590542  1.05286456  1
  O  O262  1  0.53778323  0.45125141  0.42287674  1
  O  O263  1  0.45799303  0.53410317  0.82920769  1
  O  O264  1  0.53592147  0.99825596  0.36639667  1
  O  O265  1  0.43051803  0.98771256  0.85167932  1
  O  O266  1  0.99810105  0.51849078  0.36395126  1
  O  O267  1  1.00263820  0.48225763  0.87592603  1
  O  O268  1  0.97353781  1.00863501  0.33581984  1
  O  O269  1  1.04910798  1.00519763  0.89808097  1
  O  O270  1  -0.02356207  -0.02432980  0.13365539  1
  O  O271  1  0.00230531  -0.02587389  0.59512549  1
  O  O272  1  0.07146362  0.61325331  0.01304717  1
  O  O273  1  0.02190998  0.51588123  0.62952671  1
  O  O274  1  0.56198684  0.03093022  0.09741769  1
  O  O275  1  0.50475927  0.05380748  0.55035227  1
  O  O276  1  0.51956052  0.48906623  0.13639190  1
  O  O277  1  0.53068099  0.45940351  0.58691924  1
  O  O278  1  0.23765165  0.40334225  0.19073881  1
  O  O279  1  0.22720711  0.37702343  0.77257522  1
  O  O280  1  0.27260950  0.92764936  0.26453484  1
  O  O281  1  0.18722130  0.90016502  0.71746293  1
  O  O282  1  0.78235976  0.39637775  0.25721649  1
  O  O283  1  0.67991089  0.36299211  0.75765376  1
  O  O284  1  0.74320649  0.88315987  0.24398666  1
  O  O285  1  0.77062565  0.94808414  0.67798950  1
  O  O286  1  0.22440021  0.10778119  0.25636949  1
  O  O287  1  0.29025192  0.16397388  0.78239002  1
  O  O288  1  0.24265406  0.57966508  0.25719485  1
  O  O289  1  0.21866200  0.58932970  0.75153221  1
  O  O290  1  0.77084338  0.12682586  0.25554074  1
  O  O291  1  0.78622171  0.23256573  0.78573057  1
  O  O292  1  0.74145633  0.62153520  0.25290227  1
  O  O293  1  0.73796376  0.52118256  0.83006987  1
  O  O294  1  0.34612544  0.15509696  0.33510522  1
  O  O295  1  0.37538384  0.14082988  0.90620521  1
  O  O296  1  0.41460163  0.64022814  0.26186260  1
  O  O297  1  0.33089448  0.62903832  0.83726251  1
  O  O298  1  0.83269042  0.07781020  0.39211196  1
  O  O299  1  0.87852070  0.06564781  0.70189599  1
  O  O300  1  0.85188856  0.62061053  0.34477530  1
  O  O301  1  0.77381848  0.55296586  0.97595126  1
  O  O302  1  0.09856248  0.36460671  0.13794404  1
  O  O303  1  0.10568233  0.35257704  0.66297304  1
  O  O304  1  0.16584958  0.84082653  0.18430943  1
  O  O305  1  0.20728110  0.88348122  0.50872829  1
  O  O306  1  0.62402524  0.38041388  0.15021080  1
  O  O307  1  0.57505043  0.40525928  0.57871702  1
  O  O308  1  0.50425923  0.81973144  0.17860123  1
  O  O309  1  0.67835254  0.84032301  0.62169386  1
  O  O310  1  0.13168928  0.28989329  0.27550147  1
  O  O311  1  0.14422042  0.25371715  0.78310740  1
  O  O312  1  0.23181364  0.78568607  0.31253115  1
  O  O313  1  0.12682957  0.72970327  0.70447878  1
  O  O314  1  0.63283262  0.27674351  0.24473027  1
  O  O315  1  0.56345884  0.27973671  0.74295867  1
  O  O316  1  0.61228615  0.72700312  0.27688887  1
  O  O317  1  0.61367952  0.73195393  0.74896267  1
  O  O318  1  0.34200824  0.26990173  0.22287221  1
  O  O319  1  0.36411468  0.30668385  0.73584766  1
  O  O320  1  0.35643583  0.78367170  0.18142455  1
  O  O321  1  0.43485579  0.75969766  0.73077761  1
  O  O322  1  0.93215931  0.21898477  0.18813819  1
  O  O323  1  0.85744923  0.23515134  0.76234112  1
  O  O324  1  0.86537241  0.74079478  0.24554740  1
  O  O325  1  0.89108941  0.72344751  0.67181658  1
  O  O326  1  0.37512453  0.50900161  0.51794796  1
  O  O327  1  0.37412195  0.54923820  0.96123095  1
  O  O328  1  0.40844443  1.00546292  0.44073794  1
  O  O329  1  0.41693250  1.01307200  1.03067832  1
  O  O330  1  0.81855593  0.41943893  0.53126092  1
  O  O331  1  0.92974089  0.51509886  1.03748112  1
  O  O332  1  0.89823354  0.98253567  0.47528825  1
  O  O333  1  0.86829842  1.03843109  0.97629212  1
  O  O334  1  -0.00952576  -0.13058741  -0.00392055  1
  O  O335  1  0.07077421  -0.00567728  0.45724204  1
  O  O336  1  0.14313557  0.50584016  0.00914944  1
  O  O337  1  0.14723544  0.53385391  0.44617435  1
  O  O338  1  0.69591481  0.05752130  0.02846918  1
  O  O339  1  0.60546338  -0.00397993  0.46894123  1
  O  O340  1  0.63528782  0.47469263  0.02614071  1
  O  O341  1  0.66936224  0.51638716  0.50674615  1
  O  O342  1  0.37564473  0.38390282  0.11409911  1
  O  O343  1  0.37826729  0.45006011  0.55807194  1
  O  O344  1  0.35887390  0.77069141  0.05922501  1
  O  O345  1  0.41076037  0.90958899  0.63726091  1
  O  O346  1  0.97109945  0.49546514  0.08885585  1
  O  O347  1  0.91990798  0.35463560  0.64213031  1
  O  O348  1  0.84823926  0.88140361  0.08685115  1
  O  O349  1  0.85207013  0.86331286  0.57676628  1
  O  O350  1  0.11598339  0.13910594  0.35558797  1
  O  O351  1  0.17137314  0.14352462  0.88594236  1
  O  O352  1  0.11337819  0.66671454  0.29913963  1
  O  O353  1  0.11279856  0.63276235  0.83907938  1
  O  O354  1  0.66719441  0.13891927  0.36420014  1
  O  O355  1  0.73937493  0.08162056  0.79455663  1
  O  O356  1  0.64749735  0.62352577  0.39359976  1
  O  O357  1  0.62711472  0.57310715  0.91261911  1
