# generated using pymatgen
data_V51Zn51O256
_symmetry_space_group_name_H-M   'P 1'
_cell_length_a   17.52063895
_cell_length_b   17.47194645
_cell_length_c   17.21353215
_cell_angle_alpha   90.15287775
_cell_angle_beta   90.55861661
_cell_angle_gamma   89.47298810
_symmetry_Int_Tables_number   1
_chemical_formula_structural   V51Zn51O256
_chemical_formula_sum   'V51 Zn51 O256'
_cell_volume   5268.90984016
_cell_formula_units_Z   1
loop_
 _symmetry_equiv_pos_site_id
 _symmetry_equiv_pos_as_xyz
  1  'x, y, z'
loop_
 _atom_site_type_symbol
 _atom_site_label
 _atom_site_symmetry_multiplicity
 _atom_site_fract_x
 _atom_site_fract_y
 _atom_site_fract_z
 _atom_site_occupancy
  V  V0  1  0.59074114  0.14973694  0.01759701  1
  V  V1  1  0.36043877  0.75066127  0.61749363  1
  V  V2  1  0.62158146  -0.03395218  0.13579429  1
  V  V3  1  0.19667939  0.79580738  -0.07953252  1
  V  V4  1  0.51169145  0.11883044  0.60905673  1
  V  V5  1  0.76409060  0.38560304  0.14011037  1
  V  V6  1  0.00435731  0.90045066  0.37438097  1
  V  V7  1  0.83998719  -0.00077061  0.36269988  1
  V  V8  1  0.26123855  0.92758592  0.62535426  1
  V  V9  1  0.12000366  0.25906210  0.82245548  1
  V  V10  1  0.36524509  0.74397824  0.13908635  1
  V  V11  1  0.76577829  0.86288724  0.10008676  1
  V  V12  1  0.50300271  0.88822139  0.90570262  1
  V  V13  1  0.61585009  -0.01905760  0.66301058  1
  V  V14  1  0.01210903  0.09758603  0.64683213  1
  V  V15  1  -0.02227540  0.58334721  0.60387144  1
  V  V16  1  0.85707513  0.50522637  0.85116721  1
  V  V17  1  0.58897952  0.50490301  0.10387756  1
  V  V18  1  0.83808782  0.05190612  0.93464006  1
  V  V19  1  0.62665331  0.86614443  0.78301453  1
  V  V20  1  0.40364077  0.54878188  0.35201324  1
  V  V21  1  0.51993451  -0.00996654  0.48443827  1
  V  V22  1  0.86070515  0.22501605  0.63748984  1
  V  V23  1  0.27066015  0.38594796  0.61022979  1
  V  V24  1  0.11093808  0.09313154  0.49750846  1
  V  V25  1  -0.01614398  0.38266902  0.85706806  1
  V  V26  1  0.01765015  0.70661529  0.73035849  1
  V  V27  1  0.81342358  0.09234248  0.75356736  1
  V  V28  1  0.00520055  0.60986591  0.10049807  1
  V  V29  1  0.77778461  0.62722696  0.39160014  1
  V  V30  1  0.24326310  0.23440406  0.49731410  1
  V  V31  1  0.16919786  0.60227361  0.48881365  1
  V  V32  1  0.86520982  0.16870522  0.28761414  1
  V  V33  1  0.36315391  0.90476722  0.49858540  1
  V  V34  1  0.74078540  0.19070882  0.51358707  1
  V  V35  1  0.63358651  0.64078357  0.51015934  1
  V  V36  1  0.77232211  0.77748736  0.50992442  1
  V  V37  1  0.46902038  0.90547182  0.33946077  1
  V  V38  1  0.15655036  0.76207918  0.39033803  1
  V  V39  1  0.27399638  0.07310617  0.85917521  1
  V  V40  1  0.62565506  0.37277611  0.75877920  1
  V  V41  1  0.49434556  0.73048366  0.76997324  1
  V  V42  1  0.71383483  0.61591511  0.88141836  1
  V  V43  1  0.90329713  0.76674931  0.61766344  1
  V  V44  1  0.26223394  0.22689380  -0.01703832  1
  V  V45  1  0.78575549  0.51211178  0.25292883  1
  V  V46  1  0.40767124  0.08044704  0.76069621  1
  V  V47  1  0.10028316  0.84590111  0.23527095  1
  V  V48  1  0.14618017  0.86341604  0.73375989  1
  V  V49  1  0.61334920  0.21030998  0.39721487  1
  V  V50  1  -0.02544782  0.92297085  0.90583739  1
  Zn  Zn51  1  0.70434730  0.44594216  0.94980746  1
  Zn  Zn52  1  0.14992536  0.18117888  0.15103233  1
  Zn  Zn53  1  0.35047591  0.57111442  0.55358538  1
  Zn  Zn54  1  0.92428178  0.41997584  0.68415245  1
  Zn  Zn55  1  0.86815325  0.79454505  0.37102239  1
  Zn  Zn56  1  0.55006898  0.82340917  0.09603390  1
  Zn  Zn57  1  0.43673282  0.41271195  0.59670948  1
  Zn  Zn58  1  0.78106494  0.06386996  0.10980205  1
  Zn  Zn59  1  0.17900717  0.67840283  0.20026420  1
  Zn  Zn60  1  0.33902801  0.90493672  0.80596826  1
  Zn  Zn61  1  0.57333767  0.30269978  0.56115056  1
  Zn  Zn62  1  0.38044517  0.75231420  0.92044428  1
  Zn  Zn63  1  0.05721067  0.79359213  0.03952962  1
  Zn  Zn64  1  0.33504084  0.09324370  0.56068420  1
  Zn  Zn65  1  0.27971483  0.23894486  0.76624022  1
  Zn  Zn66  1  0.59687407  0.61791426  0.31933342  1
  Zn  Zn67  1  0.09149416  0.45039413  0.69364436  1
  Zn  Zn68  1  0.49244220  0.77741008  0.47680333  1
  Zn  Zn69  1  1.08350194  0.65246301  0.91500215  1
  Zn  Zn70  1  0.90642568  0.10728973  0.48557773  1
  Zn  Zn71  1  0.80428074  0.55344005  0.04146514  1
  Zn  Zn72  1  0.63270873  0.00418724  0.33543740  1
  Zn  Zn73  1  0.74846194  0.32452094  0.34013271  1
  Zn  Zn74  1  0.91419654  0.93780145  0.71487448  1
  Zn  Zn75  1  0.24210894  0.36686900  0.88909167  1
  Zn  Zn76  1  0.62613936  0.32587208  0.08113455  1
  Zn  Zn77  1  0.67881693  0.21387149  0.22233876  1
  Zn  Zn78  1  0.41487647  0.95228742  0.14451816  1
  Zn  Zn79  1  0.78251263  0.62695274  0.60671105  1
  Zn  Zn80  1  0.31965031  0.92281000  0.98102541  1
  Zn  Zn81  1  0.43073652  0.05651958  -0.02408423  1
  Zn  Zn82  1  0.76040094  -0.01398216  0.52535830  1
  Zn  Zn83  1  0.81688686  0.30430545  0.80524777  1
  Zn  Zn84  1  0.75210746  0.69624662  0.19079228  1
  Zn  Zn85  1  0.15415320  0.73702620  0.59656998  1
  Zn  Zn86  1  0.11490163  0.31140976  -0.00273571  1
  Zn  Zn87  1  0.08261203  0.03158028  0.81427748  1
  Zn  Zn88  1  0.19800955  0.10351046  0.69589255  1
  Zn  Zn89  1  0.67366271  0.18433951  0.69256504  1
  Zn  Zn90  1  0.57452744  0.05597093  0.84517132  1
  Zn  Zn91  1  0.66152194  0.68358411  0.71332188  1
  Zn  Zn92  1  0.95121168  0.17922125  0.80335186  1
  Zn  Zn93  1  0.67853149  0.95132691  0.96254800  1
  Zn  Zn94  1  0.96221091  0.68555960  0.44503908  1
  Zn  Zn95  1  0.05072914  0.09631150  0.30407745  1
  Zn  Zn96  1  0.43999391  0.24663326  0.49038317  1
  Zn  Zn97  1  0.11509481  0.89405138  0.51690617  1
  Zn  Zn98  1  0.91029170  0.92341670  0.21314531  1
  Zn  Zn99  1  0.35695525  0.75757529  0.35577535  1
  Zn  Zn100  1  0.68200618  0.47822238  0.43527409  1
  Zn  Zn101  1  0.24337566  0.43592127  0.43830507  1
  O  O102  1  0.05264802  0.11791268  0.03532683  1
  O  O103  1  0.11134424  0.09565438  0.62426334  1
  O  O104  1  0.09909186  0.64450594  0.12991062  1
  O  O105  1  0.12796967  0.62854526  0.57643191  1
  O  O106  1  0.63327172  0.14958860  0.13184102  1
  O  O107  1  0.60135505  0.10632483  0.65753917  1
  O  O108  1  0.63513964  0.59203996  0.15962654  1
  O  O109  1  0.67143564  0.63123435  0.61657383  1
  O  O110  1  0.46942316  0.47363745  0.34193550  1
  O  O111  1  0.31514452  0.47657932  0.80199116  1
  O  O112  1  0.35872114  0.89672645  0.40096220  1
  O  O113  1  0.38927172  0.86594984  0.90327858  1
  O  O114  1  0.89199117  0.43606341  0.44021104  1
  O  O115  1  0.89590404  0.33903096  0.86929904  1
  O  O116  1  0.89196096  0.90287200  0.36240071  1
  O  O117  1  0.89025989  0.96596745  0.94869481  1
  O  O118  1  0.23697803  0.05055347  0.24117547  1
  O  O119  1  0.28160308  -0.02264913  0.88352465  1
  O  O120  1  0.32637469  0.48683632  0.38221312  1
  O  O121  1  0.29511652  0.46411881  0.88014221  1
  O  O122  1  0.74527431  -0.01654449  0.35824311  1
  O  O123  1  0.74685203  0.02773129  0.91715346  1
  O  O124  1  0.74961933  0.52653033  0.36048495  1
  O  O125  1  0.74036663  0.51362393  0.86176520  1
  O  O126  1  0.20954637  0.47122425  0.08906865  1
  O  O127  1  0.33154456  0.46736641  0.59474071  1
  O  O128  1  0.19643368  1.02778648  0.07507340  1
  O  O129  1  0.26387808  1.02795169  0.63001720  1
  O  O130  1  0.77279022  0.50290965  0.14170835  1
  O  O131  1  0.75693763  0.38263124  0.54869434  1
  O  O132  1  0.73826017  0.96803569  0.13505528  1
  O  O133  1  0.70275112  0.98493483  0.62180369  1
  O  O134  1  0.00561767  0.33884316  0.29437576  1
  O  O135  1  0.01317942  0.40025819  0.75638130  1
  O  O136  1  0.00177037  0.87607424  0.25241473  1
  O  O137  1  -0.04668018  0.89580432  0.81264499  1
  O  O138  1  0.30688936  0.37277601  0.19643622  1
  O  O139  1  0.53200494  0.38596134  0.78201832  1
  O  O140  1  0.42007236  0.92845389  0.25675084  1
  O  O141  1  0.50628303  0.84903533  0.81115338  1
  O  O142  1  0.36714584  0.23455012  0.31324446  1
  O  O143  1  0.49822117  0.11017146  0.77874444  1
  O  O144  1  0.58298177  0.73189786  0.27679638  1
  O  O145  1  0.50915396  0.64804023  0.72723255  1
  O  O146  1  0.96048468  0.16201733  0.26791993  1
  O  O147  1  1.02114703  0.10487362  0.75382216  1
  O  O148  1  0.96598071  0.63722474  0.18917786  1
  O  O149  1  1.02642510  0.61045628  0.70058792  1
  O  O150  1  0.35132691  0.22720393  0.01013383  1
  O  O151  1  0.34345021  0.19803131  0.51021112  1
  O  O152  1  0.36663333  0.73658961  0.03699784  1
  O  O153  1  0.38430998  0.78934465  0.52215602  1
  O  O154  1  0.76172966  0.25254558  -0.03138481  1
  O  O155  1  0.85112385  0.19724186  0.53122948  1
  O  O156  1  0.84052597  0.76238234  -0.05968701  1
  O  O157  1  0.88561653  0.75696418  0.50948433  1
  O  O158  1  0.15874777  0.27253958  0.55900461  1
  O  O159  1  0.13605662  0.22420872  0.91517675  1
  O  O160  1  0.13771956  0.78620079  0.49184996  1
  O  O161  1  0.13311718  0.73619667  0.97237021  1
  O  O162  1  0.63821117  0.23201525  0.50541664  1
  O  O163  1  0.58776696  0.24939724  1.01459191  1
  O  O164  1  0.68179357  0.74460673  0.52136951  1
  O  O165  1  0.59090800  0.70429346  1.05603356  1
  O  O166  1  0.37616658  0.36111385  0.20080951  1
  O  O167  1  0.50688659  0.21654234  0.60195519  1
  O  O168  1  0.46330875  0.77039053  0.15303898  1
  O  O169  1  0.45388136  0.78825325  0.67692952  1
  O  O170  1  0.93348577  0.22326745  0.09582011  1
  O  O171  1  0.95831657  0.18809294  0.64199928  1
  O  O172  1  0.98650456  0.70785799  0.06384696  1
  O  O173  1  0.98861805  0.70882920  0.60511432  1
  O  O174  1  0.02197394  0.29786789  0.34957783  1
  O  O175  1  0.01940448  0.26295706  0.81413068  1
  O  O176  1  -0.02654049  0.76603849  0.37180292  1
  O  O177  1  0.03630665  0.69781627  0.82684604  1
  O  O178  1  0.51829090  0.23125794  0.40880588  1
  O  O179  1  0.43681785  0.35141149  0.90095584  1
  O  O180  1  0.45842583  0.79651629  0.36621443  1
  O  O181  1  0.45732642  0.70493116  0.86054509  1
  O  O182  1  0.20903590  0.13744443  0.51588026  1
  O  O183  1  0.24847627  0.12162799  0.93978074  1
  O  O184  1  0.26282939  0.62133259  0.50372939  1
  O  O185  1  0.34395183  0.59715406  0.94094927  1
  O  O186  1  0.72512380  0.09686545  0.51499519  1
  O  O187  1  0.69222437  0.14233722  1.07611088  1
  O  O188  1  0.76315986  0.60983078  0.49163544  1
  O  O189  1  0.75491254  0.62997525  0.97550948  1
  O  O190  1  0.22400860  0.33051254  -0.00512891  1
  O  O191  1  0.27486911  0.35454307  0.50749026  1
  O  O192  1  0.22633983  0.86510933  -0.01668111  1
  O  O193  1  0.26053277  0.90782214  0.51922093  1
  O  O194  1  0.72093901  0.38276149  0.04076706  1
  O  O195  1  0.90852012  0.37675381  0.47441658  1
  O  O196  1  0.75437787  0.87823142  0.00334963  1
  O  O197  1  0.76668165  0.87331977  0.50720694  1
  O  O198  1  0.15788965  0.43676791  0.29236955  1
  O  O199  1  0.13318792  0.50136478  0.79641603  1
  O  O200  1  0.16282223  0.91518409  0.23341584  1
  O  O201  1  0.08726557  0.93751972  0.74298383  1
  O  O202  1  0.61257673  0.55376322  0.22581789  1
  O  O203  1  0.64517759  0.46398853  0.72976896  1
  O  O204  1  0.62065544  1.01669722  0.22187828  1
  O  O205  1  0.61462955  0.98325182  0.76952700  1
  O  O206  1  0.39965012  0.07282946  0.19677330  1
  O  O207  1  0.40100844  -0.01570883  0.75548045  1
  O  O208  1  0.36384870  0.53934165  0.26082874  1
  O  O209  1  0.34016243  0.54229836  0.78737219  1
  O  O210  1  0.87017133  0.01274525  0.26469026  1
  O  O211  1  0.82701884  -0.00518313  0.75727058  1
  O  O212  1  0.87708295  0.50413928  0.26599641  1
  O  O213  1  0.85259610  0.46110211  0.75911313  1
  O  O214  1  0.19458999  0.39073005  0.33408385  1
  O  O215  1  0.15589429  0.35079565  0.81675558  1
  O  O216  1  0.10187643  0.85286933  0.35932169  1
  O  O217  1  0.15160461  0.83154473  0.83301882  1
  O  O218  1  0.70797275  0.37613474  0.43124588  1
  O  O219  1  0.64216585  0.38266588  0.86189892  1
  O  O220  1  0.56329538  0.90329803  0.31977523  1
  O  O221  1  0.61458351  0.89224928  0.89059003  1
  O  O222  1  0.37672493  0.13110858  0.15388286  1
  O  O223  1  0.41648125  0.10256511  0.64999547  1
  O  O224  1  0.40019529  0.65056158  0.14519731  1
  O  O225  1  0.38774347  0.65799423  0.60984838  1
  O  O226  1  0.81672647  0.14675949  0.18810895  1
  O  O227  1  0.83524829  0.10876565  0.65775608  1
  O  O228  1  0.91324454  0.57696598  0.07259726  1
  O  O229  1  0.88205762  0.58446481  0.62248283  1
  O  O230  1  0.21324102  0.19657386  0.06633796  1
  O  O231  1  0.22072247  0.27500949  0.61007525  1
  O  O232  1  0.26453111  0.71865246  0.13705873  1
  O  O233  1  0.26321247  0.75124782  0.62598699  1
  O  O234  1  0.71107446  0.29790820  0.15947590  1
  O  O235  1  0.74705361  0.22988434  0.62085811  1
  O  O236  1  0.76131890  0.76114415  0.11040420  1
  O  O237  1  0.80005097  0.74280770  0.61805952  1
  O  O238  1  0.21981089  0.25169947  0.40719064  1
  O  O239  1  0.28873290  0.26396581  0.87427291  1
  O  O240  1  0.25191011  0.77071003  0.38418449  1
  O  O241  1  0.27328615  0.74273301  0.89301194  1
  O  O242  1  0.74517007  0.21575737  0.41741505  1
  O  O243  1  0.76263371  0.23023335  0.90016998  1
  O  O244  1  0.77798990  0.74197461  0.40652528  1
  O  O245  1  0.87523890  0.75243043  0.88043133  1
  O  O246  1  -0.06717442  0.24576878  0.02874460  1
  O  O247  1  0.00951696  0.10631844  0.52769390  1
  O  O248  1  0.03470687  0.59785318  -0.00155318  1
  O  O249  1  -0.01128605  0.59647122  0.50509497  1
  O  O250  1  0.49859134  0.12166307  0.03404015  1
  O  O251  1  0.50671345  0.09799564  0.50901750  1
  O  O252  1  0.55801637  0.66821861  0.00421231  1
  O  O253  1  0.54561671  0.68583117  0.50855815  1
  O  O254  1  0.47936407  0.34848261  0.52057818  1
  O  O255  1  0.42738445  0.40460639  1.04932338  1
  O  O256  1  0.48510795  0.89187834  0.49413238  1
  O  O257  1  0.51303912  0.83564833  0.98982839  1
  O  O258  1  1.04403093  0.39267528  0.43796134  1
  O  O259  1  1.04274288  0.36775396  0.93658841  1
  O  O260  1  1.00939969  0.89667458  0.47294466  1
  O  O261  1  1.00204379  0.84757248  0.96304181  1
  O  O262  1  0.48830712  0.60322083  0.32984391  1
  O  O263  1  0.46945550  0.52562986  0.85725503  1
  O  O264  1  0.47430339  0.99988628  0.39120685  1
  O  O265  1  0.49911530  0.98844712  0.91107723  1
  O  O266  1  1.02771863  0.44674298  0.39600840  1
  O  O267  1  0.95584491  0.47795131  0.88001968  1
  O  O268  1  1.01918338  0.99464170  0.35106490  1
  O  O269  1  1.04359140  0.99283343  0.90800744  1
  O  O270  1  0.01567946  0.06617602  0.06435019  1
  O  O271  1  -0.03140092  0.01189793  0.64522999  1
  O  O272  1  0.04039673  0.52055376  0.12581595  1
  O  O273  1  0.00046974  0.48342769  0.62203035  1
  O  O274  1  0.52380596  -0.07036306  0.13264804  1
  O  O275  1  0.53321004  -0.00567115  0.60141176  1
  O  O276  1  0.50042261  0.53393270  0.08964818  1
  O  O277  1  0.49357767  0.48932115  0.64059512  1
  O  O278  1  0.12416047  0.33298140  0.16094208  1
  O  O279  1  0.31098047  0.33844222  0.70689633  1
  O  O280  1  0.27510280  1.06971198  0.29720191  1
  O  O281  1  0.24777232  0.89528170  0.73433452  1
  O  O282  1  0.75166493  0.41210526  0.25310031  1
  O  O283  1  0.72877011  0.34913014  0.76247111  1
  O  O284  1  0.76076232  0.85959728  0.24186413  1
  O  O285  1  0.71809444  0.85245776  0.78492891  1
  O  O286  1  0.12112014  0.10898651  0.22138410  1
  O  O287  1  0.30758610  0.12852469  0.75561587  1
  O  O288  1  0.21778880  0.58886358  0.23653667  1
  O  O289  1  0.16857351  0.56772486  0.80008410  1
  O  O290  1  0.76014966  0.13548070  0.24930132  1
  O  O291  1  0.72010321  0.11699040  0.76935237  1
  O  O292  1  0.76499874  0.62296065  0.26424112  1
  O  O293  1  0.73400351  0.66583389  0.79602233  1
  O  O294  1  0.30240870  0.23517900  0.28604546  1
  O  O295  1  0.38039227  0.09044667  0.86983696  1
  O  O296  1  0.36056320  0.64329947  0.36155381  1
  O  O297  1  0.36735757  0.55734029  0.99472737  1
  O  O298  1  0.86205873  0.10977896  0.37419662  1
  O  O299  1  0.87342659  0.10949877  0.85430121  1
  O  O300  1  0.87323915  0.62643354  0.38631829  1
  O  O301  1  0.87036951  0.59679429  0.84279203  1
  O  O302  1  0.08311595  0.28536162  0.10766532  1
  O  O303  1  0.18579365  0.42535580  0.63917411  1
  O  O304  1  0.09621051  0.81821251  0.13758879  1
  O  O305  1  0.16254894  0.88406567  0.62312860  1
  O  O306  1  0.58254928  0.41088484  0.13734878  1
  O  O307  1  0.61173437  0.35177042  0.65639447  1
  O  O308  1  0.65124753  0.86375524  0.12621478  1
  O  O309  1  0.60704734  0.88044432  0.67475163  1
  O  O310  1  0.16533551  0.29297437  0.20894972  1
  O  O311  1  0.16921217  0.20845781  0.74860378  1
  O  O312  1  0.14122189  0.75055441  0.27312978  1
  O  O313  1  0.09856162  0.77177116  0.69818914  1
  O  O314  1  0.64462244  0.26614849  0.31529355  1
  O  O315  1  0.61914623  0.26533311  0.75582698  1
  O  O316  1  0.61752101  0.74377406  0.21403360  1
  O  O317  1  0.60012889  0.75959544  0.76691072  1
  O  O318  1  0.40633012  0.19581022  0.16884454  1
  O  O319  1  0.42467770  0.29050559  0.86799134  1
  O  O320  1  0.34794176  0.75465209  0.24073567  1
  O  O321  1  0.39106571  0.76796984  0.72945697  1
  O  O322  1  0.84289439  0.26216335  0.30788236  1
  O  O323  1  0.85207116  0.21386907  0.75055568  1
  O  O324  1  0.78542944  0.79588191  0.26821137  1
  O  O325  1  0.92245217  0.73883345  0.72570046  1
  O  O326  1  0.41282656  0.55325833  0.45895285  1
  O  O327  1  0.48753700  0.49841705  0.92002684  1
  O  O328  1  0.38293865  1.00107111  0.51506312  1
  O  O329  1  0.37514248  0.98913414  1.04601227  1
  O  O330  1  0.77138899  0.44606707  0.57700485  1
  O  O331  1  0.82175185  0.47800683  0.95529539  1
  O  O332  1  0.85636814  1.00746503  0.47095046  1
  O  O333  1  0.84210795  1.09803199  1.02260661  1
  O  O334  1  0.14717214  -0.01647192  0.09556506  1
  O  O335  1  0.13202533  -0.00000508  0.48965778  1
  O  O336  1  0.22096311  0.52160654  0.04067089  1
  O  O337  1  0.16541037  0.50527091  0.46915406  1
  O  O338  1  0.62214493  0.01205074  0.04366377  1
  O  O339  1  0.61115342  -0.01992494  0.45782155  1
  O  O340  1  0.63126399  0.50514649  0.01244766  1
  O  O341  1  0.61830370  0.54210993  0.49544662  1
  O  O342  1  0.35969500  0.41266232  0.03466127  1
  O  O343  1  0.36363876  0.32488457  0.64428210  1
  O  O344  1  0.35155941  0.84750514  0.12444823  1
  O  O345  1  0.35135973  0.88926076  0.62662224  1
  O  O346  1  0.85321367  0.36289462  0.13120537  1
  O  O347  1  0.87850499  0.32182250  0.64192172  1
  O  O348  1  0.86180446  0.87861965  0.12662939  1
  O  O349  1  0.91514790  0.86147707  0.63107768  1
  O  O350  1  0.09711114  0.12697065  0.40609765  1
  O  O351  1  0.18688958  0.06137798  0.80154665  1
  O  O352  1  0.13801258  0.66141612  0.40495697  1
  O  O353  1  0.17612342  0.59530191  0.87316766  1
  O  O354  1  0.62028349  0.11779419  0.36848802  1
  O  O355  1  0.61151334  0.12392672  0.92305935  1
  O  O356  1  0.65833420  0.65307347  0.40044627  1
  O  O357  1  0.62015283  0.61603751  0.88570231  1
