# generated using pymatgen
data_V51Zn51O256
_symmetry_space_group_name_H-M   'P 1'
_cell_length_a   17.78774580
_cell_length_b   17.32908210
_cell_length_c   17.83839586
_cell_angle_alpha   90.71522036
_cell_angle_beta   88.62064525
_cell_angle_gamma   91.37769632
_symmetry_Int_Tables_number   1
_chemical_formula_structural   V51Zn51O256
_chemical_formula_sum   'V51 Zn51 O256'
_cell_volume   5495.02960469
_cell_formula_units_Z   1
loop_
 _symmetry_equiv_pos_site_id
 _symmetry_equiv_pos_as_xyz
  1  'x, y, z'
loop_
 _atom_site_type_symbol
 _atom_site_label
 _atom_site_symmetry_multiplicity
 _atom_site_fract_x
 _atom_site_fract_y
 _atom_site_fract_z
 _atom_site_occupancy
  V  V0  1  -0.06500175  0.21821348  0.26524567  1
  V  V1  1  0.57921620  0.25211481  0.35867010  1
  V  V2  1  0.07906672  0.90526827  0.24462656  1
  V  V3  1  -0.07502339  0.25057542  0.77626911  1
  V  V4  1  0.25120507  0.65816916  0.91382694  1
  V  V5  1  0.25866713  0.65451608  0.31324937  1
  V  V6  1  0.16558388  0.37042376  0.22219068  1
  V  V7  1  0.00078076  0.61523825  0.15741210  1
  V  V8  1  0.35968930  0.73784546  0.62774875  1
  V  V9  1  0.89585564  0.02492160  0.40167088  1
  V  V10  1  0.56009232  0.08597772  0.12179526  1
  V  V11  1  0.86695283  0.78590586  0.16250966  1
  V  V12  1  0.25767232  -0.01734004  0.77321883  1
  V  V13  1  0.76148892  0.26261992  0.56645955  1
  V  V14  1  0.23507925  -0.01660201  0.25604937  1
  V  V15  1  0.19559207  0.24170624  0.36660785  1
  V  V16  1  0.74788992  0.08126198  0.87253722  1
  V  V17  1  0.23525587  0.46361022  0.78342849  1
  V  V18  1  0.02802792  0.74804392  0.76576750  1
  V  V19  1  0.78202785  0.37098117  0.73775529  1
  V  V20  1  0.44157229  0.66193934  0.27750460  1
  V  V21  1  0.18613122  0.12752401  0.51183919  1
  V  V22  1  -0.00319646  0.87237542  0.44598214  1
  V  V23  1  0.75407118  -0.01754519  0.73318763  1
  V  V24  1  0.48561113  0.73939838  0.75561022  1
  V  V25  1  0.24928735  0.86576311  0.12215531  1
  V  V26  1  0.87957507  0.56418898  0.28248070  1
  V  V27  1  0.88995490  0.74601900  0.59828897  1
  V  V28  1  0.42151616  0.75857178  0.10226890  1
  V  V29  1  0.46302302  0.59733571  0.64986855  1
  V  V30  1  0.44826181  -0.05393959  0.86448094  1
  V  V31  1  0.66367551  0.61065553  0.51384269  1
  V  V32  1  0.63579423  0.20877140  0.85501837  1
  V  V33  1  0.74618118  0.84939913  0.05084056  1
  V  V34  1  0.06909624  0.39087728  0.73065542  1
  V  V35  1  -0.00904934  0.11893522  0.11058942  1
  V  V36  1  0.64294531  0.48084340  0.67317909  1
  V  V37  1  0.47209835  0.29936922  0.88069023  1
  V  V38  1  0.62063729  -0.01927098  0.61985955  1
  V  V39  1  0.41940366  -0.05228564  0.38294922  1
  V  V40  1  0.30373867  0.51204133  0.22153003  1
  V  V41  1  0.95478624  0.38848343  0.05207842  1
  V  V42  1  0.70262065  0.76655887  0.87243127  1
  V  V43  1  0.66774845  0.73215689  0.37978645  1
  V  V44  1  0.65315929  0.82732220  0.70600500  1
  V  V45  1  0.13592020  0.24134975  0.77391307  1
  V  V46  1  0.87372429  0.63329257  0.81206847  1
  V  V47  1  0.83953797  0.23681486  0.10794966  1
  V  V48  1  0.64347429  0.46220973  0.15300174  1
  V  V49  1  0.49584259  0.50356616  -0.05424242  1
  V  V50  1  -0.04874669  0.10271350  0.62487036  1
  Zn  Zn51  1  0.32762297  0.78164209  0.45067579  1
  Zn  Zn52  1  0.42103911  0.91713358  0.67346341  1
  Zn  Zn53  1  0.99468762  0.90368720  0.64288048  1
  Zn  Zn54  1  0.61394802  0.40748111  0.83888223  1
  Zn  Zn55  1  0.65334054  0.26865540  0.15987108  1
  Zn  Zn56  1  0.18892688  0.93830784  0.42437196  1
  Zn  Zn57  1  0.24122790  0.44290630  0.37876079  1
  Zn  Zn58  1  0.68171074  0.54244958  0.32871631  1
  Zn  Zn59  1  0.87260910  0.72831758  0.39839759  1
  Zn  Zn60  1  0.58698375  0.35523223  0.00648460  1
  Zn  Zn61  1  0.75821479  0.05686618  0.05707078  1
  Zn  Zn62  1  0.92093119  0.97148321  0.22728866  1
  Zn  Zn63  1  0.73279624  0.64061270  0.68190946  1
  Zn  Zn64  1  0.55369086  0.77421415  0.58075329  1
  Zn  Zn65  1  0.51184733  0.10542010  0.91610239  1
  Zn  Zn66  1  0.43156628  0.63549518  0.47344291  1
  Zn  Zn67  1  0.76758108  0.24064295  0.29603565  1
  Zn  Zn68  1  0.92292998  0.14015832  0.93378339  1
  Zn  Zn69  1  0.58046155  0.90854325  0.45379303  1
  Zn  Zn70  1  0.90026031  0.17544116  0.45325672  1
  Zn  Zn71  1  0.05620399  0.78344075  0.11450487  1
  Zn  Zn72  1  0.30463704  0.63779432  0.08366214  1
  Zn  Zn73  1  0.83377256  0.51611474  0.11536407  1
  Zn  Zn74  1  0.58252825  0.33293760  0.55007960  1
  Zn  Zn75  1  0.61946811  -0.06115260  0.84195186  1
  Zn  Zn76  1  0.10775234  0.07009078  0.68947035  1
  Zn  Zn77  1  0.30911540  0.94618471  0.95782006  1
  Zn  Zn78  1  0.32058475  0.81120259  0.81498995  1
  Zn  Zn79  1  0.47219858  0.55397331  0.13569912  1
  Zn  Zn80  1  0.71403219  0.36629863  0.42395185  1
  Zn  Zn81  1  0.49193677  0.91032083  0.02598758  1
  Zn  Zn82  1  0.98745001  0.41091391  0.25078603  1
  Zn  Zn83  1  0.21153796  0.67782721  0.74395369  1
  Zn  Zn84  1  0.14926860  0.73058277  0.22905618  1
  Zn  Zn85  1  0.58769178  0.60485894  0.81949274  1
  Zn  Zn86  1  0.83744566  0.80270736  0.73499258  1
  Zn  Zn87  1  0.70026420  0.76338984  0.20679016  1
  Zn  Zn88  1  0.77421511  0.07089741  0.55665105  1
  Zn  Zn89  1  0.36466080  0.07565719  0.56104644  1
  Zn  Zn90  1  0.67004233  0.14576140  0.69216167  1
  Zn  Zn91  1  0.09478261  0.39985168  0.90022775  1
  Zn  Zn92  1  0.33906340  0.12529290  0.32332040  1
  Zn  Zn93  1  0.31203944  0.30953736  0.77995797  1
  Zn  Zn94  1  0.51621170  0.05943601  0.31651222  1
  Zn  Zn95  1  0.43821503  0.44684407  0.77608610  1
  Zn  Zn96  1  0.08448242  0.06423754  0.36733829  1
  Zn  Zn97  1  0.43397458  0.67260858  0.92176637  1
  Zn  Zn98  1  0.10578840  0.17513323  0.22954315  1
  Zn  Zn99  1  0.10760094  0.57162523  0.81413776  1
  Zn  Zn100  1  0.36567141  0.01689300  0.11608706  1
  Zn  Zn101  1  0.10826285  0.54534771  0.28814544  1
  O  O102  1  0.08587363  0.12748985  0.13404102  1
  O  O103  1  0.13707676  0.12053721  0.59432514  1
  O  O104  1  0.08129583  0.68245050  0.15403056  1
  O  O105  1  0.17913597  0.63843566  0.51971857  1
  O  O106  1  0.56697469  0.18833588  0.13583677  1
  O  O107  1  0.59400747  0.07034448  0.64710455  1
  O  O108  1  0.61220377  0.66902790  0.03703832  1
  O  O109  1  0.65838455  0.57078674  0.62464319  1
  O  O110  1  0.36448695  0.53839320  0.43855146  1
  O  O111  1  0.37899157  0.28825647  0.86081351  1
  O  O112  1  0.39957327  0.85515176  0.41315458  1
  O  O113  1  0.37446611  0.87902119  0.88852075  1
  O  O114  1  0.86033503  0.46552759  0.46356443  1
  O  O115  1  0.83432165  0.37430191  0.91667102  1
  O  O116  1  0.91434857  0.93505690  0.44183478  1
  O  O117  1  0.90750548  0.91986478  0.89615137  1
  O  O118  1  0.25810471  -0.06290219  0.33684513  1
  O  O119  1  0.26072341  -0.00780510  0.86982033  1
  O  O120  1  0.24547797  0.52963570  0.31509923  1
  O  O121  1  0.20251076  0.43746533  0.87076134  1
  O  O122  1  0.69487973  -0.00376643  0.32071627  1
  O  O123  1  0.72458033  -0.02285131  0.83852038  1
  O  O124  1  0.91113529  0.50934066  0.48394355  1
  O  O125  1  0.72615545  0.56091930  0.95780541  1
  O  O126  1  0.26140830  0.56144535  0.15250018  1
  O  O127  1  0.20859857  0.57573057  0.52553535  1
  O  O128  1  0.30562028  0.94899336  0.17760439  1
  O  O129  1  0.36064604  1.01342107  0.65363076  1
  O  O130  1  0.73042573  0.49179961  0.11623034  1
  O  O131  1  0.72967242  0.44122492  0.67269313  1
  O  O132  1  0.65860653  1.08225688  0.10974992  1
  O  O133  1  0.72692463  0.99640801  0.62836763  1
  O  O134  1  -0.01707139  0.30214061  0.28231057  1
  O  O135  1  -0.02048347  0.33436056  0.76105347  1
  O  O136  1  -0.00055174  0.93678558  0.29376635  1
  O  O137  1  0.04369646  0.82753319  0.70983746  1
  O  O138  1  0.57821104  0.52109026  0.11873941  1
  O  O139  1  0.51303227  0.36190144  0.81063893  1
  O  O140  1  0.59067149  0.88442506  0.23994491  1
  O  O141  1  0.54314699  0.81492123  0.72392157  1
  O  O142  1  0.43913122  0.12490131  0.28665835  1
  O  O143  1  0.48548579  0.18999651  0.72182284  1
  O  O144  1  0.50220153  0.59848974  0.24005350  1
  O  O145  1  0.51978871  0.64208208  0.73903467  1
  O  O146  1  0.99970792  0.14686392  0.26849831  1
  O  O147  1  0.92917661  0.14502045  0.73350674  1
  O  O148  1  1.01357336  0.58378085  0.24942833  1
  O  O149  1  0.97272882  0.58085244  0.80697238  1
  O  O150  1  0.27828094  0.19059389  -0.04933853  1
  O  O151  1  0.44286169  0.38374608  0.47246603  1
  O  O152  1  0.41590303  0.74161784  0.00638023  1
  O  O153  1  0.36401729  0.71085071  0.52855205  1
  O  O154  1  0.89675625  0.29869548  0.04593137  1
  O  O155  1  0.83429020  0.25008147  0.50500516  1
  O  O156  1  0.83121939  0.80195712  0.06818378  1
  O  O157  1  0.86842419  0.75067859  0.50752190  1
  O  O158  1  0.16994690  0.21683325  0.46479431  1
  O  O159  1  0.12721652  0.22377929  1.00289108  1
  O  O160  1  0.24302244  0.85777573  0.48058569  1
  O  O161  1  0.08519597  0.78183348  1.00366743  1
  O  O162  1  0.56626965  0.26356541  0.45713303  1
  O  O163  1  0.43402771  0.31969877  1.14849198  1
  O  O164  1  0.61611038  0.69288875  0.53788414  1
  O  O165  1  0.70764761  0.80941321  0.96701405  1
  O  O166  1  0.32815631  0.34375660  0.01348772  1
  O  O167  1  0.51025123  0.25119700  0.59988996  1
  O  O168  1  0.49537332  0.82639845  0.09604079  1
  O  O169  1  0.47091315  0.71752971  0.63338551  1
  O  O170  1  0.94781710  0.20362680  0.14791901  1
  O  O171  1  0.96119766  0.20246533  0.67874493  1
  O  O172  1  0.95159104  0.73938389  0.15804169  1
  O  O173  1  0.99088864  0.70535982  0.61595430  1
  O  O174  1  -0.12541362  0.20048079  0.34581220  1
  O  O175  1  -0.06021193  0.22375257  0.86648835  1
  O  O176  1  -0.03146870  0.79169109  0.39749238  1
  O  O177  1  0.03643010  0.78063394  0.85142602  1
  O  O178  1  0.48518578  0.26199292  0.34763305  1
  O  O179  1  0.51145931  0.20689953  0.86973576  1
  O  O180  1  0.53006274  0.85640720  0.26022293  1
  O  O181  1  0.48722051  0.74383547  0.85113507  1
  O  O182  1  0.27969800  0.12978725  0.53106979  1
  O  O183  1  0.23241123  0.13733379  0.94469102  1
  O  O184  1  0.27753011  0.69433518  0.39846729  1
  O  O185  1  0.25180626  0.68639157  1.00800961  1
  O  O186  1  0.72349330  0.17037326  0.59249385  1
  O  O187  1  0.71365024  0.06388676  0.96034386  1
  O  O188  1  0.75406539  0.62608002  0.51811680  1
  O  O189  1  0.67403707  0.65633049  1.06231392  1
  O  O190  1  0.17375729  0.27666909  0.00256901  1
  O  O191  1  0.29223678  0.44012299  0.48091411  1
  O  O192  1  0.24066779  0.90309391  0.03516301  1
  O  O193  1  0.19616312  0.83898798  0.55362747  1
  O  O194  1  0.78171401  0.33542056  -0.05918547  1
  O  O195  1  0.69313033  0.32227660  0.52315294  1
  O  O196  1  0.76421919  0.94602485  0.05403171  1
  O  O197  1  0.76272120  0.86929559  0.50997327  1
  O  O198  1  0.09867156  0.43559211  0.26784574  1
  O  O199  1  0.06782103  0.46240126  0.80868039  1
  O  O200  1  0.13229147  1.00076845  0.28363113  1
  O  O201  1  0.17058047  0.99771555  0.73766248  1
  O  O202  1  0.64400145  0.47269291  0.24965591  1
  O  O203  1  0.61605395  0.50389228  0.76916938  1
  O  O204  1  0.56903700  1.06100245  0.21743434  1
  O  O205  1  0.63102433  0.94391500  0.72489040  1
  O  O206  1  0.40790132  -0.04576956  0.29144049  1
  O  O207  1  0.46342034  -0.05971347  0.77017805  1
  O  O208  1  0.39071443  0.48785058  0.19277810  1
  O  O209  1  0.32685848  0.42188881  0.76726364  1
  O  O210  1  0.86330775  0.01715297  0.31306327  1
  O  O211  1  0.84519391  -0.02311180  0.73957386  1
  O  O212  1  0.91601685  0.47455121  0.30247976  1
  O  O213  1  0.91986840  0.53595254  0.84108973  1
  O  O214  1  0.19795644  0.34297946  0.37687691  1
  O  O215  1  0.10488971  0.29746461  0.84866523  1
  O  O216  1  0.08323311  0.91110629  0.41821925  1
  O  O217  1  0.09253533  0.85295950  0.97389935  1
  O  O218  1  0.61238988  0.35230728  0.36933185  1
  O  O219  1  0.62730897  0.28859747  0.91901304  1
  O  O220  1  0.62022977  0.80939664  0.42117030  1
  O  O221  1  0.64421769  0.82747714  0.82555351  1
  O  O222  1  0.32530758  0.11698764  0.08104027  1
  O  O223  1  0.46407381  0.13711695  0.55171474  1
  O  O224  1  0.40851455  0.64942670  0.11415505  1
  O  O225  1  0.37071685  0.61626880  0.65808251  1
  O  O226  1  0.82347869  0.14446287  0.07211366  1
  O  O227  1  0.86508572  0.06538836  0.61615587  1
  O  O228  1  0.89096866  0.58445052  0.17934327  1
  O  O229  1  0.93911915  0.64724685  0.60961607  1
  O  O230  1  0.26247312  0.14816483  0.11739320  1
  O  O231  1  0.35144211  0.32710934  0.61212746  1
  O  O232  1  0.18550144  0.78960183  0.13057838  1
  O  O233  1  0.26750408  0.71997135  0.65910024  1
  O  O234  1  0.75356230  0.27844068  0.10318537  1
  O  O235  1  0.79136250  0.31138748  0.64438205  1
  O  O236  1  0.68451564  0.82643158  0.12313960  1
  O  O237  1  0.80957272  0.71666584  0.64733123  1
  O  O238  1  0.28649808  0.21446711  0.35674795  1
  O  O239  1  0.23297580  0.23603596  0.77552030  1
  O  O240  1  0.26452018  0.72768605  0.25166146  1
  O  O241  1  0.24619107  0.73185918  0.84164607  1
  O  O242  1  0.68202857  0.22319905  0.36659875  1
  O  O243  1  0.73213533  0.18715322  0.86952492  1
  O  O244  1  0.76218414  0.74955119  0.38324488  1
  O  O245  1  0.78854509  0.77461448  0.82951328  1
  O  O246  1  -0.01520982  0.11944801  0.01307166  1
  O  O247  1  -0.03295136  0.14563225  0.54022629  1
  O  O248  1  -0.05157895  0.65379651  0.04919483  1
  O  O249  1  0.04658740  0.59380512  0.51132354  1
  O  O250  1  0.37953889  0.27878209  0.16771642  1
  O  O251  1  0.45403461  0.21421122  0.56535658  1
  O  O252  1  0.51930273  0.59812788  -0.08802835  1
  O  O253  1  0.48381115  0.58371615  0.55380851  1
  O  O254  1  0.50275549  0.41435287  0.49485049  1
  O  O255  1  0.48171929  0.32671244  0.97370792  1
  O  O256  1  0.50912469  0.87682319  0.54474744  1
  O  O257  1  0.39799022  0.96616458  1.02474225  1
  O  O258  1  1.00175480  0.35579031  0.44261003  1
  O  O259  1  1.02725618  0.39256685  0.98547776  1
  O  O260  1  1.00479709  0.85565208  0.54008538  1
  O  O261  1  1.05192106  0.90515991  1.00260932  1
  O  O262  1  0.69078324  0.47845374  0.42685726  1
  O  O263  1  0.43132206  0.46851374  0.88447313  1
  O  O264  1  0.52042601  0.97403910  0.38683173  1
  O  O265  1  0.53357718  0.92914956  0.91470484  1
  O  O266  1  1.09278794  0.52858433  0.41581197  1
  O  O267  1  0.97013924  0.61925273  0.98438421  1
  O  O268  1  0.97965377  1.07846057  0.40339496  1
  O  O269  1  1.05191232  0.94221565  0.84145882  1
  O  O270  1  -0.05402992  0.03767627  0.14519236  1
  O  O271  1  0.01094231  0.02068756  0.64695074  1
  O  O272  1  0.02916568  0.54483433  0.10297636  1
  O  O273  1  0.05377580  0.54281087  0.55728763  1
  O  O274  1  0.46063165  0.08126345  0.14115776  1
  O  O275  1  0.51497283  -0.06754141  0.60423918  1
  O  O276  1  0.58302818  0.45113296  -0.05902138  1
  O  O277  1  0.47068761  0.50727493  0.69165828  1
  O  O278  1  0.25966437  0.41353921  0.22444866  1
  O  O279  1  0.17886776  0.41384412  0.72107096  1
  O  O280  1  0.17920555  0.92211618  0.18671298  1
  O  O281  1  0.28729309  0.89257126  0.74851052  1
  O  O282  1  0.77246188  0.34051413  0.34031165  1
  O  O283  1  0.71307037  0.37615083  0.80676405  1
  O  O284  1  0.72259307  0.97644451  0.25954174  1
  O  O285  1  0.74812303  0.86788925  0.71545426  1
  O  O286  1  0.26877950  0.07717177  0.25581673  1
  O  O287  1  0.32662578  0.04826759  0.71788639  1
  O  O288  1  0.34975117  0.60808953  0.27282070  1
  O  O289  1  0.22144975  0.56144909  0.76264039  1
  O  O290  1  0.70203798  0.19324206  0.22055447  1
  O  O291  1  0.73829999  0.08600691  0.75308552  1
  O  O292  1  0.78425600  0.55174833  0.29130033  1
  O  O293  1  0.79582841  0.60538505  0.76169839  1
  O  O294  1  0.38073779  0.05008538  0.40607634  1
  O  O295  1  0.44422356  0.13315354  0.71635826  1
  O  O296  1  0.45445369  0.67578895  0.37395320  1
  O  O297  1  0.33847564  0.61720286  0.89812879  1
  O  O298  1  0.82851295  0.07512370  0.45935615  1
  O  O299  1  0.84376860  0.08256865  0.88490332  1
  O  O300  1  0.90130026  0.63492301  0.34784954  1
  O  O301  1  0.85003608  0.65458040  0.89853466  1
  O  O302  1  0.14500839  0.36541454  0.13435731  1
  O  O303  1  0.04225315  0.43588028  0.65766797  1
  O  O304  1  0.04029179  0.88446007  0.15787763  1
  O  O305  1  0.15202116  0.78308506  0.54905535  1
  O  O306  1  0.61790043  0.36290482  0.11429018  1
  O  O307  1  0.58865293  0.41308148  0.62722634  1
  O  O308  1  0.55778212  0.98712777  0.08931317  1
  O  O309  1  0.63884360  0.84873346  0.61159038  1
  O  O310  1  0.16434503  0.27224773  0.25218324  1
  O  O311  1  0.10600627  0.29410107  0.69574559  1
  O  O312  1  0.10541193  0.81993541  0.28187526  1
  O  O313  1  0.09829988  0.67127349  0.75565067  1
  O  O314  1  0.59117515  0.27121105  0.26074200  1
  O  O315  1  0.63625480  0.22813186  0.75980535  1
  O  O316  1  0.64119739  0.72946525  0.28713738  1
  O  O317  1  0.66797924  0.73023406  0.70563216  1
  O  O318  1  0.25300081  0.21878895  0.10642830  1
  O  O319  1  0.34187966  0.27424030  0.66592661  1
  O  O320  1  0.44210390  0.74206922  0.21914813  1
  O  O321  1  0.38804632  0.75606165  0.74275249  1
  O  O322  1  0.84140976  0.24383111  0.21279982  1
  O  O323  1  0.83333196  0.27876752  0.77338825  1
  O  O324  1  0.80132570  0.72868652  0.20918801  1
  O  O325  1  0.92537946  0.71834366  0.76569062  1
  O  O326  1  0.33752594  0.49970810  0.49797224  1
  O  O327  1  0.45313496  0.51014914  1.03155186  1
  O  O328  1  0.36458413  1.00111131  0.47039791  1
  O  O329  1  0.42900641  1.04130456  0.88591416  1
  O  O330  1  1.01156252  0.39581608  0.49871972  1
  O  O331  1  0.89275048  0.46300125  1.04061576  1
  O  O332  1  0.75024950  0.90523091  0.45334684  1
  O  O333  1  0.91745611  0.93861404  0.96166057  1
  O  O334  1  0.06251208  -0.00002432  -0.11976089  1
  O  O335  1  0.16441219  0.04824579  0.45077426  1
  O  O336  1  0.03952643  0.60751175  -0.02619451  1
  O  O337  1  0.13567057  0.48583508  0.45071175  1
  O  O338  1  0.53952938  0.10859547  0.02546041  1
  O  O339  1  0.63001961  -0.01826180  0.52243528  1
  O  O340  1  0.75840964  0.50669313  -0.07162435  1
  O  O341  1  0.64753282  0.49990901  0.48854044  1
  O  O342  1  0.28809240  0.37741044  0.05907115  1
  O  O343  1  0.39431404  0.38513739  0.62609843  1
  O  O344  1  0.33601365  0.80878528  0.12056163  1
  O  O345  1  0.36892059  0.83603629  0.61920717  1
  O  O346  1  0.98124391  0.39164429  0.14260730  1
  O  O347  1  0.84955214  0.43171766  0.75631547  1
  O  O348  1  0.86845786  0.87463126  0.20412423  1
  O  O349  1  0.90065455  0.83716423  0.64878272  1
  O  O350  1  0.13517609  0.16262863  0.33469825  1
  O  O351  1  0.09569832  0.14926035  0.76790213  1
  O  O352  1  0.15716608  0.64268787  0.30329861  1
  O  O353  1  0.17268208  0.59996280  0.90109360  1
  O  O354  1  0.57299215  0.15010366  0.35771845  1
  O  O355  1  0.61162129  0.10782298  0.86687184  1
  O  O356  1  0.65161860  0.62746206  0.40520462  1
  O  O357  1  0.66463472  0.67490708  0.86229754  1
