# generated using pymatgen
data_V51Zn51O256
_symmetry_space_group_name_H-M   'P 1'
_cell_length_a   17.52158223
_cell_length_b   17.72000370
_cell_length_c   17.66102917
_cell_angle_alpha   90.34712042
_cell_angle_beta   90.68352237
_cell_angle_gamma   88.73255848
_symmetry_Int_Tables_number   1
_chemical_formula_structural   V51Zn51O256
_chemical_formula_sum   'V51 Zn51 O256'
_cell_volume   5481.61676239
_cell_formula_units_Z   1
loop_
 _symmetry_equiv_pos_site_id
 _symmetry_equiv_pos_as_xyz
  1  'x, y, z'
loop_
 _atom_site_type_symbol
 _atom_site_label
 _atom_site_symmetry_multiplicity
 _atom_site_fract_x
 _atom_site_fract_y
 _atom_site_fract_z
 _atom_site_occupancy
  V  V0  1  0.75189213  0.38481456  0.10929339  1
  V  V1  1  0.51768619  0.84283036  0.34778172  1
  V  V2  1  0.36907931  0.38665400  0.00936905  1
  V  V3  1  0.13772401  0.81074165  0.29828246  1
  V  V4  1  -0.02419728  0.31891466  0.77682725  1
  V  V5  1  0.75846930  0.87391443  0.13595883  1
  V  V6  1  0.69424036  0.11228388  -0.01849052  1
  V  V7  1  0.88415955  0.36311135  0.00425474  1
  V  V8  1  0.49458301  -0.05139257  0.47887998  1
  V  V9  1  0.32718534  0.75455926  0.65123558  1
  V  V10  1  0.23151542  0.63108841  0.89184765  1
  V  V11  1  0.13095596  0.62284449  0.02850262  1
  V  V12  1  0.37042060  0.63471846  0.76035414  1
  V  V13  1  0.14317401  0.13078690  0.47082404  1
  V  V14  1  0.73426229  0.63674782  0.39315279  1
  V  V15  1  0.77162280  0.74045847  -0.02003733  1
  V  V16  1  0.24134954  0.48753048  0.78013477  1
  V  V17  1  0.16696974  0.14183170  -0.02979739  1
  V  V18  1  0.47155269  0.20082234  0.22040755  1
  V  V19  1  0.12079428  0.62717351  0.53225574  1
  V  V20  1  0.71766300  0.53800268  0.75979189  1
  V  V21  1  0.26026081  0.75312323  0.01383068  1
  V  V22  1  0.89634770  0.71791138  0.57709555  1
  V  V23  1  0.55574359  0.11676971  0.49484423  1
  V  V24  1  0.22455959  0.60054824  0.39060772  1
  V  V25  1  0.96164946  0.49269739  0.36729637  1
  V  V26  1  0.72093661  0.03530714  0.25760861  1
  V  V27  1  0.36418373  0.71922095  0.15540428  1
  V  V28  1  0.21598526  0.88316213  0.70377235  1
  V  V29  1  0.47658997  0.41252514  0.32465692  1
  V  V30  1  0.02383491  0.44484634  0.53384102  1
  V  V31  1  0.89314304  0.63632606  0.79417686  1
  V  V32  1  0.11606350  0.30762460  0.89293313  1
  V  V33  1  0.91806607  0.91463561  0.47491513  1
  V  V34  1  0.51880849  0.62790162  0.13608663  1
  V  V35  1  0.18222745  0.40997717  0.61980647  1
  V  V36  1  0.27097672  0.85090818  0.50148359  1
  V  V37  1  0.74003517  0.53122751  0.22832430  1
  V  V38  1  0.46888949  0.08651061  0.67339114  1
  V  V39  1  0.28902735  0.22529654  0.48230704  1
  V  V40  1  -0.04418346  0.13982224  0.12853224  1
  V  V41  1  0.12908713  0.33772308  0.21534088  1
  V  V42  1  0.65150458  0.81271712  0.26057894  1
  V  V43  1  0.89360006  0.77254594  0.13568901  1
  V  V44  1  0.91118641  0.52064407  0.92264127  1
  V  V45  1  0.38714951  0.51440351  0.88226383  1
  V  V46  1  0.62066682  -0.04809214  0.11988480  1
  V  V47  1  0.26275660  0.08513576  0.30420667  1
  V  V48  1  0.63218977  0.51129727  0.07555803  1
  V  V49  1  0.00618464  0.62038627  0.13722348  1
  V  V50  1  0.12769522  0.04548094  0.70195654  1
  Zn  Zn51  1  0.20350815  0.94337184  1.00921739  1
  Zn  Zn52  1  0.54067853  0.03857846  0.31063817  1
  Zn  Zn53  1  0.77596917  0.63890306  0.62791787  1
  Zn  Zn54  1  0.21035433  0.46203223  0.96771922  1
  Zn  Zn55  1  0.69160973  0.20560615  0.15729887  1
  Zn  Zn56  1  0.71046980  0.68559918  0.14923212  1
  Zn  Zn57  1  0.13230970  0.24006491  0.71961761  1
  Zn  Zn58  1  1.02286395  0.76171038  0.44513427  1
  Zn  Zn59  1  0.52330886  0.52443728  0.74661149  1
  Zn  Zn60  1  0.07993348  0.03188365  0.89581784  1
  Zn  Zn61  1  0.83134741  0.80601411  0.32657621  1
  Zn  Zn62  1  0.85554644  0.53836814  0.51311393  1
  Zn  Zn63  1  0.07060425  0.64442992  0.32346832  1
  Zn  Zn64  1  0.06020371  0.30864552  0.05112071  1
  Zn  Zn65  1  0.30195423  0.21531211  0.07031678  1
  Zn  Zn66  1  0.15930401  0.68603436  0.72324185  1
  Zn  Zn67  1  0.51254920  0.82826949  0.13487238  1
  Zn  Zn68  1  0.79053507  0.44952730  0.35390102  1
  Zn  Zn69  1  1.02376045  0.04442102  0.54006301  1
  Zn  Zn70  1  0.97019136  0.19571680  0.94139246  1
  Zn  Zn71  1  0.82918143  0.58935912  0.08066942  1
  Zn  Zn72  1  0.05551913  0.80310819  0.61024454  1
  Zn  Zn73  1  0.57051259  0.57559941  0.31691962  1
  Zn  Zn74  1  0.79163372  0.75602476  0.77443499  1
  Zn  Zn75  1  0.95207926  0.70770375  0.96794191  1
  Zn  Zn76  1  0.14794017  0.95653748  0.40774173  1
  Zn  Zn77  1  0.40166835  0.08775629  0.40055902  1
  Zn  Zn78  1  0.30299466  0.27160694  0.31390229  1
  Zn  Zn79  1  0.38418173  0.93377731  0.62415562  1
  Zn  Zn80  1  0.19296920  0.68310401  0.20262741  1
  Zn  Zn81  1  0.32882697  0.56338368  0.05844250  1
  Zn  Zn82  1  0.15343270  0.13636978  0.15760161  1
  Zn  Zn83  1  0.09311669  0.79850473  0.09821126  1
  Zn  Zn84  1  0.63233838  0.87797812  0.97300767  1
  Zn  Zn85  1  0.47009386  0.25260959  0.41803159  1
  Zn  Zn86  1  0.25227539  0.57528115  0.61539840  1
  Zn  Zn87  1  0.60093824  0.69736559  0.01061933  1
  Zn  Zn88  1  0.33613402  0.74999401  0.35061708  1
  Zn  Zn89  1  0.25919797  0.41257863  0.43110072  1
  Zn  Zn90  1  0.27771014  0.79013339  0.81747547  1
  Zn  Zn91  1  0.57257310  0.55878500  0.89974086  1
  Zn  Zn92  1  0.42847792  0.66655329  0.95880029  1
  Zn  Zn93  1  0.58786433  0.00944679  0.82561848  1
  Zn  Zn94  1  0.43775324  0.24180979  0.59557334  1
  Zn  Zn95  1  0.48824780  0.80053076  0.54972463  1
  Zn  Zn96  1  0.82226599  0.39806049  0.81538615  1
  Zn  Zn97  1  0.10001638  0.26562633  0.55492991  1
  Zn  Zn98  1  0.94170827  0.43264271  0.17439829  1
  Zn  Zn99  1  0.54800496  0.37247231  0.15731733  1
  Zn  Zn100  1  0.27726696  0.04313007  0.57995331  1
  Zn  Zn101  1  0.03719906  0.50842086  0.79008178  1
  O  O102  1  0.05318829  0.09659614  0.12945947  1
  O  O103  1  0.15687477  0.13690842  0.69636884  1
  O  O104  1  0.12230912  0.62742643  0.13026807  1
  O  O105  1  0.14879512  0.62790416  0.63389750  1
  O  O106  1  0.73593472  0.16693589  0.05894112  1
  O  O107  1  0.52898239  0.08501921  0.59619425  1
  O  O108  1  0.63343087  0.61964773  0.09796870  1
  O  O109  1  0.61834043  0.69100748  0.61111716  1
  O  O110  1  0.36613504  0.38215860  0.30709505  1
  O  O111  1  0.36798353  0.41832649  0.91077964  1
  O  O112  1  0.33785515  0.82647967  0.43738236  1
  O  O113  1  0.33023246  1.01721385  0.88881363  1
  O  O114  1  0.87317748  0.48559800  0.41526388  1
  O  O115  1  0.86766742  0.42019463  0.91706241  1
  O  O116  1  0.88754793  0.87995117  0.38811017  1
  O  O117  1  0.95888310  0.90651533  0.80317316  1
  O  O118  1  0.22097415  0.02397535  0.36451893  1
  O  O119  1  0.44146436  0.12591755  1.01968428  1
  O  O120  1  0.24988751  0.50464404  0.38288107  1
  O  O121  1  0.26188963  0.52514870  0.88895901  1
  O  O122  1  0.64706014  0.01176844  0.31628710  1
  O  O123  1  0.79170103  0.06060035  0.76632764  1
  O  O124  1  0.76597269  0.56417188  0.32559226  1
  O  O125  1  0.77494317  0.54755374  0.85372104  1
  O  O126  1  0.26968583  0.55519683  0.16933179  1
  O  O127  1  0.24679932  0.47648477  0.66811172  1
  O  O128  1  0.32025128  1.01483992  0.05452211  1
  O  O129  1  0.21324463  0.98743219  0.67138606  1
  O  O130  1  0.73631107  0.49780358  0.11116971  1
  O  O131  1  0.71075543  0.56064545  0.66418883  1
  O  O132  1  0.72078700  0.97574146  0.16940441  1
  O  O133  1  0.79427520  1.03541241  0.59516226  1
  O  O134  1  0.03026786  0.34778644  0.18326233  1
  O  O135  1  -0.00032347  0.40974015  0.76251640  1
  O  O136  1  -0.03186419  0.96426890  0.27436821  1
  O  O137  1  0.04671349  0.72376426  0.84179241  1
  O  O138  1  0.40014091  0.40356281  0.24143635  1
  O  O139  1  0.59874070  0.30783199  0.75941248  1
  O  O140  1  0.54384487  0.84339563  0.24614809  1
  O  O141  1  0.54252684  0.86311893  0.73718721  1
  O  O142  1  0.48769179  0.10821091  0.23517505  1
  O  O143  1  0.51737529  0.04943301  0.75252311  1
  O  O144  1  0.52151397  0.63363101  0.22979042  1
  O  O145  1  0.46182296  0.61672228  0.73381617  1
  O  O146  1  0.97949279  0.15060802  0.22527004  1
  O  O147  1  0.93238344  0.05934873  0.86001519  1
  O  O148  1  1.01661896  0.65511729  0.22501722  1
  O  O149  1  0.96878700  0.59008023  0.75395721  1
  O  O150  1  0.33321269  0.29810017  0.01108500  1
  O  O151  1  0.37452554  0.18968970  0.43485491  1
  O  O152  1  0.36079914  0.73219440  0.01474690  1
  O  O153  1  0.27050899  0.76984179  0.56740261  1
  O  O154  1  0.88859644  0.27294210  -0.02924050  1
  O  O155  1  0.76795921  0.43949194  0.52870877  1
  O  O156  1  0.86703519  0.76964853  0.00630382  1
  O  O157  1  0.91970628  0.74873707  0.48672715  1
  O  O158  1  0.18467565  0.23872120  0.48414090  1
  O  O159  1  0.13021013  0.25612885  0.97856669  1
  O  O160  1  0.08470587  0.72467384  0.53256549  1
  O  O161  1  0.15530130  0.73611581  1.02800878  1
  O  O162  1  0.50800653  0.20934646  0.51560358  1
  O  O163  1  0.74945607  0.15088215  0.91384403  1
  O  O164  1  0.59675154  0.73010033  0.55588526  1
  O  O165  1  0.67103331  0.77519607  0.99121297  1
  O  O166  1  0.52123896  0.26233205  0.13890827  1
  O  O167  1  0.44857764  0.18123635  0.68668525  1
  O  O168  1  0.53070111  0.72162307  0.09935656  1
  O  O169  1  0.41823564  0.75719252  0.61533083  1
  O  O170  1  1.00946102  0.22030448  0.08811228  1
  O  O171  1  0.88521133  0.15660781  0.69094981  1
  O  O172  1  0.98415460  0.79521648  0.10993468  1
  O  O173  1  0.96491916  0.75010929  0.63938477  1
  O  O174  1  -0.06222079  0.27585485  0.38145250  1
  O  O175  1  0.01352120  0.29106578  0.87195160  1
  O  O176  1  0.06725453  0.75707900  0.34675131  1
  O  O177  1  0.02475316  0.77048609  0.89732909  1
  O  O178  1  0.48411795  0.24342390  0.30473323  1
  O  O179  1  0.46080776  0.30118216  0.85004284  1
  O  O180  1  0.44680615  0.78066148  0.34053260  1
  O  O181  1  0.41439022  0.86129760  0.87670216  1
  O  O182  1  0.25417269  0.12080096  0.50707490  1
  O  O183  1  0.23060387  0.15880840  0.90755934  1
  O  O184  1  0.21878151  0.59009688  0.51124140  1
  O  O185  1  0.24838197  0.62798552  1.00426964  1
  O  O186  1  0.64472208  0.13953055  0.49148321  1
  O  O187  1  0.75934945  0.03723061  0.99552302  1
  O  O188  1  0.76283942  0.60331971  0.48139481  1
  O  O189  1  0.76606871  0.64765909  1.00498630  1
  O  O190  1  0.29872431  0.45250784  0.04350071  1
  O  O191  1  0.29435182  0.31288656  0.41772867  1
  O  O192  1  0.25753952  0.85062647  0.01354505  1
  O  O193  1  0.18351966  0.86296606  0.46174966  1
  O  O194  1  0.76291530  0.35958821  0.01734137  1
  O  O195  1  0.70527593  0.41550591  0.41741525  1
  O  O196  1  0.72136429  0.89999947  0.04758138  1
  O  O197  1  0.81350901  0.90959723  0.51334997  1
  O  O198  1  0.14113268  0.43428236  0.22203621  1
  O  O199  1  0.14502299  0.50928701  0.78085099  1
  O  O200  1  0.29981506  0.92564784  0.19286973  1
  O  O201  1  0.10025920  1.02117114  0.79138725  1
  O  O202  1  0.64375518  0.53284656  0.23654228  1
  O  O203  1  0.62399715  0.55074903  0.79682773  1
  O  O204  1  0.56308480  0.99584528  0.17727936  1
  O  O205  1  0.67966887  0.95883676  0.75353611  1
  O  O206  1  0.36936831  -0.00068771  0.10339864  1
  O  O207  1  0.37489190  0.01446364  0.83585485  1
  O  O208  1  0.29877083  0.51066624  0.21627334  1
  O  O209  1  0.34808718  0.52528106  0.77543684  1
  O  O210  1  0.80329698  0.02326073  0.30120455  1
  O  O211  1  0.83312496  0.00404626  0.76539635  1
  O  O212  1  0.94570470  0.44895040  0.28205232  1
  O  O213  1  0.85042925  0.52571489  0.82391686  1
  O  O214  1  0.09357514  0.32877207  0.30515686  1
  O  O215  1  0.14054379  0.39663366  0.91779303  1
  O  O216  1  0.11853691  0.90395314  0.31450288  1
  O  O217  1  0.03086392  0.93152335  1.01973006  1
  O  O218  1  0.54894924  0.38510491  0.26437557  1
  O  O219  1  0.64144428  0.31261860  0.81497994  1
  O  O220  1  0.62229378  0.81607941  0.35670437  1
  O  O221  1  0.71309318  0.89878752  0.78445639  1
  O  O222  1  0.37748238  0.23016541  0.15498865  1
  O  O223  1  0.37986008  0.04239186  0.64774856  1
  O  O224  1  0.41216961  0.62873847  0.11800264  1
  O  O225  1  0.32195669  0.64669153  0.66175166  1
  O  O226  1  0.88233839  0.20337885  0.14288723  1
  O  O227  1  0.86529883  0.19552730  0.63690010  1
  O  O228  1  0.91075844  0.66600984  0.11454108  1
  O  O229  1  0.88584349  0.61766644  0.58431482  1
  O  O230  1  0.21162068  0.15945468  0.06522282  1
  O  O231  1  0.32934965  0.25657387  0.56457370  1
  O  O232  1  0.26602441  0.72618814  0.12498899  1
  O  O233  1  0.23080484  0.77023132  0.71123391  1
  O  O234  1  0.73019304  0.30549564  0.15872734  1
  O  O235  1  0.67015222  0.26691067  0.60811800  1
  O  O236  1  0.77451433  0.76795735  0.11638334  1
  O  O237  1  0.80495469  0.74465777  0.61027417  1
  O  O238  1  0.25295338  0.17775320  0.34002660  1
  O  O239  1  0.16653327  0.27360337  0.81884117  1
  O  O240  1  0.22994846  0.78729122  0.32015212  1
  O  O241  1  0.25105117  0.73573920  0.90685248  1
  O  O242  1  0.75838215  0.25724744  0.45257510  1
  O  O243  1  0.72934658  0.19804436  0.73614274  1
  O  O244  1  0.77548646  0.72026469  0.37022647  1
  O  O245  1  0.77360113  0.74753200  0.88401146  1
  O  O246  1  -0.05789221  0.12209744  0.02721227  1
  O  O247  1  0.06881969  0.16068513  0.53544931  1
  O  O248  1  0.02871804  0.64601703  0.02531582  1
  O  O249  1  0.05553098  0.55749383  0.52951954  1
  O  O250  1  0.62210749  0.18161482  0.00233262  1
  O  O251  1  0.41632795  0.00834460  0.47564627  1
  O  O252  1  0.53410433  0.65271813  -0.06076275  1
  O  O253  1  0.49967900  0.59997014  0.52309547  1
  O  O254  1  0.48103032  0.36077739  0.40780184  1
  O  O255  1  0.47507950  0.38984883  1.01389369  1
  O  O256  1  0.52006476  0.84365148  0.45722081  1
  O  O257  1  0.43190689  0.89402584  0.93588163  1
  O  O258  1  1.03189583  0.34808775  0.53614012  1
  O  O259  1  0.97988981  0.37755471  1.02569510  1
  O  O260  1  1.01031053  0.89182858  0.54183896  1
  O  O261  1  1.10237421  0.90214004  1.04769589  1
  O  O262  1  0.49272267  0.50620273  0.34610783  1
  O  O263  1  0.48267130  0.50388532  0.85136903  1
  O  O264  1  0.49505990  0.94195989  0.36136651  1
  O  O265  1  0.58732458  0.92748497  0.89095999  1
  O  O266  1  1.03073917  0.44808604  0.42893843  1
  O  O267  1  1.00241401  0.50261183  0.90172262  1
  O  O268  1  1.02312140  0.87857790  0.46107271  1
  O  O269  1  1.02608198  0.94386987  0.94638294  1
  O  O270  1  -0.09285626  0.05864058  0.13838549  1
  O  O271  1  0.04906672  0.03337819  0.64516671  1
  O  O272  1  -0.01194151  0.52757545  0.14255349  1
  O  O273  1  0.09362481  0.45344641  0.62015132  1
  O  O274  1  0.55493702  -0.09808115  0.05853255  1
  O  O275  1  0.47816155  -0.08944747  0.57513393  1
  O  O276  1  0.53302204  0.52840990  0.10517363  1
  O  O277  1  0.53854068  0.44824236  0.66816055  1
  O  O278  1  0.22640647  0.32661742  0.24021963  1
  O  O279  1  0.25394022  0.39874236  0.79749661  1
  O  O280  1  0.23678279  0.92399121  0.16180248  1
  O  O281  1  0.22084369  0.88948916  0.80026067  1
  O  O282  1  0.77938283  0.44030269  0.24340297  1
  O  O283  1  0.73851816  0.44240979  0.75861143  1
  O  O284  1  0.74751059  0.84811743  0.25648518  1
  O  O285  1  0.74599347  0.85070798  0.73141785  1
  O  O286  1  0.22385766  0.07893349  0.21251407  1
  O  O287  1  0.34882928  0.18479525  0.80857327  1
  O  O288  1  0.18490747  0.62322643  0.29525674  1
  O  O289  1  0.23665479  0.63382042  0.79071501  1
  O  O290  1  0.71088539  0.12883917  0.22740737  1
  O  O291  1  0.75324102  0.08673582  0.61939542  1
  O  O292  1  0.78598961  0.60815750  0.18314049  1
  O  O293  1  0.79478599  0.63888374  0.74836263  1
  O  O294  1  0.35951342  0.06067443  0.30456037  1
  O  O295  1  0.38623330  0.17496176  0.86666399  1
  O  O296  1  0.30219411  0.65524831  0.39857243  1
  O  O297  1  0.36950294  0.62983979  0.86551066  1
  O  O298  1  0.80492697  0.23112454  0.49844000  1
  O  O299  1  0.91231426  0.12814985  0.85721489  1
  O  O300  1  0.98532846  0.58343245  0.35838867  1
  O  O301  1  0.90936909  0.62744819  0.89809401  1
  O  O302  1  0.14962710  0.33970126  0.11387107  1
  O  O303  1  0.16779038  0.31398869  0.64284709  1
  O  O304  1  -0.00506865  0.93556955  0.21679086  1
  O  O305  1  0.12679053  0.86325960  0.66646121  1
  O  O306  1  0.63289531  0.41073965  0.10197300  1
  O  O307  1  0.67303216  0.32249035  0.56759616  1
  O  O308  1  0.64593339  0.85550216  0.16045578  1
  O  O309  1  0.57796200  0.82558772  0.68978863  1
  O  O310  1  0.13104398  0.23565012  0.20339654  1
  O  O311  1  0.01942630  0.26061398  0.71177639  1
  O  O312  1  0.13220402  0.78354731  0.20057164  1
  O  O313  1  0.09185269  0.75509383  0.79031501  1
  O  O314  1  0.57588297  0.21309588  0.17656318  1
  O  O315  1  0.67010463  0.16263698  0.72932741  1
  O  O316  1  0.65644413  0.71982731  0.23933577  1
  O  O317  1  0.60645275  0.74138668  0.79006752  1
  O  O318  1  0.35687978  0.20760920  0.23049364  1
  O  O319  1  0.42598391  0.31635730  0.79139190  1
  O  O320  1  0.35122341  0.69733605  0.24632196  1
  O  O321  1  0.36524189  0.73742386  0.76304044  1
  O  O322  1  0.88613269  0.29208180  0.33564400  1
  O  O323  1  0.87726578  0.31304368  0.77590785  1
  O  O324  1  0.88925268  0.77214141  0.23089916  1
  O  O325  1  0.90434306  0.73074656  0.78418758  1
  O  O326  1  0.48196882  0.39348688  0.66456085  1
  O  O327  1  0.40267836  0.54923696  0.97453870  1
  O  O328  1  0.29568688  0.93699936  0.54482237  1
  O  O329  1  0.45736671  1.07327331  0.97589000  1
  O  O330  1  0.93361818  0.46381508  0.55866484  1
  O  O331  1  0.89494273  0.52805682  1.01713876  1
  O  O332  1  0.93562544  1.00973004  0.47928377  1
  O  O333  1  0.91019116  0.89193413  0.84969884  1
  O  O334  1  0.16801494  0.03639197  -0.02663460  1
  O  O335  1  0.12231937  0.02998453  0.48752927  1
  O  O336  1  0.13962893  0.52781039  0.02216617  1
  O  O337  1  0.21097476  0.41214089  0.52922569  1
  O  O338  1  0.64152440  0.04164419  0.04122846  1
  O  O339  1  0.57302938  0.00224508  0.48837176  1
  O  O340  1  0.63312008  0.51015094  -0.01949786  1
  O  O341  1  0.55885214  0.56167347  0.52522461  1
  O  O342  1  0.44517029  0.39074297  0.08947143  1
  O  O343  1  0.49634245  0.34462884  0.60937702  1
  O  O344  1  0.40571866  0.80490381  0.15322554  1
  O  O345  1  0.32107492  0.86340519  0.67868933  1
  O  O346  1  0.86106473  0.38946354  0.11172678  1
  O  O347  1  0.70509966  0.44509367  0.49055512  1
  O  O348  1  0.85576014  0.88055051  0.13109200  1
  O  O349  1  0.86422980  0.89420253  0.56919723  1
  O  O350  1  0.10924790  0.14415631  0.38548138  1
  O  O351  1  0.06695204  0.13727022  0.93114327  1
  O  O352  1  0.12897732  0.63392533  0.42357327  1
  O  O353  1  0.13734291  0.62848127  0.90846522  1
  O  O354  1  0.51713832  0.11046704  0.39964055  1
  O  O355  1  0.63720626  0.08074922  0.90252811  1
  O  O356  1  0.63580159  0.63384854  0.38363264  1
  O  O357  1  0.56825055  0.78527565  0.82902185  1
