# generated using pymatgen
data_V51Zn51O256
_symmetry_space_group_name_H-M   'P 1'
_cell_length_a   17.36974695
_cell_length_b   16.94577543
_cell_length_c   17.79174245
_cell_angle_alpha   87.63434443
_cell_angle_beta   88.67350865
_cell_angle_gamma   91.28692190
_symmetry_Int_Tables_number   1
_chemical_formula_structural   V51Zn51O256
_chemical_formula_sum   'V51 Zn51 O256'
_cell_volume   5229.58692164
_cell_formula_units_Z   1
loop_
 _symmetry_equiv_pos_site_id
 _symmetry_equiv_pos_as_xyz
  1  'x, y, z'
loop_
 _atom_site_type_symbol
 _atom_site_label
 _atom_site_symmetry_multiplicity
 _atom_site_fract_x
 _atom_site_fract_y
 _atom_site_fract_z
 _atom_site_occupancy
  V  V0  1  0.00296295  0.00249315  0.00667561  1
  V  V1  1  0.14449578  0.27857690  0.88993763  1
  V  V2  1  0.87516430  0.62016867  0.73999757  1
  V  V3  1  0.17823598  0.12715079  0.54855122  1
  V  V4  1  0.62571192  0.03202652  0.13324936  1
  V  V5  1  0.01611433  0.88351569  0.88620796  1
  V  V6  1  0.59422849  0.23421440  0.39199494  1
  V  V7  1  0.24928290  0.61651038  0.76088399  1
  V  V8  1  -0.04427299  -0.02861823  0.46879649  1
  V  V9  1  0.87641373  0.10506313  0.26347598  1
  V  V10  1  0.37952984  0.00413399  0.89584672  1
  V  V11  1  -0.01017107  0.30853618  0.44082867  1
  V  V12  1  0.61048974  -0.00212065  0.59106275  1
  V  V13  1  0.62250649  0.40775575  0.14675551  1
  V  V14  1  0.85620579  0.88725155  0.00222556  1
  V  V15  1  0.26775951  0.39210641  0.67501306  1
  V  V16  1  0.12598902  0.20497780  0.38800829  1
  V  V17  1  0.52517332  0.76501632  0.78521254  1
  V  V18  1  0.92399461  0.15086689  0.79515487  1
  V  V19  1  0.50059606  0.66348888  0.20831713  1
  V  V20  1  0.48916662  0.87087941  0.38808329  1
  V  V21  1  0.73342458  0.24959680  -0.04787997  1
  V  V22  1  0.72798419  0.88247346  0.12201784  1
  V  V23  1  0.25167437  0.12936784  0.88243786  1
  V  V24  1  0.49830791  0.03727736  0.02157810  1
  V  V25  1  0.31121016  0.25927379  0.13094586  1
  V  V26  1  -0.00651615  0.39634650  0.88292006  1
  V  V27  1  0.84954891  0.03011327  0.88767700  1
  V  V28  1  0.72984239  0.75756075  -0.01102387  1
  V  V29  1  0.39078863  0.45312201  0.36702420  1
  V  V30  1  0.38289464  0.38817560  0.02342970  1
  V  V31  1  0.74377698  -0.00363767  0.26479793  1
  V  V32  1  -0.00182949  0.75905486  0.77586303  1
  V  V33  1  0.38385072  0.86980617  0.03318803  1
  V  V34  1  0.83210940  0.79369007  0.67304016  1
  V  V35  1  0.83619380  0.81792593  0.48399665  1
  V  V36  1  0.87299589  0.53551004  0.91533629  1
  V  V37  1  0.33117834  0.12205279  0.24432867  1
  V  V38  1  0.08901517  0.39409627  0.30102684  1
  V  V39  1  0.58329620  0.64919790  0.00460831  1
  V  V40  1  -0.00253147  0.12577431  0.13010532  1
  V  V41  1  0.11888500  -0.00446404  0.65745395  1
  V  V42  1  0.26134248  -0.00733595  0.76567986  1
  V  V43  1  0.52451783  0.88775069  0.89416955  1
  V  V44  1  0.86509131  0.23766095  0.13839076  1
  V  V45  1  0.52107545  0.62034149  0.53563136  1
  V  V46  1  0.14069322  0.62341421  -0.01225674  1
  V  V47  1  0.73803099  0.50343201  0.78978921  1
  V  V48  1  0.13596836  0.12257290  0.01590641  1
  V  V49  1  0.87709406  0.36784139  0.02977240  1
  V  V50  1  0.85572498  0.61476046  0.22224339  1
  Zn  Zn51  1  0.69998002  0.40288928  0.30290221  1
  Zn  Zn52  1  0.56460122  0.31051994  0.01389407  1
  Zn  Zn53  1  0.46423593  0.43116651  0.63231162  1
  Zn  Zn54  1  0.19772788  0.20087420  0.71422370  1
  Zn  Zn55  1  0.72967282  0.45285325  0.98581656  1
  Zn  Zn56  1  0.91653265  0.94069149  0.17714766  1
  Zn  Zn57  1  0.12511126  0.32979616  0.53899451  1
  Zn  Zn58  1  0.18804912  0.94518447  0.94913946  1
  Zn  Zn59  1  0.40141851  0.20198810  0.96901038  1
  Zn  Zn60  1  0.15857691  0.17283288  0.20302554  1
  Zn  Zn61  1  0.94517689  0.43659861  0.18514471  1
  Zn  Zn62  1  0.64690793  0.15938883  0.65283156  1
  Zn  Zn63  1  0.55174460  0.81876456  0.07542727  1
  Zn  Zn64  1  0.44400594  0.94946226  0.71907804  1
  Zn  Zn65  1  0.40143116  0.60356627  0.06530829  1
  Zn  Zn66  1  0.56237644  0.29645710  0.58886491  1
  Zn  Zn67  1  0.54963791  0.56641912  0.74124987  1
  Zn  Zn68  1  0.68483270  0.67889296  0.14577683  1
  Zn  Zn69  1  0.07892084  0.05949626  0.82813806  1
  Zn  Zn70  1  0.96394186  0.70216511  0.97582279  1
  Zn  Zn71  1  0.82264528  0.31905193  0.79350143  1
  Zn  Zn72  1  0.42925151  0.46424000  0.16592266  1
  Zn  Zn73  1  0.22488091  0.50864291  0.47612154  1
  Zn  Zn74  1  0.92643106  0.62974644  0.54833098  1
  Zn  Zn75  1  0.43920019  0.95376471  0.19784289  1
  Zn  Zn76  1  0.19711094  0.80855963  0.72090882  1
  Zn  Zn77  1  0.35327755  0.03466912  0.57547798  1
  Zn  Zn78  1  0.41317323  0.70268819  0.37543731  1
  Zn  Zn79  1  -0.02648989  0.88923769  0.62717347  1
  Zn  Zn80  1  0.06264749  0.56715273  0.80337046  1
  Zn  Zn81  1  0.21462145  0.64830065  0.16336557  1
  Zn  Zn82  1  0.65891237  0.23158570  0.18413983  1
  Zn  Zn83  1  0.80356749  0.08028282  0.05644365  1
  Zn  Zn84  1  0.66463604  0.56732224  0.29186868  1
  Zn  Zn85  1  0.02204726  0.53074174  0.40949486  1
  Zn  Zn86  1  0.90504358  0.15048043  0.45995413  1
  Zn  Zn87  1  0.26632812  0.30821933  0.29650791  1
  Zn  Zn88  1  0.24775170  0.45937613  0.88522955  1
  Zn  Zn89  1  0.07544204  0.73926484  0.12122194  1
  Zn  Zn90  1  0.36736086  0.50701638  0.76542051  1
  Zn  Zn91  1  0.68013707  0.97734080  0.95691361  1
  Zn  Zn92  1  0.79814839  0.80668026  0.29230115  1
  Zn  Zn93  1  0.88312245  0.67827617  0.40200466  1
  Zn  Zn94  1  0.77322029  0.00617656  0.45622598  1
  Zn  Zn95  1  0.11264714  1.00174913  0.44539003  1
  Zn  Zn96  1  0.78293503  0.85018235  0.82926616  1
  Zn  Zn97  1  0.86580001  0.29257677  0.32521606  1
  Zn  Zn98  1  0.43607363  0.14061477  0.41297766  1
  Zn  Zn99  1  0.96696973  0.21346454  0.96116297  1
  Zn  Zn100  1  0.34912083  0.56893687  0.59305587  1
  Zn  Zn101  1  0.31438067  0.04873307  0.09574334  1
  O  O102  1  0.10481726  0.11831248  0.12093817  1
  O  O103  1  0.15178051  0.12107453  0.64837550  1
  O  O104  1  0.15117082  0.58396716  0.07881574  1
  O  O105  1  0.17991697  0.74168581  0.50240595  1
  O  O106  1  0.63366395  0.12964533  0.14176937  1
  O  O107  1  0.63786570  0.10400514  0.55713594  1
  O  O108  1  0.61542919  0.61307019  0.08902621  1
  O  O109  1  0.58151872  0.56176346  0.48603963  1
  O  O110  1  0.35694134  0.35734327  0.34179802  1
  O  O111  1  0.32452662  0.41589080  0.95216503  1
  O  O112  1  0.39376775  0.81444232  0.39830005  1
  O  O113  1  0.36678400  0.90576300  0.92323795  1
  O  O114  1  0.89248730  0.26582829  0.42871920  1
  O  O115  1  0.90794138  0.37277350  0.84743204  1
  O  O116  1  0.85766698  0.79085007  0.37892292  1
  O  O117  1  0.84889638  0.92059487  0.88991229  1
  O  O118  1  0.17476329  -0.07520708  0.38646810  1
  O  O119  1  0.25952188  0.00644996  0.88265892  1
  O  O120  1  0.28741648  0.46882128  0.39581956  1
  O  O121  1  0.29222344  0.55842715  0.83698430  1
  O  O122  1  0.73187349  -0.02036257  0.35836408  1
  O  O123  1  0.75470924  0.04440578  0.89486223  1
  O  O124  1  0.80354877  0.37713862  0.30505829  1
  O  O125  1  0.76056001  0.50889750  0.89044892  1
  O  O126  1  0.15462553  0.44470693  0.14048012  1
  O  O127  1  0.31775079  0.59385436  0.69017973  1
  O  O128  1  0.24880493  0.94106373  0.09973958  1
  O  O129  1  0.28745850  1.02243474  0.67667361  1
  O  O130  1  0.65366452  0.45113137  0.06140709  1
  O  O131  1  0.89663915  0.45768228  0.56753517  1
  O  O132  1  0.73099344  1.00382234  0.11191757  1
  O  O133  1  0.69202554  0.97776966  0.53300818  1
  O  O134  1  -0.03595317  0.38218955  0.35001363  1
  O  O135  1  0.05077515  0.44863948  0.81823255  1
  O  O136  1  -0.01218425  0.85050923  0.21699033  1
  O  O137  1  -0.00102091  0.88295606  0.79290686  1
  O  O138  1  0.52783685  0.41821803  0.16793622  1
  O  O139  1  0.56915507  0.40982383  0.59003651  1
  O  O140  1  0.47459986  0.90106893  0.28675439  1
  O  O141  1  0.49166125  0.88984762  0.79869290  1
  O  O142  1  0.47633680  0.15376742  0.20751114  1
  O  O143  1  0.44128798  0.20425491  0.81350261  1
  O  O144  1  0.56396827  0.60307684  0.27346006  1
  O  O145  1  0.55653706  0.59763639  0.62746432  1
  O  O146  1  0.97885318  0.09218957  0.22384676  1
  O  O147  1  1.01989135  0.14079215  0.77728269  1
  O  O148  1  0.95357041  0.62912661  0.24000137  1
  O  O149  1  0.98678590  0.65107943  0.77985303  1
  O  O150  1  0.34392957  0.27186822  0.02903547  1
  O  O151  1  0.34169885  0.22021995  0.46174805  1
  O  O152  1  0.36537662  0.77643215  0.02400377  1
  O  O153  1  0.31387597  0.68016217  0.41331656  1
  O  O154  1  0.88749735  0.25551054  0.03102850  1
  O  O155  1  0.88552796  0.22540423  0.58627779  1
  O  O156  1  0.84537406  0.78822369  -0.01023602  1
  O  O157  1  0.86818788  0.71876482  0.50763283  1
  O  O158  1  0.16323854  0.22842105  0.53077732  1
  O  O159  1  0.13010898  0.22183602  0.99207264  1
  O  O160  1  0.16762537  0.75878940  0.57006707  1
  O  O161  1  0.11203104  0.72542826  1.00680359  1
  O  O162  1  0.56215011  0.27368355  0.47987054  1
  O  O163  1  0.63655200  0.26874876  0.94675863  1
  O  O164  1  0.75978423  0.57065636  0.53300274  1
  O  O165  1  0.62101466  0.75413823  1.00942345  1
  O  O166  1  0.49862073  0.21832551  0.17915951  1
  O  O167  1  0.54027899  0.19465797  0.63979539  1
  O  O168  1  0.49802786  0.74423008  0.14376397  1
  O  O169  1  0.57873820  0.70406230  0.54405275  1
  O  O170  1  0.99230094  0.22417542  0.13253845  1
  O  O171  1  0.84705734  0.28470588  0.59182914  1
  O  O172  1  0.97995199  0.73708735  0.07535786  1
  O  O173  1  0.95454771  0.79148287  0.68711693  1
  O  O174  1  0.02306017  0.20739815  0.43861453  1
  O  O175  1  0.03376124  0.29305279  0.90038103  1
  O  O176  1  0.14820838  0.75262389  0.34221600  1
  O  O177  1  -0.01617367  0.77315367  0.88488035  1
  O  O178  1  0.48737993  0.24128493  0.37181750  1
  O  O179  1  0.44843311  0.25498055  0.87250910  1
  O  O180  1  0.51334879  0.77430789  0.34748820  1
  O  O181  1  0.53074326  0.78371373  0.88753717  1
  O  O182  1  0.27289802  0.10793655  0.54614420  1
  O  O183  1  0.23005600  0.09848763  1.02771165  1
  O  O184  1  0.28589074  0.59027328  0.51302055  1
  O  O185  1  0.22891415  0.67190682  0.97695216  1
  O  O186  1  0.79844071  0.10924733  0.47746381  1
  O  O187  1  0.74920826  0.16281462  1.00215674  1
  O  O188  1  0.73230012  0.52703748  0.58439188  1
  O  O189  1  0.74136287  0.66199124  0.99749585  1
  O  O190  1  0.21579336  0.43607463  0.10663523  1
  O  O191  1  0.19736958  0.41657622  0.55387417  1
  O  O192  1  0.26413980  0.90402371  0.03621392  1
  O  O193  1  0.27306424  0.88038827  0.51924162  1
  O  O194  1  0.77795217  0.34108445  -0.01295028  1
  O  O195  1  0.79583113  0.39377279  0.47062769  1
  O  O196  1  0.74392943  0.89523243  0.00892348  1
  O  O197  1  0.74353242  0.81392632  0.48823000  1
  O  O198  1  0.08390188  0.48972383  0.32943955  1
  O  O199  1  0.15876943  0.57939564  0.74492281  1
  O  O200  1  0.13467299  0.91260355  0.32042810  1
  O  O201  1  0.15308114  1.01041990  0.75985819  1
  O  O202  1  0.66070840  0.47618243  0.21853802  1
  O  O203  1  0.64183600  0.51360073  0.77720593  1
  O  O204  1  0.64454701  1.00219418  0.23128732  1
  O  O205  1  0.66126403  1.03916272  0.67237894  1
  O  O206  1  0.35860572  0.02953214  0.20270670  1
  O  O207  1  0.37817791  0.00613081  0.79514555  1
  O  O208  1  0.37987329  0.46397426  0.26408895  1
  O  O209  1  0.46725340  0.48894538  0.72591120  1
  O  O210  1  0.85670053  -0.00579243  0.24934952  1
  O  O211  1  0.87322713  0.05554550  0.78897662  1
  O  O212  1  0.85701674  0.51033528  0.21915951  1
  O  O213  1  0.88107804  0.54150118  0.81006273  1
  O  O214  1  0.08859201  0.32448183  0.38806875  1
  O  O215  1  0.17117336  0.37349587  0.89904415  1
  O  O216  1  0.27264413  0.80663639  0.27098097  1
  O  O217  1  0.11271026  0.87857011  0.90060877  1
  O  O218  1  0.62238236  0.33064828  0.36001225  1
  O  O219  1  0.62553443  0.33201693  0.74889789  1
  O  O220  1  0.58555929  0.88668283  0.39172046  1
  O  O221  1  0.61685705  0.91989291  0.88727111  1
  O  O222  1  0.34146137  0.15680163  0.12985956  1
  O  O223  1  0.33892522  0.25863217  0.51941185  1
  O  O224  1  0.30193938  0.62438204  0.10124591  1
  O  O225  1  0.42880999  0.66320719  0.56846340  1
  O  O226  1  0.87930661  0.12825002  0.12483839  1
  O  O227  1  0.80696565  0.12558715  0.66303793  1
  O  O228  1  0.86888051  0.63159758  0.12724465  1
  O  O229  1  0.91466362  0.60788398  0.65132261  1
  O  O230  1  0.21289532  0.25701874  0.13812395  1
  O  O231  1  0.25672257  0.29144255  0.66965619  1
  O  O232  1  0.18671074  0.75455797  0.13315805  1
  O  O233  1  0.22642245  0.75231854  0.61769086  1
  O  O234  1  0.77007692  0.23730277  0.14230081  1
  O  O235  1  0.66386275  0.26313967  0.60806814  1
  O  O236  1  0.73379000  0.77818013  0.10626615  1
  O  O237  1  0.76514773  0.73575784  0.64209601  1
  O  O238  1  0.21655354  0.24743017  0.37854540  1
  O  O239  1  0.24572385  0.22813753  0.90107061  1
  O  O240  1  0.30477782  0.76439059  0.22626087  1
  O  O241  1  0.38619044  0.75504730  0.70118602  1
  O  O242  1  0.67372396  0.20302555  0.43652831  1
  O  O243  1  0.76452531  0.24458450  0.86068629  1
  O  O244  1  0.70298872  0.73668728  0.34333879  1
  O  O245  1  0.72645893  0.78149200  0.89420049  1
  O  O246  1  0.01079053  0.11614809  0.01224622  1
  O  O247  1  -0.05240948  0.05860686  0.51365119  1
  O  O248  1  0.03701402  0.60781317  -0.00140150  1
  O  O249  1  -0.04417538  0.60647927  0.44841603  1
  O  O250  1  0.48706825  0.13550566  0.01376226  1
  O  O251  1  0.42772772  0.08997459  0.50786777  1
  O  O252  1  0.48584821  0.64900067  0.00646192  1
  O  O253  1  0.48526324  0.65099099  0.44571437  1
  O  O254  1  0.45884299  0.32296947  0.60566099  1
  O  O255  1  0.47116106  0.35598845  0.98906877  1
  O  O256  1  0.48717905  0.85453337  0.48469945  1
  O  O257  1  0.49324721  0.88177685  1.00041212  1
  O  O258  1  1.01474462  0.33474226  0.53023907  1
  O  O259  1  0.96882727  0.38234260  0.99534274  1
  O  O260  1  1.00679739  0.90453569  0.52332689  1
  O  O261  1  0.96698350  0.89437067  0.99090149  1
  O  O262  1  0.48826405  0.44345975  0.35874309  1
  O  O263  1  0.55606685  0.33755146  0.75929016  1
  O  O264  1  0.45170860  0.96475973  0.38984111  1
  O  O265  1  0.48473714  1.00872061  0.91296159  1
  O  O266  1  0.95548785  0.42053543  0.41894522  1
  O  O267  1  0.96636781  0.50006570  0.91774952  1
  O  O268  1  1.01557292  0.98898441  0.39155168  1
  O  O269  1  1.00434628  0.99746883  0.89560409  1
  O  O270  1  -0.01886254  0.00122901  0.10431599  1
  O  O271  1  0.02204073  -0.01431671  0.66697644  1
  O  O272  1  -0.01348432  0.52600623  0.13513901  1
  O  O273  1  0.14141912  0.58877870  0.59251822  1
  O  O274  1  0.51675392  0.01329438  0.12810681  1
  O  O275  1  0.53288873  0.00811422  0.65897401  1
  O  O276  1  0.45977659  0.58447757  0.16204220  1
  O  O277  1  0.45739463  0.53030081  0.55945615  1
  O  O278  1  0.18243373  0.37620553  0.27188796  1
  O  O279  1  0.27920868  0.41985562  0.76633268  1
  O  O280  1  0.17280827  0.92196810  0.25952408  1
  O  O281  1  0.26011390  0.89314305  0.76621598  1
  O  O282  1  0.68372076  0.34111742  0.21432226  1
  O  O283  1  0.76555172  0.41199715  0.76214103  1
  O  O284  1  0.75110834  0.88407139  0.22498201  1
  O  O285  1  0.79280767  0.86745930  0.72646576  1
  O  O286  1  0.23443654  0.10729487  0.25465587  1
  O  O287  1  0.25827899  0.12917432  0.78623050  1
  O  O288  1  0.24914528  0.58817674  0.24287452  1
  O  O289  1  0.24740768  0.71593262  0.77275668  1
  O  O290  1  0.76857158  0.10161439  0.25860494  1
  O  O291  1  0.75890840  0.16979703  0.69228764  1
  O  O292  1  0.74804538  0.60992610  0.21740987  1
  O  O293  1  0.77576431  0.58224594  0.72712818  1
  O  O294  1  0.37385728  0.11539391  0.33082151  1
  O  O295  1  0.35134255  0.11172167  0.91721101  1
  O  O296  1  0.39308590  0.55519387  0.36497127  1
  O  O297  1  0.51035052  0.66433264  0.77861663  1
  O  O298  1  0.89336009  0.10733805  0.35405920  1
  O  O299  1  0.90518342  0.14345478  0.89439346  1
  O  O300  1  0.84305143  0.60785206  0.32676092  1
  O  O301  1  0.88592971  0.62835901  0.94112523  1
  O  O302  1  0.02860463  0.37846235  0.22570718  1
  O  O303  1  0.18121084  0.43855728  0.63191721  1
  O  O304  1  0.04950055  0.84258388  0.17666184  1
  O  O305  1  0.14993158  0.90164894  0.65468611  1
  O  O306  1  0.60992468  0.30504882  0.11086573  1
  O  O307  1  0.73896248  0.38194345  0.51178842  1
  O  O308  1  0.62867718  0.89039649  0.12275102  1
  O  O309  1  0.61363735  0.89830110  0.61094579  1
  O  O310  1  0.10194054  0.18541583  0.29882210  1
  O  O311  1  0.14401616  0.25629942  0.79772194  1
  O  O312  1  0.10398739  0.65901919  0.19494894  1
  O  O313  1  0.09208021  0.76655024  0.75646796  1
  O  O314  1  0.62606419  0.21557676  0.29756941  1
  O  O315  1  0.62029472  0.16648278  0.77764978  1
  O  O316  1  0.60329727  0.70662548  0.21813606  1
  O  O317  1  0.60767220  0.78621256  0.74528258  1
  O  O318  1  0.33043264  0.24051197  0.23531081  1
  O  O319  1  0.42071709  0.23392315  0.75131945  1
  O  O320  1  0.42652466  0.68031092  0.27192828  1
  O  O321  1  0.44868130  0.79492281  0.70044807  1
  O  O322  1  0.88117531  0.22001273  0.24277659  1
  O  O323  1  0.89022843  0.23598864  0.75455494  1
  O  O324  1  0.83756333  0.72064394  0.22946461  1
  O  O325  1  0.85382367  0.71680198  0.76198051  1
  O  O326  1  0.40168563  0.42635170  0.46058878  1
  O  O327  1  0.40320311  0.48403259  1.05907589  1
  O  O328  1  0.29018765  0.94919833  0.49693122  1
  O  O329  1  0.39546708  1.00456491  1.02724359  1
  O  O330  1  1.09454778  0.59212439  0.54045129  1
  O  O331  1  0.84596509  0.47128300  1.00565746  1
  O  O332  1  0.85787569  0.93053808  0.45427412  1
  O  O333  1  0.87678372  1.01707148  0.99050750  1
  O  O334  1  0.10427166  -0.00149367  0.01061043  1
  O  O335  1  0.13392780  0.02152991  0.55348812  1
  O  O336  1  0.17312829  0.52889177  -0.03832186  1
  O  O337  1  0.11838567  0.54732764  0.46970393  1
  O  O338  1  0.60516707  0.02588749  0.02094992  1
  O  O339  1  0.54178892  0.00413562  0.52546619  1
  O  O340  1  0.60536221  0.55822653  -0.05560301  1
  O  O341  1  0.68814430  0.49018114  0.36656130  1
  O  O342  1  0.35319873  0.36088251  0.13057700  1
  O  O343  1  0.34606962  0.44098680  0.62452200  1
  O  O344  1  0.39890792  0.88006229  0.12796593  1
  O  O345  1  0.40230276  0.94685940  0.62284395  1
  O  O346  1  0.88128525  0.35841443  0.13118485  1
  O  O347  1  0.86205605  0.43859964  0.62672824  1
  O  O348  1  0.85004344  0.89411114  0.10192141  1
  O  O349  1  0.86148608  0.85090869  0.58679988  1
  O  O350  1  0.14809218  0.11298918  0.43986018  1
  O  O351  1  0.14722774  0.10593558  0.90576873  1
  O  O352  1  0.15562493  0.68233389  0.35721339  1
  O  O353  1  0.11750776  0.62777640  0.88848317  1
  O  O354  1  0.55652978  0.12827102  0.39882020  1
  O  O355  1  0.58452367  0.11140604  0.81236120  1
  O  O356  1  0.68971412  0.66561882  0.36745536  1
  O  O357  1  0.62225027  0.62532831  0.90323947  1
