# generated using pymatgen
data_V51Zn51O256
_symmetry_space_group_name_H-M   'P 1'
_cell_length_a   17.58344885
_cell_length_b   17.36467933
_cell_length_c   17.27249637
_cell_angle_alpha   89.71676960
_cell_angle_beta   89.56454332
_cell_angle_gamma   91.05625173
_symmetry_Int_Tables_number   1
_chemical_formula_structural   V51Zn51O256
_chemical_formula_sum   'V51 Zn51 O256'
_cell_volume   5272.71116089
_cell_formula_units_Z   1
loop_
 _symmetry_equiv_pos_site_id
 _symmetry_equiv_pos_as_xyz
  1  'x, y, z'
loop_
 _atom_site_type_symbol
 _atom_site_label
 _atom_site_symmetry_multiplicity
 _atom_site_fract_x
 _atom_site_fract_y
 _atom_site_fract_z
 _atom_site_occupancy
  V  V0  1  0.00025112  0.62427961  0.17637251  1
  V  V1  1  0.93114112  0.42165720  0.37989878  1
  V  V2  1  0.61470201  0.47614038  0.60590950  1
  V  V3  1  -0.01416581  0.88857754  0.35955666  1
  V  V4  1  0.87167772  0.21711814  0.65436850  1
  V  V5  1  0.62492216  0.11107607  -0.02190406  1
  V  V6  1  0.65129432  0.73594345  0.87138423  1
  V  V7  1  0.77756021  0.60390901  0.85755689  1
  V  V8  1  0.23412489  0.13630470  0.34468593  1
  V  V9  1  0.49899428  0.78157685  0.21179270  1
  V  V10  1  -0.04433279  0.12331919  0.12047973  1
  V  V11  1  0.78456271  0.36291809  0.62446600  1
  V  V12  1  0.86058987  0.02804972  0.36755835  1
  V  V13  1  0.00561728  0.03125070  0.48770586  1
  V  V14  1  0.61363550  -0.02622087  0.08081049  1
  V  V15  1  0.51349652  0.13213184  0.12531508  1
  V  V16  1  0.35289765  0.67915812  0.16186837  1
  V  V17  1  0.75382559  0.87747299  0.62819008  1
  V  V18  1  0.09756569  0.59316985  0.00208938  1
  V  V19  1  0.63615581  0.75267295  0.43540066  1
  V  V20  1  0.28219701  0.61037309  0.36479267  1
  V  V21  1  0.84996532  0.72817945  0.14840957  1
  V  V22  1  0.75313856  0.87448751  0.08427171  1
  V  V23  1  0.08008481  0.66614015  0.50140210  1
  V  V24  1  0.76025899  0.25326196  -0.00673603  1
  V  V25  1  0.09908789  0.27843023  0.89266369  1
  V  V26  1  0.72567707  0.12964884  0.36723306  1
  V  V27  1  0.07464682  0.39761195  0.25631721  1
  V  V28  1  0.50710457  0.66431618  0.76418682  1
  V  V29  1  0.38277183  -0.04492063  0.37356619  1
  V  V30  1  0.22087524  0.64358327  0.88069540  1
  V  V31  1  0.30466899  0.10127093  0.90204159  1
  V  V32  1  0.77538138  0.11188873  0.86612879  1
  V  V33  1  0.65277398  0.87653180  0.28998318  1
  V  V34  1  0.87887772  0.89251666  0.50267401  1
  V  V35  1  0.75566490  0.64232652  0.35499322  1
  V  V36  1  -0.01370325  -0.01151591  0.01271745  1
  V  V37  1  -0.02338902  0.24547168  0.23590336  1
  V  V38  1  0.13686695  0.79525321  0.35115076  1
  V  V39  1  0.74820814  0.70527691  0.01079740  1
  V  V40  1  0.54558724  0.36728473  0.91744605  1
  V  V41  1  0.18527061  0.78513783  -0.00438752  1
  V  V42  1  0.72215291  -0.00083259  0.74243291  1
  V  V43  1  0.65358350  0.36147531  0.75750446  1
  V  V44  1  0.75289326  0.23758687  0.51215808  1
  V  V45  1  0.02045567  0.12788383  0.64501332  1
  V  V46  1  0.23484993  0.49054746  0.22354720  1
  V  V47  1  -0.00385546  0.77221872  0.75564736  1
  V  V48  1  0.62246689  0.11207482  0.54753691  1
  V  V49  1  0.48853525  0.26218259  0.76629746  1
  V  V50  1  0.46712387  0.86712127  0.85789049  1
  Zn  Zn51  1  0.58767661  0.27556106  0.61801020  1
  Zn  Zn52  1  0.56627507  0.80048466  0.01709576  1
  Zn  Zn53  1  0.92837841  0.66236524  0.97598399  1
  Zn  Zn54  1  0.69031316  0.92439834  0.91384546  1
  Zn  Zn55  1  0.70872686  0.42849351  0.92217891  1
  Zn  Zn56  1  0.90829402  0.94685936  0.18994620  1
  Zn  Zn57  1  0.20360897  0.45786503  0.94027018  1
  Zn  Zn58  1  0.18040034  0.97793638  0.97201271  1
  Zn  Zn59  1  0.27163959  0.59227771  0.04185888  1
  Zn  Zn60  1  0.62923032  0.66937318  0.60847869  1
  Zn  Zn61  1  0.15643928  0.70720473  0.16475158  1
  Zn  Zn62  1  0.92920725  0.17927433  0.94346769  1
  Zn  Zn63  1  0.33284039  0.19329717  0.06123831  1
  Zn  Zn64  1  0.85637500  0.52945509  0.52981462  1
  Zn  Zn65  1  0.81556714  0.81728653  0.33152119  1
  Zn  Zn66  1  0.81025148  0.06358448  0.56156432  1
  Zn  Zn67  1  0.20806206  0.28953337  0.22414365  1
  Zn  Zn68  1  0.16591164  0.66838168  0.68878787  1
  Zn  Zn69  1  0.16952365  0.97765854  0.39054549  1
  Zn  Zn70  1  0.34191240  0.75363949  0.80202761  1
  Zn  Zn71  1  0.04922788  0.07676801  0.84086355  1
  Zn  Zn72  1  0.46094425  0.71499371  0.38103879  1
  Zn  Zn73  1  0.60880607  0.53368458  0.83298805  1
  Zn  Zn74  1  -0.11662582  0.71639177  0.57562892  1
  Zn  Zn75  1  0.92975153  0.21332063  0.42889551  1
  Zn  Zn76  1  0.03839733  0.09655914  0.31620662  1
  Zn  Zn77  1  0.79027629  0.19349358  0.18259113  1
  Zn  Zn78  1  0.36391148  0.33249831  0.90114123  1
  Zn  Zn79  1  0.56225151  0.05066880  0.31214316  1
  Zn  Zn80  1  0.46389315  0.19715365  0.94417939  1
  Zn  Zn81  1  0.49507158  0.07157340  0.83593627  1
  Zn  Zn82  1  0.57493170  0.88725099  0.70038072  1
  Zn  Zn83  1  0.77029349  0.56795834  0.66372090  1
  Zn  Zn84  1  0.30510437  0.04940170  0.49235412  1
  Zn  Zn85  1  0.48817402  0.45905542  0.73243719  1
  Zn  Zn86  1  0.37290588  0.75252033  0.97751075  1
  Zn  Zn87  1  0.80183515  0.04211828  0.04816973  1
  Zn  Zn88  1  0.04633615  0.32970905  0.09146290  1
  Zn  Zn89  1  0.95795215  0.95232128  0.66464129  1
  Zn  Zn90  1  0.18596933  0.55421132  0.51477899  1
  Zn  Zn91  1  0.79126419  0.74349311  0.74189043  1
  Zn  Zn92  1  0.50098443  0.02367965  0.48591395  1
  Zn  Zn93  1  0.69096479  0.95376183  0.45909583  1
  Zn  Zn94  1  0.61430203  0.67845940  0.27543976  1
  Zn  Zn95  1  0.46064872  0.97606323  0.20559192  1
  Zn  Zn96  1  0.02124930  0.78889628  0.06266398  1
  Zn  Zn97  1  0.62560048  0.27863086  0.08816234  1
  Zn  Zn98  1  0.90370622  0.45384749  0.21900758  1
  Zn  Zn99  1  0.10427621  0.26705616  0.36545681  1
  Zn  Zn100  1  0.33047733  0.78783171  0.31241022  1
  Zn  Zn101  1  0.07970244  0.56295865  0.33775860  1
  O  O102  1  0.17398726  0.08862781  0.14221843  1
  O  O103  1  0.11032215  0.14508672  0.62816946  1
  O  O104  1  0.08771117  0.62120348  0.12563943  1
  O  O105  1  0.14289880  0.64469486  0.58208146  1
  O  O106  1  0.61924353  0.07990570  0.09584610  1
  O  O107  1  0.62847039  0.10234135  0.64143392  1
  O  O108  1  0.59832351  0.61002407  0.13327328  1
  O  O109  1  0.66473587  0.56976121  0.63003139  1
  O  O110  1  0.43963204  0.31275708  0.31031181  1
  O  O111  1  0.45480713  0.40014972  0.92443503  1
  O  O112  1  0.39115666  0.85667005  0.37990213  1
  O  O113  1  0.37267274  0.85565285  0.83379232  1
  O  O114  1  0.94219046  0.32845790  0.40997047  1
  O  O115  1  0.89851345  0.42717916  0.90421405  1
  O  O116  1  0.87356204  0.90236325  0.38270717  1
  O  O117  1  0.89415991  0.94477775  0.83340353  1
  O  O118  1  0.27940403  -0.01933063  0.39637911  1
  O  O119  1  0.25299370  0.01302178  0.89909007  1
  O  O120  1  0.29641297  0.53421388  0.29639529  1
  O  O121  1  0.25988391  0.55749196  0.92974159  1
  O  O122  1  0.75457150  0.02254209  0.38449946  1
  O  O123  1  0.74795121  -0.00582915  0.84944080  1
  O  O124  1  0.73233246  0.53544233  0.39479566  1
  O  O125  1  0.76606313  0.50572864  0.86557671  1
  O  O126  1  0.25669855  0.52152794  0.13139776  1
  O  O127  1  0.33548105  0.48551060  0.65960632  1
  O  O128  1  0.25500260  0.98157793  0.07562453  1
  O  O129  1  0.26216900  1.04254220  0.60188969  1
  O  O130  1  0.68780420  0.41195574  0.16591055  1
  O  O131  1  0.79334776  0.46542711  0.61089629  1
  O  O132  1  0.72559447  0.97662742  0.10572917  1
  O  O133  1  0.75210392  0.99693972  0.63906264  1
  O  O134  1  -0.02424719  0.35453871  0.24355373  1
  O  O135  1  0.06627073  0.44191591  0.71879875  1
  O  O136  1  -0.01970965  0.90463003  0.26215411  1
  O  O137  1  0.00825699  0.85925518  0.69613110  1
  O  O138  1  0.51344953  0.44670353  0.35214577  1
  O  O139  1  0.53115306  0.37650593  0.79069377  1
  O  O140  1  0.48819008  0.87226440  0.24173750  1
  O  O141  1  0.51371824  0.83263559  0.77606823  1
  O  O142  1  0.51127044  0.07958326  0.21597617  1
  O  O143  1  0.49040988  0.16203389  0.77118444  1
  O  O144  1  0.50568418  0.69679374  0.27735865  1
  O  O145  1  0.51251882  0.56393174  0.77976455  1
  O  O146  1  1.00177767  0.13359626  0.21506747  1
  O  O147  1  1.01497250  0.10034289  0.74284389  1
  O  O148  1  1.02374855  0.63241516  0.27070098  1
  O  O149  1  1.00572997  0.69234870  0.81487027  1
  O  O150  1  0.38338994  0.25936127  -0.01634448  1
  O  O151  1  0.34966789  0.39974100  0.42333293  1
  O  O152  1  0.27837919  0.80278582  0.01667810  1
  O  O153  1  0.38719399  0.70306795  0.58479145  1
  O  O154  1  0.85488696  0.23610150  -0.00073563  1
  O  O155  1  0.85070149  0.21647259  0.51127588  1
  O  O156  1  0.85432251  0.72586265  0.03054269  1
  O  O157  1  0.87927072  0.79472328  0.49614377  1
  O  O158  1  0.10994653  0.25892836  0.48390989  1
  O  O159  1  0.09721119  0.28978677  0.99954002  1
  O  O160  1  0.11576914  0.74251894  0.44281638  1
  O  O161  1  0.02528087  0.71665180  0.97627219  1
  O  O162  1  0.64307576  0.22410358  0.53781404  1
  O  O163  1  0.65368062  0.20801705  0.99059354  1
  O  O164  1  0.66158905  0.73638660  0.52886777  1
  O  O165  1  0.64629077  0.72336391  0.99299964  1
  O  O166  1  0.54847617  0.22004302  0.14842409  1
  O  O167  1  0.48619783  0.28299162  0.66535341  1
  O  O168  1  0.51182312  0.76658667  0.11570675  1
  O  O169  1  0.55098645  0.69174919  0.67902025  1
  O  O170  1  0.98305898  0.24015695  0.12879695  1
  O  O171  1  0.97727872  0.21996376  0.63215832  1
  O  O172  1  0.95995543  0.71519868  0.13825789  1
  O  O173  1  0.94961953  0.72775544  0.67187695  1
  O  O174  1  0.01098162  0.20901727  0.33918764  1
  O  O175  1  -0.00441738  0.26708198  0.90870607  1
  O  O176  1  -0.01455307  0.79450780  0.36902342  1
  O  O177  1  0.02063847  0.83589333  0.82809870  1
  O  O178  1  0.45654807  0.28440464  0.37289764  1
  O  O179  1  0.52897425  0.26597377  0.87946554  1
  O  O180  1  0.53707275  0.76469599  0.43969821  1
  O  O181  1  0.55376494  0.70171450  0.84861805  1
  O  O182  1  0.25822349  0.13543277  0.44059331  1
  O  O183  1  0.26923960  0.14230152  0.98768704  1
  O  O184  1  0.27535258  0.56778118  0.45604230  1
  O  O185  1  0.18400823  0.66151914  1.01964390  1
  O  O186  1  0.72888096  0.11788799  0.50507454  1
  O  O187  1  0.73459056  0.08533932  0.96867598  1
  O  O188  1  0.75426922  0.57624914  0.45637311  1
  O  O189  1  0.74538867  0.61180001  1.02306316  1
  O  O190  1  0.27095330  0.38390824  -0.09177828  1
  O  O191  1  0.23038139  0.30524401  0.49372855  1
  O  O192  1  0.15319592  0.87170891  -0.03796552  1
  O  O193  1  0.19734561  0.86271930  0.58573917  1
  O  O194  1  0.75432305  0.35051842  -0.01660704  1
  O  O195  1  0.75498150  0.33966126  0.51996288  1
  O  O196  1  0.76522673  0.87464309  -0.01275007  1
  O  O197  1  0.76717763  0.89954234  0.51950842  1
  O  O198  1  0.14040037  0.50353502  0.25780251  1
  O  O199  1  0.22824920  0.37132102  0.71460058  1
  O  O200  1  0.12911043  1.03346649  0.12892926  1
  O  O201  1  0.15363797  1.02125949  0.75618773  1
  O  O202  1  0.52670162  0.46778193  0.18728121  1
  O  O203  1  0.63933071  0.46495327  0.74613914  1
  O  O204  1  0.61757347  0.96344101  0.26378076  1
  O  O205  1  0.62714055  0.97841232  0.74681584  1
  O  O206  1  0.37272739  -0.02635507  0.27418506  1
  O  O207  1  0.31699945  0.03422906  0.65839913  1
  O  O208  1  0.39613965  0.60458985  0.19746106  1
  O  O209  1  0.36988843  0.47270319  0.72792713  1
  O  O210  1  0.86381583  0.01298413  0.27024225  1
  O  O211  1  0.92288461  -0.01739743  0.77889703  1
  O  O212  1  0.85582982  0.43079227  0.31664418  1
  O  O213  1  1.00075905  0.41641834  0.71728548  1
  O  O214  1  0.12689974  0.37468274  0.33873766  1
  O  O215  1  0.10856036  0.38172526  0.90030076  1
  O  O216  1  0.09987560  0.89283579  0.36287674  1
  O  O217  1  0.21278261  0.98842669  0.77282832  1
  O  O218  1  0.66519038  0.37973480  0.35085601  1
  O  O219  1  0.66311975  0.34548698  0.85527104  1
  O  O220  1  0.65041278  0.86181707  0.39457286  1
  O  O221  1  0.62618013  0.83239467  0.90184977  1
  O  O222  1  0.41682341  0.14108443  0.11360810  1
  O  O223  1  0.38263681  0.05980759  0.64236897  1
  O  O224  1  0.35957917  0.66870043  0.05834410  1
  O  O225  1  0.37181242  0.63481094  0.59593380  1
  O  O226  1  0.85517781  0.11857578  0.12139025  1
  O  O227  1  0.86989538  0.11645795  0.64052795  1
  O  O228  1  0.82477681  0.64005981  0.16830957  1
  O  O229  1  0.84327604  0.61602137  0.59134924  1
  O  O230  1  0.28280253  0.25821091  0.14241107  1
  O  O231  1  0.17640643  0.26440222  0.52230500  1
  O  O232  1  0.13105014  0.78538329  0.08762289  1
  O  O233  1  0.24831705  0.75609805  0.66137359  1
  O  O234  1  0.73737652  0.24376591  0.09891784  1
  O  O235  1  0.76731669  0.24277155  0.62580977  1
  O  O236  1  0.74769899  0.76640316  0.10936041  1
  O  O237  1  0.79207063  0.78152664  0.63640228  1
  O  O238  1  0.20784715  0.23020570  0.32537475  1
  O  O239  1  0.19490566  0.26042315  0.88896824  1
  O  O240  1  0.23138106  0.81481153  0.35107016  1
  O  O241  1  0.18013380  0.73960205  0.89836560  1
  O  O242  1  0.73822792  0.22617325  0.40659153  1
  O  O243  1  0.75521799  0.20748843  0.88877256  1
  O  O244  1  0.74515790  0.74520229  0.38501083  1
  O  O245  1  0.76037547  0.71784766  0.90442922  1
  O  O246  1  -0.01239509  0.12681124  0.02464843  1
  O  O247  1  -0.00566793  0.12909346  0.48357344  1
  O  O248  1  -0.00200530  0.58085242  0.00642237  1
  O  O249  1  -0.00870487  0.68214393  0.52987855  1
  O  O250  1  0.52501646  0.13044866  0.01258106  1
  O  O251  1  0.52614764  0.12708012  0.52658170  1
  O  O252  1  0.49396617  0.52717077  0.04770965  1
  O  O253  1  0.48514669  0.57782456  0.46988238  1
  O  O254  1  0.38656383  0.35719733  0.46487210  1
  O  O255  1  0.57092112  0.33930628  1.00993996  1
  O  O256  1  0.43448498  0.86600510  0.61022069  1
  O  O257  1  0.46921481  0.81058880  0.95083284  1
  O  O258  1  1.04557814  0.41398618  0.54549364  1
  O  O259  1  0.96202651  0.40716353  1.06874366  1
  O  O260  1  0.98161347  0.91372544  0.48125757  1
  O  O261  1  0.99697921  0.89396498  1.03451137  1
  O  O262  1  0.55931385  0.49757797  0.33377848  1
  O  O263  1  0.60106686  0.46132538  0.91931789  1
  O  O264  1  0.48189141  0.99804414  0.37216167  1
  O  O265  1  0.48825558  0.96337343  0.86025561  1
  O  O266  1  1.01179275  0.46629412  0.32345707  1
  O  O267  1  0.95282913  0.47185975  0.89771824  1
  O  O268  1  0.97858450  1.01844949  0.37494354  1
  O  O269  1  1.04000540  1.00947402  0.92445466  1
  O  O270  1  -0.02779876  0.01961777  0.12295760  1
  O  O271  1  0.00138540  0.02867146  0.59841582  1
  O  O272  1  -0.05010819  0.53913020  0.16636705  1
  O  O273  1  0.11655867  0.41084364  0.55143344  1
  O  O274  1  0.51953263  -0.03706957  0.10844638  1
  O  O275  1  0.48532665  -0.07587817  0.62906976  1
  O  O276  1  0.47293787  0.42268389  0.19386198  1
  O  O277  1  0.51862669  0.48237331  0.62715478  1
  O  O278  1  0.25142972  0.39477894  0.23056299  1
  O  O279  1  0.19771570  0.33072980  0.66550084  1
  O  O280  1  0.26045057  0.87143904  0.19647347  1
  O  O281  1  0.26733117  0.79957808  0.71798226  1
  O  O282  1  0.71297406  0.44836127  0.22377918  1
  O  O283  1  0.75316469  0.35837821  0.72512411  1
  O  O284  1  0.74470351  0.87904687  0.26317795  1
  O  O285  1  0.76728447  0.90125860  0.73286451  1
  O  O286  1  0.28604461  0.10221042  0.25108724  1
  O  O287  1  0.27750854  0.14664294  0.82228199  1
  O  O288  1  0.25850376  0.67758205  0.19058697  1
  O  O289  1  0.21531917  0.63340211  0.78029895  1
  O  O290  1  0.73964425  0.14558127  0.27112954  1
  O  O291  1  0.74887446  0.10114547  0.76516292  1
  O  O292  1  0.70766908  0.62824521  0.26672739  1
  O  O293  1  0.79409273  0.62801411  0.75696327  1
  O  O294  1  0.33574282  0.13798391  0.29942355  1
  O  O295  1  0.40655670  0.10424535  0.90179459  1
  O  O296  1  0.35584187  0.68577910  0.36736856  1
  O  O297  1  0.31592503  0.69268983  0.89254804  1
  O  O298  1  0.85948540  0.12713626  0.37533881  1
  O  O299  1  0.87247426  0.11153164  0.87503246  1
  O  O300  1  0.84585839  0.63398340  0.33605201  1
  O  O301  1  0.86597556  0.61622839  0.89872571  1
  O  O302  1  0.09776543  0.40592720  0.15654941  1
  O  O303  1  0.15349694  0.47439765  0.58861001  1
  O  O304  1  0.21038411  0.91909734  0.20273474  1
  O  O305  1  0.19186649  0.90283426  0.64375188  1
  O  O306  1  0.63576931  0.35452578  0.18197772  1
  O  O307  1  0.64660366  0.37830926  0.62662778  1
  O  O308  1  0.63860245  0.87017419  0.08423386  1
  O  O309  1  0.65778344  0.86123861  0.63036027  1
  O  O310  1  0.09492574  0.28433525  0.23178107  1
  O  O311  1  0.08445143  0.29877287  0.79697431  1
  O  O312  1  0.11806873  0.76122265  0.26234455  1
  O  O313  1  0.08668793  0.74362379  0.71875236  1
  O  O314  1  0.60866540  0.33897901  0.36040378  1
  O  O315  1  0.61162261  0.27080354  0.73361631  1
  O  O316  1  0.61101638  0.79307525  0.24421936  1
  O  O317  1  0.68907702  0.75945249  0.78289658  1
  O  O318  1  0.34907572  0.32304373  0.14735839  1
  O  O319  1  0.39968460  0.28995073  0.80053330  1
  O  O320  1  0.38777002  0.76700721  0.21283181  1
  O  O321  1  0.41405459  0.68743092  0.75418062  1
  O  O322  1  0.88136887  0.23482202  0.24310648  1
  O  O323  1  0.87076365  0.22905614  0.74767586  1
  O  O324  1  0.85379949  0.77352361  0.23655943  1
  O  O325  1  0.89670818  0.77875713  0.77837473  1
  O  O326  1  0.45268475  0.51479021  0.47397784  1
  O  O327  1  0.43056541  0.49767124  1.04430575  1
  O  O328  1  0.39572684  0.99215694  0.48258913  1
  O  O329  1  0.36732825  0.98084841  1.01458479  1
  O  O330  1  0.91460105  0.47790212  0.45932198  1
  O  O331  1  0.89194227  0.37546509  1.07115981  1
  O  O332  1  0.87779574  1.01226436  0.48405039  1
  O  O333  1  0.89191995  0.99997700  0.99312622  1
  O  O334  1  0.10823620  0.02500032  0.04682129  1
  O  O335  1  0.10009618  0.01584687  0.47427708  1
  O  O336  1  0.13167061  0.50099923  0.01406286  1
  O  O337  1  0.08959886  0.57869185  0.44947287  1
  O  O338  1  0.61559241  -0.01358225  -0.01961623  1
  O  O339  1  0.61133683  0.00959639  0.50660143  1
  O  O340  1  0.63680897  0.55309003  0.12225659  1
  O  O341  1  0.61349347  0.47806888  0.51097051  1
  O  O342  1  0.34522841  0.37445436  0.09813490  1
  O  O343  1  0.35014203  0.44191329  0.60248809  1
  O  O344  1  0.32654283  0.95960687  0.07262449  1
  O  O345  1  0.36490131  0.88049666  0.61804064  1
  O  O346  1  0.84815048  0.39455853  0.13061830  1
  O  O347  1  0.87662487  0.33757820  0.62809139  1
  O  O348  1  0.84408859  0.88652342  0.12290898  1
  O  O349  1  0.87911968  0.90645058  0.60570053  1
  O  O350  1  0.14990867  0.07808525  0.33042677  1
  O  O351  1  0.09098860  0.17499245  0.88833447  1
  O  O352  1  0.19795524  0.64562109  0.34490309  1
  O  O353  1  0.11942437  0.60098312  0.90061821  1
  O  O354  1  0.62907080  0.11490755  0.37273676  1
  O  O355  1  0.59986770  0.10190157  0.88440929  1
  O  O356  1  0.62854908  0.66218958  0.39285088  1
  O  O357  1  0.67144588  0.62092997  0.86469341  1
