# generated using pymatgen
data_V51Zn51O256
_symmetry_space_group_name_H-M   'P 1'
_cell_length_a   17.51573998
_cell_length_b   17.65850037
_cell_length_c   17.78782140
_cell_angle_alpha   89.47045452
_cell_angle_beta   89.58336601
_cell_angle_gamma   89.75772638
_symmetry_Int_Tables_number   1
_chemical_formula_structural   V51Zn51O256
_chemical_formula_sum   'V51 Zn51 O256'
_cell_volume   5501.37534347
_cell_formula_units_Z   1
loop_
 _symmetry_equiv_pos_site_id
 _symmetry_equiv_pos_as_xyz
  1  'x, y, z'
loop_
 _atom_site_type_symbol
 _atom_site_label
 _atom_site_symmetry_multiplicity
 _atom_site_fract_x
 _atom_site_fract_y
 _atom_site_fract_z
 _atom_site_occupancy
  V  V0  1  0.25017199  -0.07029187  0.72995387  1
  V  V1  1  0.67269037  -0.02340631  0.05464927  1
  V  V2  1  0.78120460  0.70301321  0.28125742  1
  V  V3  1  0.73299307  0.34417037  0.64245448  1
  V  V4  1  0.77296807  0.64686860  0.45444718  1
  V  V5  1  0.24256150  0.43096808  0.08959489  1
  V  V6  1  0.14500834  0.48873015  0.60253563  1
  V  V7  1  0.09597518  0.87073101  0.70814428  1
  V  V8  1  0.51378010  0.08764518  0.05098524  1
  V  V9  1  0.19129158  0.55213823  0.78225888  1
  V  V10  1  0.01397683  0.02877207  -0.02250346  1
  V  V11  1  0.06063819  0.64310248  0.19386208  1
  V  V12  1  0.22841511  0.00604031  0.25813285  1
  V  V13  1  0.73854622  0.16967922  0.48605363  1
  V  V14  1  0.67137175  -0.03321248  0.56092605  1
  V  V15  1  0.36463898  0.22238580  0.12705451  1
  V  V16  1  0.41255755  0.66135156  0.77001683  1
  V  V17  1  0.31350393  0.73740201  0.53987966  1
  V  V18  1  0.22860663  0.25198422  0.41503873  1
  V  V19  1  0.60545742  0.82551396  0.68463416  1
  V  V20  1  0.64335776  0.30819571  0.28558839  1
  V  V21  1  0.51193017  0.52444006  -0.00110894  1
  V  V22  1  -0.03122870  0.11856523  0.67987692  1
  V  V23  1  0.13236872  0.21982921  0.83164345  1
  V  V24  1  0.78641913  0.47599659  0.74716480  1
  V  V25  1  0.74328181  0.64323820  0.87883963  1
  V  V26  1  0.57722002  0.14186812  0.55653875  1
  V  V27  1  -0.02399796  0.41877280  0.32178356  1
  V  V28  1  0.33557964  0.85062838  0.06721049  1
  V  V29  1  0.48665913  0.44604156  0.53013234  1
  V  V30  1  0.00428879  0.58255894  0.55814350  1
  V  V31  1  0.35300256  0.55933247  0.89070168  1
  V  V32  1  0.91338551  0.14679137  0.23666697  1
  V  V33  1  0.24997987  0.39312779  0.71208404  1
  V  V34  1  0.08246874  0.16787585  0.50861918  1
  V  V35  1  0.85497228  0.65885989  0.72194194  1
  V  V36  1  0.62208047  0.54690443  0.46667163  1
  V  V37  1  0.23173293  0.20916874  -0.01214934  1
  V  V38  1  0.07164495  0.81065257  0.40145661  1
  V  V39  1  0.63545149  0.29927565  0.88712517  1
  V  V40  1  0.83864321  0.81620254  0.08106639  1
  V  V41  1  0.40544586  0.45660256  0.33810196  1
  V  V42  1  0.52799582  0.18893738  0.21794961  1
  V  V43  1  0.62952499  0.97502515  0.22578454  1
  V  V44  1  0.61279825  0.48581484  0.65349120  1
  V  V45  1  0.76700654  0.10928804  0.84898481  1
  V  V46  1  0.13436986  0.75448090  0.90511168  1
  V  V47  1  0.44060938  0.40710378  0.88310889  1
  V  V48  1  0.48238710  0.31190097  0.35535367  1
  V  V49  1  0.91445273  0.27882784  0.67173985  1
  V  V50  1  -0.00278354  0.86856282  0.88077580  1
  Zn  Zn51  1  0.57009376  0.48171035  0.27805029  1
  Zn  Zn52  1  0.19468331  0.19785416  0.23156336  1
  Zn  Zn53  1  0.69788497  0.82914810  0.19055516  1
  Zn  Zn54  1  0.92665671  0.98373557  0.77420044  1
  Zn  Zn55  1  0.09819202  0.29860694  0.65259213  1
  Zn  Zn56  1  0.88576173  0.54890087  0.20169991  1
  Zn  Zn57  1  0.42202839  0.41647626  0.14616098  1
  Zn  Zn58  1  0.29778462  0.33869105  0.25407117  1
  Zn  Zn59  1  0.94536737  0.43951576  0.63714269  1
  Zn  Zn60  1  0.09944279  0.03171168  0.80962656  1
  Zn  Zn61  1  0.40351301  0.16095879  0.45366394  1
  Zn  Zn62  1  0.01530220  0.71010342  0.78273171  1
  Zn  Zn63  1  0.21815201  0.38253967  0.89862864  1
  Zn  Zn64  1  0.28909057  0.04396758  0.05912415  1
  Zn  Zn65  1  0.66910099  0.49295496  0.89610905  1
  Zn  Zn66  1  0.24324610  0.07556610  0.45151162  1
  Zn  Zn67  1  0.42330581  0.59917903  0.45987175  1
  Zn  Zn68  1  0.24510953  0.43396708  0.44103889  1
  Zn  Zn69  1  0.40840747  0.68434948  0.98535633  1
  Zn  Zn70  1  0.95753224  0.15764249  0.85306617  1
  Zn  Zn71  1  0.55029306  0.30679192  0.62771054  1
  Zn  Zn72  1  0.85947090  0.88489125  0.25672152  1
  Zn  Zn73  1  0.18765483  0.70642515  0.31546382  1
  Zn  Zn74  1  0.83010897  0.27279736  0.35763641  1
  Zn  Zn75  1  0.42418687  0.47314170  0.71105854  1
  Zn  Zn76  1  0.64966308  0.19195494  0.73059562  1
  Zn  Zn77  1  0.70333403  0.12321433  0.22114077  1
  Zn  Zn78  1  0.85337682  0.96661020  0.96782611  1
  Zn  Zn79  1  0.00580252  0.77306712  0.59999109  1
  Zn  Zn80  1  0.72113650  0.83262586  -0.05617580  1
  Zn  Zn81  1  0.69840346  0.66479232  0.61485331  1
  Zn  Zn82  1  0.74031987  0.99863543  0.37570753  1
  Zn  Zn83  1  0.30529896  0.82274766  0.21744692  1
  Zn  Zn84  1  0.48901345  0.29201350  0.78720326  1
  Zn  Zn85  1  0.40252911  0.83383691  0.68868161  1
  Zn  Zn86  1  0.62758641  0.35409985  0.48064951  1
  Zn  Zn87  1  0.43307128  0.96533608  0.18484858  1
  Zn  Zn88  1  0.11886523  0.30486591  0.11788691  1
  Zn  Zn89  1  0.79944730  0.27890561  0.80406103  1
  Zn  Zn90  1  -0.03463025  0.62428643  0.38281482  1
  Zn  Zn91  1  0.51177238  0.31480834  0.02831928  1
  Zn  Zn92  1  0.78630282  0.08279324  0.66066722  1
  Zn  Zn93  1  0.14413204  0.80355824  0.09205167  1
  Zn  Zn94  1  0.83993918  0.78454177  0.82099875  1
  Zn  Zn95  1  0.40435175  0.21566560  0.94489199  1
  Zn  Zn96  1  0.98763530  0.90993853  0.11846479  1
  Zn  Zn97  1  0.25058537  0.74499740  0.77728001  1
  Zn  Zn98  1  0.55233410  0.58009056  0.82330859  1
  Zn  Zn99  1  0.84711387  0.63108032  0.04263200  1
  Zn  Zn100  1  0.14864114  0.68135739  0.65308240  1
  Zn  Zn101  1  0.80292977  0.53324708  0.57877438  1
  O  O102  1  0.14327577  0.12509930  0.17456037  1
  O  O103  1  0.04582352  0.06508766  0.63118419  1
  O  O104  1  0.13182968  0.62097398  0.26668560  1
  O  O105  1  0.10259648  0.59470080  0.60085736  1
  O  O106  1  0.59783239  0.04296703  0.01779778  1
  O  O107  1  0.60420831  0.04567132  0.57132421  1
  O  O108  1  0.68532771  0.57431626  0.14392048  1
  O  O109  1  0.63580631  0.57159500  0.61248180  1
  O  O110  1  0.39577946  0.32937683  0.31174187  1
  O  O111  1  0.35109117  0.44888768  0.88832795  1
  O  O112  1  0.41232897  0.83783380  0.31480303  1
  O  O113  1  0.42250886  0.94865834  0.90884322  1
  O  O114  1  0.89440502  0.35667853  0.34243111  1
  O  O115  1  0.89270604  0.25093234  0.98397703  1
  O  O116  1  0.82549461  0.94510377  0.33654425  1
  O  O117  1  0.91342697  0.93271401  0.87147900  1
  O  O118  1  0.23153685  0.00499275  0.35920833  1
  O  O119  1  0.28759549  -0.05414060  0.81126423  1
  O  O120  1  0.30663517  0.43703060  0.35099060  1
  O  O121  1  0.25729671  0.56740998  0.86491018  1
  O  O122  1  0.75740055  0.09615628  0.42844394  1
  O  O123  1  0.79789159  0.02309225  0.87196660  1
  O  O124  1  0.75609401  0.44851580  0.36721511  1
  O  O125  1  0.75182759  0.52640090  0.82836637  1
  O  O126  1  0.24222933  0.52348421  0.07921824  1
  O  O127  1  0.19845813  0.51841175  0.68458922  1
  O  O128  1  0.23475032  1.01375699  0.15849397  1
  O  O129  1  0.27514453  1.06637588  0.60560395  1
  O  O130  1  0.85577561  0.54327659  0.10311795  1
  O  O131  1  0.73712698  0.46142908  0.65085131  1
  O  O132  1  0.76424949  1.00125031  0.03604227  1
  O  O133  1  0.74972554  0.98726680  0.60972995  1
  O  O134  1  -0.08617661  0.45285297  0.24379555  1
  O  O135  1  0.05164305  0.40355999  0.87104978  1
  O  O136  1  -0.04357538  0.91994123  0.22031892  1
  O  O137  1  0.00918468  0.90314593  0.74761796  1
  O  O138  1  0.52879543  0.28591743  0.26639899  1
  O  O139  1  0.47741540  0.41000649  0.79004596  1
  O  O140  1  0.53116024  0.97214385  0.23185726  1
  O  O141  1  0.51109352  0.83590660  0.70562747  1
  O  O142  1  0.52243583  0.12014428  0.27789968  1
  O  O143  1  0.39532921  0.17600320  0.69681366  1
  O  O144  1  0.56157192  0.59218501  0.24551544  1
  O  O145  1  0.50823039  0.66993066  0.77295956  1
  O  O146  1  0.99406829  0.12951270  0.28952491  1
  O  O147  1  0.99680119  0.07922453  0.77579184  1
  O  O148  1  1.00305248  0.65364382  0.27967416  1
  O  O149  1  0.95130268  0.64280690  0.72150301  1
  O  O150  1  0.32337761  0.24347589  0.01561162  1
  O  O151  1  0.31574034  0.23464839  0.45130673  1
  O  O152  1  0.57696252  0.75589103  0.07880379  1
  O  O153  1  0.40552418  0.76341652  0.59459753  1
  O  O154  1  0.84009536  0.26320592  0.02810286  1
  O  O155  1  0.88737028  0.18685135  0.64154358  1
  O  O156  1  0.94485194  0.65859686  0.00765580  1
  O  O157  1  0.86617651  0.63858123  0.42740253  1
  O  O158  1  0.11790021  0.22010025  0.58015293  1
  O  O159  1  0.16266041  0.23275643  1.05007742  1
  O  O160  1  0.04465747  0.80460714  0.49674193  1
  O  O161  1  0.12646047  0.75396958  1.00242578  1
  O  O162  1  0.58376661  0.19704469  0.64008859  1
  O  O163  1  0.59286308  0.27512998  0.97283602  1
  O  O164  1  0.62275031  0.64094082  0.47083784  1
  O  O165  1  0.65549823  0.62397952  1.10590806  1
  O  O166  1  0.53873746  0.15486955  0.12068095  1
  O  O167  1  0.45165579  0.29714325  0.68477649  1
  O  O168  1  0.48335615  0.67135438  0.18408231  1
  O  O169  1  0.45334286  0.69706012  0.61566777  1
  O  O170  1  1.00774077  0.32112151  0.06118009  1
  O  O171  1  0.99099151  0.33685330  0.63855695  1
  O  O172  1  1.11662685  0.72782588  0.17920548  1
  O  O173  1  0.97135794  0.67306663  0.57172045  1
  O  O174  1  0.01764591  0.35928656  0.25818524  1
  O  O175  1  0.04445484  0.22211468  0.87397910  1
  O  O176  1  -0.00396187  0.73898948  0.39620385  1
  O  O177  1  -0.05163919  0.78589945  0.83779936  1
  O  O178  1  0.46990472  0.23359505  0.40608488  1
  O  O179  1  0.42686266  0.30210998  0.88115638  1
  O  O180  1  0.40950374  0.83425682  0.38412935  1
  O  O181  1  0.47989717  0.97609429  0.87992300  1
  O  O182  1  0.17151531  0.16636492  0.44131341  1
  O  O183  1  0.24198720  0.11299545  0.98626124  1
  O  O184  1  0.34698525  0.66653907  0.48092308  1
  O  O185  1  0.30377585  0.64868435  1.16918360  1
  O  O186  1  0.75036094  0.14660136  0.57874274  1
  O  O187  1  0.73216306  0.13935446  0.94828151  1
  O  O188  1  0.74084630  0.55196792  0.48581238  1
  O  O189  1  0.76961004  0.60991995  0.96353990  1
  O  O190  1  0.25264223  0.39096901  -0.00026099  1
  O  O191  1  0.19575377  0.33633761  0.44807525  1
  O  O192  1  0.37964500  0.78364031  0.01046501  1
  O  O193  1  0.29936134  0.81724192  0.49361798  1
  O  O194  1  0.82290967  0.42576729  0.01470032  1
  O  O195  1  0.70479520  0.31712461  0.55584097  1
  O  O196  1  0.81981823  0.85834599  -0.00924521  1
  O  O197  1  0.57592736  0.81162140  0.45562155  1
  O  O198  1  0.20922812  0.56929545  0.39788474  1
  O  O199  1  0.10457394  0.54201775  0.81160427  1
  O  O200  1  0.13084294  1.00082291  0.25753742  1
  O  O201  1  0.14780180  0.96478756  0.73479538  1
  O  O202  1  0.63368714  0.39642949  0.24354979  1
  O  O203  1  0.59892317  0.51205795  0.74437877  1
  O  O204  1  0.66728334  1.04325459  0.15108506  1
  O  O205  1  0.50865403  1.03872402  0.72766248  1
  O  O206  1  0.33685238  -0.00311003  0.24646593  1
  O  O207  1  0.32759512  -0.09213490  0.66942062  1
  O  O208  1  0.45753629  0.45558026  0.25049699  1
  O  O209  1  0.38482074  0.56344805  0.76882753  1
  O  O210  1  0.96230706  0.12486617  0.15440676  1
  O  O211  1  0.78540295  -0.11112086  0.79678302  1
  O  O212  1  0.82900709  0.61983881  0.25649457  1
  O  O213  1  0.88116733  0.47906414  0.72694271  1
  O  O214  1  0.06251942  0.46742799  0.31666617  1
  O  O215  1  0.10109174  0.37714263  0.92465064  1
  O  O216  1  0.01038461  0.87616443  0.36567234  1
  O  O217  1  0.09771561  0.83705193  0.85523223  1
  O  O218  1  0.60074981  0.32375861  0.37885414  1
  O  O219  1  0.62878756  0.39440770  0.87296753  1
  O  O220  1  0.67419210  1.04087974  0.29336237  1
  O  O221  1  0.66124443  0.85634259  0.76924431  1
  O  O222  1  0.34951866  0.12944729  0.10405385  1
  O  O223  1  0.21913468  0.03910222  0.55892510  1
  O  O224  1  0.50639606  0.60375209  0.19147016  1
  O  O225  1  0.41345586  0.64397207  0.65264220  1
  O  O226  1  0.92012281  0.24033305  0.19983586  1
  O  O227  1  1.00434449  0.20640847  0.70521862  1
  O  O228  1  0.99577080  0.69800521  0.14331314  1
  O  O229  1  0.91414333  0.52600715  0.57161469  1
  O  O230  1  0.28150218  0.25070357  0.17227884  1
  O  O231  1  0.27799356  0.30728515  0.73459037  1
  O  O232  1  0.31173071  0.59217814  0.20888514  1
  O  O233  1  0.23634414  0.71555685  0.59609239  1
  O  O234  1  0.71615828  0.31658280  0.10092134  1
  O  O235  1  0.73140370  0.26548142  0.70308996  1
  O  O236  1  0.80425528  0.72523950  0.07943807  1
  O  O237  1  0.76729026  0.70027207  0.53438843  1
  O  O238  1  0.23486833  0.26305344  0.31519867  1
  O  O239  1  0.20931562  0.25530692  0.89715256  1
  O  O240  1  0.13408649  0.87954462  0.42976174  1
  O  O241  1  0.22998857  0.74608347  0.88367560  1
  O  O242  1  0.79449726  0.24415152  0.45387775  1
  O  O243  1  0.73086471  0.27813205  0.88947489  1
  O  O244  1  0.62013107  0.80977768  0.40222499  1
  O  O245  1  0.74661770  0.74780340  0.88316066  1
  O  O246  1  -0.04739762  0.09856268  -0.05532532  1
  O  O247  1  0.00794427  0.10972721  0.57522097  1
  O  O248  1  0.11425087  0.59856133  0.12490202  1
  O  O249  1  0.02573877  0.58289508  0.46379493  1
  O  O250  1  0.46885600  0.13546554  -0.02253247  1
  O  O251  1  0.48502978  0.14261197  0.53248882  1
  O  O252  1  0.49774961  0.62170866  0.00570074  1
  O  O253  1  0.51073375  0.54211323  0.48981313  1
  O  O254  1  0.51952895  0.34748913  0.53042918  1
  O  O255  1  0.49074494  0.40886585  0.96764811  1
  O  O256  1  0.51930049  0.94422743  0.39603717  1
  O  O257  1  0.60856312  0.74407812  1.01821196  1
  O  O258  1  0.99761474  0.38152670  0.40937895  1
  O  O259  1  0.98328227  0.50074717  1.00017212  1
  O  O260  1  0.92678373  0.85504107  0.59979346  1
  O  O261  1  0.99812425  0.84656563  0.96927369  1
  O  O262  1  0.47257967  0.40979959  0.40265550  1
  O  O263  1  0.47451450  0.52540393  0.89213815  1
  O  O264  1  0.52476701  1.01284403  0.40244956  1
  O  O265  1  0.38995516  1.08771020  0.82005511  1
  O  O266  1  0.93791571  0.51199083  0.35563548  1
  O  O267  1  0.98242026  0.38703887  0.88108725  1
  O  O268  1  1.00437917  1.03837825  0.43237478  1
  O  O269  1  1.05539759  0.97674424  0.89764534  1
  O  O270  1  0.09292573  -0.10987335  0.12188662  1
  O  O271  1  -0.11358360  0.05160094  0.69434800  1
  O  O272  1  0.00457237  0.55943918  0.18188349  1
  O  O273  1  0.04814304  0.47010051  0.58861256  1
  O  O274  1  0.45684146  0.02000883  0.08987842  1
  O  O275  1  0.45668687  0.02651535  0.68341089  1
  O  O276  1  0.48054874  0.48699518  0.08450258  1
  O  O277  1  0.50611653  0.47135126  0.63134884  1
  O  O278  1  0.31227667  0.40819659  0.16616690  1
  O  O279  1  0.22111338  0.43631036  0.80218437  1
  O  O280  1  0.23580349  0.90462704  0.25780741  1
  O  O281  1  0.20230248  0.83553748  0.72925541  1
  O  O282  1  0.73797009  0.29692133  0.30421908  1
  O  O283  1  0.76886123  0.38683542  0.77462802  1
  O  O284  1  0.80141691  0.86733813  0.15862846  1
  O  O285  1  0.73405757  0.89048157  0.74329345  1
  O  O286  1  0.24636928  0.10545615  0.27197816  1
  O  O287  1  0.26745540  0.05036182  0.67661134  1
  O  O288  1  0.25084628  0.61394085  0.36115659  1
  O  O289  1  0.20060345  0.64875813  0.74786303  1
  O  O290  1  0.80646614  0.16129082  0.21646220  1
  O  O291  1  0.72126344  0.10988426  0.75591724  1
  O  O292  1  0.71087907  0.72558020  0.21743892  1
  O  O293  1  0.78858413  0.60394425  0.66835233  1
  O  O294  1  0.34896135  0.07259270  0.43781510  1
  O  O295  1  0.34957331  0.14010336  0.84360831  1
  O  O296  1  0.41089823  0.54834559  0.36357023  1
  O  O297  1  0.38864348  0.65986920  0.87171480  1
  O  O298  1  0.86991917  0.05403911  0.23605944  1
  O  O299  1  0.84511071  0.17160276  0.83672691  1
  O  O300  1  0.73333405  0.68916895  0.37154989  1
  O  O301  1  0.83036222  0.64731434  0.81947258  1
  O  O302  1  0.15193354  0.40525496  0.12346571  1
  O  O303  1  0.16946822  0.38774278  0.64083966  1
  O  O304  1  0.25328891  0.81129644  0.11174558  1
  O  O305  1  0.09040997  0.88964976  0.61813982  1
  O  O306  1  0.76086777  0.35666156  0.13487518  1
  O  O307  1  0.62796536  0.37685546  0.66733844  1
  O  O308  1  0.64597805  0.91076001  0.13170782  1
  O  O309  1  0.62947118  0.88387299  0.60657329  1
  O  O310  1  0.10798987  0.25655345  0.21140928  1
  O  O311  1  0.12734633  0.28048315  0.75691764  1
  O  O312  1  0.11185055  0.79758308  0.30722887  1
  O  O313  1  0.06991548  0.76000857  0.69163272  1
  O  O314  1  0.63787096  0.21544951  0.22694455  1
  O  O315  1  0.58932856  0.25018985  0.80779013  1
  O  O316  1  0.66541190  0.89580419  0.27253171  1
  O  O317  1  0.63340575  0.73636668  0.66576678  1
  O  O318  1  0.42348195  0.20450540  0.20679862  1
  O  O319  1  0.40387554  0.22997540  0.65251200  1
  O  O320  1  0.27732100  0.74721014  0.28208481  1
  O  O321  1  0.36066492  0.74704455  0.75010249  1
  O  O322  1  0.88602709  0.18199846  0.33261853  1
  O  O323  1  0.90057531  0.29603586  0.76462874  1
  O  O324  1  0.84397333  0.77681899  0.28636888  1
  O  O325  1  0.83525501  0.75247794  0.71044991  1
  O  O326  1  0.39313286  0.45121504  0.52621398  1
  O  O327  1  0.35237772  0.57612581  0.98340578  1
  O  O328  1  0.37965511  0.97957321  0.53745851  1
  O  O329  1  0.31480252  0.93939481  1.03192270  1
  O  O330  1  0.75568873  0.41019247  0.42561995  1
  O  O331  1  0.85615708  0.42573111  0.95385068  1
  O  O332  1  0.85547723  0.89706298  0.50279394  1
  O  O333  1  0.94881932  0.97622723  1.03899538  1
  O  O334  1  0.08337715  0.06541951  0.02657786  1
  O  O335  1  0.07113676  0.05712207  0.45070214  1
  O  O336  1  0.05184502  0.49001653  0.00784403  1
  O  O337  1  0.19723033  0.48691719  0.52146842  1
  O  O338  1  0.65795429  -0.09332600  -0.01499776  1
  O  O339  1  0.68973767  -0.04668396  0.46887881  1
  O  O340  1  0.60863464  0.51263613  -0.01301415  1
  O  O341  1  0.61730752  0.45716733  0.52703682  1
  O  O342  1  0.43420170  0.30619591  0.09956213  1
  O  O343  1  0.33016187  0.43540712  0.67527839  1
  O  O344  1  0.38717550  0.86685418  0.15421783  1
  O  O345  1  0.42321344  0.92893698  0.51896846  1
  O  O346  1  0.95382791  0.36559173  0.07264589  1
  O  O347  1  0.83901247  0.34264522  0.62973215  1
  O  O348  1  0.93374618  0.81509311  0.09847672  1
  O  O349  1  0.87734590  0.84110868  0.54201216  1
  O  O350  1  0.01661844  0.21444926  0.46609417  1
  O  O351  1  0.15338785  0.12836885  0.80897233  1
  O  O352  1  0.14316175  0.72947960  0.41274713  1
  O  O353  1  0.08102882  0.68302900  0.86596166  1
  O  O354  1  0.63097580  0.18449177  0.48364531  1
  O  O355  1  0.67236900  0.13266760  0.90039810  1
  O  O356  1  0.61541772  0.51665658  0.37566503  1
  O  O357  1  0.64697056  0.62052408  0.86742679  1
