# generated using pymatgen
data_V51Zn51O256
_symmetry_space_group_name_H-M   'P 1'
_cell_length_a   17.26486330
_cell_length_b   17.28946380
_cell_length_c   17.37609917
_cell_angle_alpha   90.77204008
_cell_angle_beta   90.56791039
_cell_angle_gamma   90.02914488
_symmetry_Int_Tables_number   1
_chemical_formula_structural   V51Zn51O256
_chemical_formula_sum   'V51 Zn51 O256'
_cell_volume   5186.04288138
_cell_formula_units_Z   1
loop_
 _symmetry_equiv_pos_site_id
 _symmetry_equiv_pos_as_xyz
  1  'x, y, z'
loop_
 _atom_site_type_symbol
 _atom_site_label
 _atom_site_symmetry_multiplicity
 _atom_site_fract_x
 _atom_site_fract_y
 _atom_site_fract_z
 _atom_site_occupancy
  V  V0  1  0.77185100  0.41906248  0.16715062  1
  V  V1  1  0.00210402  0.75212913  0.75681406  1
  V  V2  1  0.25840943  0.88622704  0.15325740  1
  V  V3  1  0.26842585  0.16609677  0.33736807  1
  V  V4  1  0.37651735  0.86478401  0.00001088  1
  V  V5  1  0.85915330  0.72623773  0.65331450  1
  V  V6  1  0.72183391  0.90342567  0.63650723  1
  V  V7  1  0.91272275  0.34641127  0.52848824  1
  V  V8  1  0.86196027  0.33030674  -0.06484392  1
  V  V9  1  0.21822494  0.62012275  0.86795078  1
  V  V10  1  0.90352173  0.11253141  0.73759276  1
  V  V11  1  0.37285927  0.49790427  0.38616846  1
  V  V12  1  0.61785074  0.63384077  -0.00283746  1
  V  V13  1  0.48732508  0.38892794  0.92933070  1
  V  V14  1  -0.01283028  0.37622495  0.36578151  1
  V  V15  1  0.50284136  0.87958209  0.85041427  1
  V  V16  1  0.76504834  0.75841704  -0.00360175  1
  V  V17  1  0.89567818  0.01438478  0.35575972  1
  V  V18  1  0.25969095  0.01389866  0.25836068  1
  V  V19  1  0.38312349  0.51838184  0.90375255  1
  V  V20  1  0.13298622  0.10256194  -0.01109424  1
  V  V21  1  0.25744031  0.49764209  0.73531240  1
  V  V22  1  0.71906003  0.01767046  0.76849875  1
  V  V23  1  0.50982728  0.38373057  0.39523248  1
  V  V24  1  0.35762066  0.89996139  0.49353480  1
  V  V25  1  0.74709234  0.89276745  0.12521230  1
  V  V26  1  0.62417009  0.52811286  0.15160823  1
  V  V27  1  0.07403336  0.23584490  0.33695439  1
  V  V28  1  -0.02489169  0.53287260  0.00506435  1
  V  V29  1  0.61918331  0.75824163  0.86732796  1
  V  V30  1  0.26577030  0.14212214  0.87078297  1
  V  V31  1  0.47577764  0.24464072  0.72390260  1
  V  V32  1  0.14666293  0.36747407  0.78373467  1
  V  V33  1  0.64623270  0.23608498  0.38078379  1
  V  V34  1  0.23777838  0.38019386  0.14795923  1
  V  V35  1  0.85115269  0.21963639  0.62195757  1
  V  V36  1  0.24832757  0.64096615  0.36867424  1
  V  V37  1  0.38173642  0.63138444  0.24810777  1
  V  V38  1  0.60380669  -0.02049848  0.15482087  1
  V  V39  1  0.59094944  0.24849817  0.93443267  1
  V  V40  1  0.61976773  0.37270679  0.25423341  1
  V  V41  1  0.90374676  -0.00303936  0.86567539  1
  V  V42  1  0.23861577  0.74623617  -0.00907933  1
  V  V43  1  0.35931946  -0.01669629  0.85527851  1
  V  V44  1  0.13063212  0.62442171  0.02508655  1
  V  V45  1  0.87623310  0.65773388  0.27822875  1
  V  V46  1  0.40160072  0.62217829  0.72987134  1
  V  V47  1  0.53264478  0.74423166  0.24678214  1
  V  V48  1  0.24831964  0.24517961  0.51029774  1
  V  V49  1  0.54227080  0.87509895  0.37415593  1
  V  V50  1  0.14150089  0.58470689  0.49648853  1
  Zn  Zn51  1  0.05597111  0.23086858  0.49882321  1
  Zn  Zn52  1  0.42097837  0.73190380  0.39180892  1
  Zn  Zn53  1  0.73258358  0.91978782  0.42829983  1
  Zn  Zn54  1  0.96965592  0.47977550  0.19841850  1
  Zn  Zn55  1  0.08515338  0.49671077  0.85284911  1
  Zn  Zn56  1  0.55711067  0.34423680  0.10185133  1
  Zn  Zn57  1  0.30929384  0.82187931  0.31517786  1
  Zn  Zn58  1  0.87034484  0.76426497  0.46169914  1
  Zn  Zn59  1  0.78548251  0.36067698  0.35505688  1
  Zn  Zn60  1  0.33172856  0.33025578  0.82844082  1
  Zn  Zn61  1  0.31357821  0.32934354  0.34644455  1
  Zn  Zn62  1  0.60721077  0.84171075  0.53762472  1
  Zn  Zn63  1  0.79426974  0.83262989  0.81967782  1
  Zn  Zn64  1  0.93059346  0.95119983  0.18097317  1
  Zn  Zn65  1  0.44322950  0.45428784  0.19539576  1
  Zn  Zn66  1  0.29966715  0.03888424  0.04860537  1
  Zn  Zn67  1  0.04463942  0.56683297  0.35735624  1
  Zn  Zn68  1  0.19358510  0.93561959  0.94137073  1
  Zn  Zn69  1  0.44613773  0.94112281  0.24522497  1
  Zn  Zn70  1  0.81981579  0.84227314  0.30192314  1
  Zn  Zn71  1  0.29325952  0.04106210  0.46763902  1
  Zn  Zn72  1  0.54135793  0.07622501  0.83641492  1
  Zn  Zn73  1  0.45098892  0.69349135  0.95115864  1
  Zn  Zn74  1  0.68644354  0.93886298  0.93465794  1
  Zn  Zn75  1  0.42993507  0.18385132  0.88277344  1
  Zn  Zn76  1  0.67873305  0.42825603  0.94408161  1
  Zn  Zn77  1  0.18180210  0.40622060  0.42294022  1
  Zn  Zn78  1  0.21425700  0.45659344  0.96060185  1
  Zn  Zn79  1  0.16937344  0.18276605  0.17518632  1
  Zn  Zn80  1  0.55963560  0.80902173  0.07013475  1
  Zn  Zn81  1  0.86442817  0.22444165  0.40261053  1
  Zn  Zn82  1  0.92390598  0.14435716  0.95295686  1
  Zn  Zn83  1  0.69542617  0.70543413  0.16623252  1
  Zn  Zn84  1  0.77500345  0.17456324  0.86006674  1
  Zn  Zn85  1  0.05810487  0.09647579  0.83835613  1
  Zn  Zn86  1  0.31424193  0.56501838  0.55844757  1
  Zn  Zn87  1  0.03037121  0.36933852  0.06141745  1
  Zn  Zn88  1  0.90407970  0.89901004  0.71126318  1
  Zn  Zn89  1  0.85998605  -0.07837512  -0.00216898  1
  Zn  Zn90  1  0.34669065  0.76891246  0.84593570  1
  Zn  Zn91  1  0.96532842  0.71868655  0.95753172  1
  Zn  Zn92  1  0.77030073  0.55107302  0.02323733  1
  Zn  Zn93  1  0.53211220  0.58324796  0.83844033  1
  Zn  Zn94  1  0.41686886  0.90573525  0.68111138  1
  Zn  Zn95  1  0.94348273  0.31690859  0.74851862  1
  Zn  Zn96  1  0.00628946  0.67367689  0.56062550  1
  Zn  Zn97  1  0.22078314  0.70146959  0.18344667  1
  Zn  Zn98  1  0.14888007  0.64555089  0.69280280  1
  Zn  Zn99  1  0.55507715  0.56851611  0.33100690  1
  Zn  Zn100  1  0.56391636  0.28978607  0.55377483  1
  Zn  Zn101  1  0.27207065  0.22240831  0.69831704  1
  O  O102  1  0.12910483  0.14098559  0.07976973  1
  O  O103  1  0.16668449  0.12289526  0.64151582  1
  O  O104  1  0.14489586  0.63714513  0.11986291  1
  O  O105  1  0.11345411  0.62095499  0.59306254  1
  O  O106  1  0.61348622  0.08712957  0.09887650  1
  O  O107  1  0.55908058  0.03038540  0.51569795  1
  O  O108  1  0.64067475  0.62463878  0.10631274  1
  O  O109  1  0.53537866  0.54496240  0.53827458  1
  O  O110  1  0.40777270  0.38687942  0.36503603  1
  O  O111  1  0.38055770  0.40556550  0.89765659  1
  O  O112  1  0.36711542  0.83066890  0.41401596  1
  O  O113  1  0.38940261  0.87275929  0.87362899  1
  O  O114  1  0.88456781  0.35433383  0.41131076  1
  O  O115  1  0.89038783  0.34620539  0.84259792  1
  O  O116  1  0.90947997  0.91610515  0.30490712  1
  O  O117  1  0.87473560  0.89872992  0.87969109  1
  O  O118  1  0.28711036  0.05683062  0.35368394  1
  O  O119  1  0.25981344  -0.02017833  0.86128818  1
  O  O120  1  0.27807370  0.46231571  0.36990651  1
  O  O121  1  0.26973445  0.52459696  0.88397889  1
  O  O122  1  0.79188663  -0.00991632  0.36083191  1
  O  O123  1  0.74959303  -0.00010338  0.86585419  1
  O  O124  1  0.72487107  0.40265985  0.46861607  1
  O  O125  1  0.72217734  0.49662423  0.81218544  1
  O  O126  1  0.21563173  0.47588645  0.17213521  1
  O  O127  1  0.25823200  0.50003581  0.63852473  1
  O  O128  1  0.26938067  0.99809227  0.14806879  1
  O  O129  1  0.26497259  1.06115607  0.58387855  1
  O  O130  1  0.73621580  0.50988940  0.11952409  1
  O  O131  1  0.60580075  0.42769756  0.62762441  1
  O  O132  1  0.72109432  0.98861758  0.12323863  1
  O  O133  1  0.71401611  1.00333273  0.65620400  1
  O  O134  1  -0.02374440  0.38804530  0.27024328  1
  O  O135  1  0.04904949  0.35233893  0.76700591  1
  O  O136  1  0.02396507  0.90455988  0.20085609  1
  O  O137  1  0.00271637  0.84894926  0.73057378  1
  O  O138  1  0.51960086  0.36751443  0.20973727  1
  O  O139  1  0.51617311  0.34224339  0.76005229  1
  O  O140  1  0.51597061  0.84901487  0.26129148  1
  O  O141  1  0.49765578  0.87243190  0.75355432  1
  O  O142  1  0.53000536  0.17264780  0.20401021  1
  O  O143  1  0.47968239  0.15555879  0.77223953  1
  O  O144  1  0.49330437  0.64291649  0.27111938  1
  O  O145  1  0.50048524  0.60804796  0.73552497  1
  O  O146  1  0.93098616  0.27202731  0.16074797  1
  O  O147  1  1.00227732  0.11541747  0.74127398  1
  O  O148  1  0.96632763  0.64797736  0.32572402  1
  O  O149  1  0.93163500  0.53157478  0.74650411  1
  O  O150  1  0.38698351  0.25460454  0.04705603  1
  O  O151  1  0.38630315  0.38794955  0.59830618  1
  O  O152  1  0.36209990  0.75768805  -0.03340158  1
  O  O153  1  0.44583944  0.68116903  0.50241558  1
  O  O154  1  0.84440499  0.22527597  -0.05893289  1
  O  O155  1  0.87079713  0.23657444  0.51794191  1
  O  O156  1  0.86397767  0.75946326  -0.01224743  1
  O  O157  1  0.89689199  0.71236499  0.55171448  1
  O  O158  1  0.15638088  0.24599805  0.54322321  1
  O  O159  1  0.10374781  0.29750801  0.99695732  1
  O  O160  1  0.05169233  0.78670941  0.53934977  1
  O  O161  1  0.13627088  0.73280447  0.99019375  1
  O  O162  1  0.63027149  0.24319346  0.47962343  1
  O  O163  1  0.59292169  0.26134080  1.03269563  1
  O  O164  1  0.65339742  0.72950571  0.48604666  1
  O  O165  1  0.62363515  0.74229438  0.99896672  1
  O  O166  1  0.42305288  0.25789410  0.10891392  1
  O  O167  1  0.49702860  0.23989246  0.62803605  1
  O  O168  1  0.51075556  0.74704714  0.14961322  1
  O  O169  1  0.48013740  0.71600260  0.55574477  1
  O  O170  1  0.99414565  0.26952702  0.12745627  1
  O  O171  1  0.99947148  0.12981525  0.54599928  1
  O  O172  1  1.02033195  0.81852998  0.03098285  1
  O  O173  1  0.96144365  0.68932646  0.67926063  1
  O  O174  1  -0.02803938  0.25205003  0.34986615  1
  O  O175  1  0.07885047  0.27438895  0.93253882  1
  O  O176  1  -0.02031933  0.79950071  0.42729011  1
  O  O177  1  -0.02214201  0.73138740  0.85053050  1
  O  O178  1  0.53792044  0.29066027  0.36839993  1
  O  O179  1  0.47562120  0.28595087  0.90882492  1
  O  O180  1  0.52473138  0.76397741  0.36455465  1
  O  O181  1  0.50824161  0.76980030  0.87840531  1
  O  O182  1  0.26763657  0.15998289  0.45131649  1
  O  O183  1  0.24448875  0.10911004  0.98393335  1
  O  O184  1  0.23984028  0.62149529  0.49162233  1
  O  O185  1  0.23283478  0.63045916  0.97947988  1
  O  O186  1  0.75141585  0.11092661  0.50709105  1
  O  O187  1  0.63343826  0.07566374  1.02600036  1
  O  O188  1  0.70513293  0.60067755  0.55764854  1
  O  O189  1  0.74574772  0.65860582  0.99450671  1
  O  O190  1  0.24871352  0.39246755  0.04792705  1
  O  O191  1  0.26160173  0.32852241  0.45191930  1
  O  O192  1  0.25219538  0.84679646  -0.03368395  1
  O  O193  1  0.26177059  0.92501941  0.48795395  1
  O  O194  1  0.78096639  0.39003054  -0.04877699  1
  O  O195  1  0.75332068  0.37476444  0.52807767  1
  O  O196  1  0.75138527  0.87841713  0.00378528  1
  O  O197  1  0.70290128  0.91094825  0.53156489  1
  O  O198  1  0.04409166  0.54204438  0.24932862  1
  O  O199  1  0.14533249  0.47577206  0.75530290  1
  O  O200  1  0.17716688  0.97108661  0.26980596  1
  O  O201  1  0.12765413  1.00180322  0.72522149  1
  O  O202  1  0.63211253  0.54836327  0.24678505  1
  O  O203  1  0.63003163  0.47505991  0.67922359  1
  O  O204  1  0.62752495  0.99982975  0.24296765  1
  O  O205  1  0.62173874  1.02801269  0.77988577  1
  O  O206  1  0.33194510  -0.06845260  0.26160463  1
  O  O207  1  0.36964708  -0.02475917  0.75776217  1
  O  O208  1  0.39238576  0.52376567  0.26813423  1
  O  O209  1  0.35729431  0.52835671  0.76130211  1
  O  O210  1  0.89474825  0.03606067  0.25183470  1
  O  O211  1  0.88248112  0.00260612  0.75277550  1
  O  O212  1  0.83441248  0.56989554  0.30297264  1
  O  O213  1  0.78139269  0.46573738  0.66848835  1
  O  O214  1  0.09355616  0.34118531  0.36955617  1
  O  O215  1  0.15615903  0.39421828  0.88278463  1
  O  O216  1  0.09049813  0.75421878  0.30315899  1
  O  O217  1  0.12504078  0.87467002  0.84524494  1
  O  O218  1  0.60258170  0.41979777  0.34263407  1
  O  O219  1  0.59351234  0.36316034  0.91407903  1
  O  O220  1  0.63993861  0.89175943  0.37128222  1
  O  O221  1  0.60443395  0.87450055  0.88198103  1
  O  O222  1  0.40450797  0.09270956  0.10051417  1
  O  O223  1  0.43461887  0.08341513  0.61888836  1
  O  O224  1  0.37781155  0.63229265  0.15511684  1
  O  O225  1  0.37765701  0.61632329  0.63438924  1
  O  O226  1  0.96579876  0.11658356  0.12983411  1
  O  O227  1  0.87230342  0.11536147  0.63656437  1
  O  O228  1  0.92668908  0.62667729  0.19735956  1
  O  O229  1  0.79749169  0.65752780  0.66826885  1
  O  O230  1  0.23624250  0.27456933  0.14076505  1
  O  O231  1  0.30294398  0.23999520  0.59285041  1
  O  O232  1  0.26239765  0.73681047  0.08418430  1
  O  O233  1  0.22774619  0.88993606  0.65627768  1
  O  O234  1  0.78211151  0.34022105  0.11490025  1
  O  O235  1  0.75985525  0.23825231  0.63018600  1
  O  O236  1  0.74807422  0.77489523  0.09900407  1
  O  O237  1  0.79653133  0.81251958  0.60988080  1
  O  O238  1  0.19505310  0.23212150  0.33564412  1
  O  O239  1  0.30289979  0.23454335  0.88857267  1
  O  O240  1  0.23644087  0.73590895  0.37787990  1
  O  O241  1  0.24572915  0.71833179  0.86839956  1
  O  O242  1  0.75314334  0.25378730  0.37710711  1
  O  O243  1  0.68000974  0.22462878  0.89980758  1
  O  O244  1  0.80426470  0.83268339  0.40823424  1
  O  O245  1  0.72832707  0.77619371  0.89203693  1
  O  O246  1  0.03481084  0.13226757  -0.04844803  1
  O  O247  1  0.02853275  0.06378651  0.54184482  1
  O  O248  1  0.01750249  0.63187042  0.01101351  1
  O  O249  1  0.04818862  0.61997094  0.46382567  1
  O  O250  1  0.46351042  0.10323066  0.06192979  1
  O  O251  1  0.53483819  0.07541758  0.46801923  1
  O  O252  1  0.52069111  0.62599516  0.00609749  1
  O  O253  1  0.60364095  0.68498224  0.44854316  1
  O  O254  1  0.51926966  0.37790398  0.49251739  1
  O  O255  1  0.48646908  0.39613914  1.02581778  1
  O  O256  1  0.52205528  0.86898152  0.47554696  1
  O  O257  1  0.47422475  0.85969857  1.01164657  1
  O  O258  1  1.00843154  0.33183105  0.50247049  1
  O  O259  1  0.93832846  0.34930428  0.99608253  1
  O  O260  1  1.04473608  0.81268161  0.46875056  1
  O  O261  1  0.99559490  0.88621246  1.03045257  1
  O  O262  1  0.48954175  0.49881545  0.38625016  1
  O  O263  1  0.49476865  0.48815529  0.88801031  1
  O  O264  1  0.48926512  0.95746326  0.35054555  1
  O  O265  1  0.48308680  0.98089775  0.87035538  1
  O  O266  1  1.00038169  0.46861368  0.39808210  1
  O  O267  1  0.99709616  0.49182486  0.91733629  1
  O  O268  1  0.99480511  1.02740144  0.36757686  1
  O  O269  1  1.00158161  0.99552326  0.85851778  1
  O  O270  1  -0.02790027  0.04771938  0.10865282  1
  O  O271  1  0.08408650  -0.02265396  0.67436048  1
  O  O272  1  -0.00000071  0.47525128  0.08694646  1
  O  O273  1  0.02938694  0.47570175  0.63040404  1
  O  O274  1  0.50190439  -0.02295516  0.15669176  1
  O  O275  1  0.48010200  0.03357795  0.64130575  1
  O  O276  1  0.52802518  0.51101419  0.13615562  1
  O  O277  1  0.56083074  0.59121510  0.58597553  1
  O  O278  1  0.23906652  0.35792698  0.25008559  1
  O  O279  1  0.26771781  0.40168969  0.76599276  1
  O  O280  1  0.24206223  0.81143024  0.22296605  1
  O  O281  1  0.16652828  0.85850776  0.78964822  1
  O  O282  1  0.73481882  0.40163937  0.26728858  1
  O  O283  1  0.78387863  0.42212485  0.72330114  1
  O  O284  1  0.75500572  0.86962179  0.22165326  1
  O  O285  1  0.74701059  0.90525834  0.74664472  1
  O  O286  1  0.24423272  0.12201906  0.23824821  1
  O  O287  1  0.26776256  0.13653443  0.77285832  1
  O  O288  1  0.26423809  0.63391986  0.26309352  1
  O  O289  1  0.22781204  0.60484455  0.75993517  1
  O  O290  1  0.75312363  0.14259225  0.19543820  1
  O  O291  1  0.75692052  0.11304655  0.76542535  1
  O  O292  1  0.78952341  0.67280142  0.22382844  1
  O  O293  1  0.71887765  0.56003150  0.78083446  1
  O  O294  1  0.34740571  0.22181821  0.32153510  1
  O  O295  1  0.36451381  0.08918116  0.88420738  1
  O  O296  1  0.35305574  0.61165219  0.38133035  1
  O  O297  1  0.41377278  0.61444317  0.87261551  1
  O  O298  1  0.87470974  0.10941658  0.37805997  1
  O  O299  1  0.88553132  0.10953112  0.84538169  1
  O  O300  1  0.84197173  0.69043984  0.37372962  1
  O  O301  1  0.87988943  0.55101978  0.79060762  1
  O  O302  1  0.13276475  0.37122316  0.13512979  1
  O  O303  1  0.07736549  0.42554902  0.61734456  1
  O  O304  1  0.18125535  0.87951914  0.09917448  1
  O  O305  1  0.17126663  0.87522480  0.61576644  1
  O  O306  1  0.64458019  0.41218869  0.15426104  1
  O  O307  1  0.63238253  0.35402691  0.63079967  1
  O  O308  1  0.62999464  0.87968474  0.12344160  1
  O  O309  1  0.63660783  0.85081471  0.64596139  1
  O  O310  1  0.08152388  0.20003132  0.24422422  1
  O  O311  1  0.18880261  0.28299207  0.75085954  1
  O  O312  1  0.08987562  0.74325931  0.23274200  1
  O  O313  1  0.09795364  0.72601625  0.74649099  1
  O  O314  1  0.64038282  0.27872452  0.26862866  1
  O  O315  1  0.56913853  0.28368065  0.77157152  1
  O  O316  1  0.63096935  0.73256742  0.25033157  1
  O  O317  1  0.62936861  0.75278644  0.77548742  1
  O  O318  1  0.47430941  0.15506203  0.24274422  1
  O  O319  1  0.37761911  0.27219762  0.74090042  1
  O  O320  1  0.38155152  0.73415679  0.28178591  1
  O  O321  1  0.37512766  0.71599702  0.75527873  1
  O  O322  1  0.79838571  0.19632083  0.20718292  1
  O  O323  1  0.88304812  0.21734114  0.73503867  1
  O  O324  1  0.88828602  0.76173560  0.26143551  1
  O  O325  1  0.86493085  0.78621114  0.74141288  1
  O  O326  1  0.37207908  0.50345999  0.48475667  1
  O  O327  1  0.37862309  0.52971696  0.99584817  1
  O  O328  1  0.39624320  0.99085934  0.48131956  1
  O  O329  1  0.35634504  0.96535278  0.98165600  1
  O  O330  1  0.89579576  0.43848996  0.54362143  1
  O  O331  1  0.87871340  0.54930799  1.00567272  1
  O  O332  1  0.89857302  0.97153076  0.44672517  1
  O  O333  1  0.88742540  1.02965559  0.96392227  1
  O  O334  1  0.12492469  0.00327952  -0.00807795  1
  O  O335  1  0.18759301  0.07537981  0.58812660  1
  O  O336  1  0.13328719  0.52390667  0.00650990  1
  O  O337  1  0.14634103  0.48619730  0.49272183  1
  O  O338  1  0.61025701  0.00473732  -0.00121117  1
  O  O339  1  0.70354382  0.06445700  0.48115680  1
  O  O340  1  0.65850155  0.53321531  -0.01978243  1
  O  O341  1  0.72264225  0.53445140  0.53930645  1
  O  O342  1  0.33943973  0.39513150  0.15729084  1
  O  O343  1  0.43063203  0.42373593  0.64101411  1
  O  O344  1  0.34416995  0.86459198  0.09754301  1
  O  O345  1  0.38082686  0.86847512  0.58775807  1
  O  O346  1  0.86330013  0.45375178  0.18650338  1
  O  O347  1  0.91027514  0.31384497  0.63359262  1
  O  O348  1  0.85559861  0.91052616  0.11097012  1
  O  O349  1  0.83698791  0.88666365  0.61243878  1
  O  O350  1  0.08346139  0.16840117  0.40855672  1
  O  O351  1  0.15879085  0.13127459  0.87862951  1
  O  O352  1  0.15786117  0.59161610  0.37539225  1
  O  O353  1  0.12113781  0.60716902  0.87260743  1
  O  O354  1  0.63417016  0.14579571  0.35915406  1
  O  O355  1  0.54146728  0.15683913  0.91817744  1
  O  O356  1  0.63524185  0.62850149  0.40536941  1
  O  O357  1  0.61265985  0.64891629  0.88544776  1
