# generated using pymatgen
data_V51Zn51O256
_symmetry_space_group_name_H-M   'P 1'
_cell_length_a   17.57712423
_cell_length_b   17.87603193
_cell_length_c   17.52715260
_cell_angle_alpha   89.68674081
_cell_angle_beta   91.49024851
_cell_angle_gamma   93.81658999
_symmetry_Int_Tables_number   1
_chemical_formula_structural   V51Zn51O256
_chemical_formula_sum   'V51 Zn51 O256'
_cell_volume   5493.08241355
_cell_formula_units_Z   1
loop_
 _symmetry_equiv_pos_site_id
 _symmetry_equiv_pos_as_xyz
  1  'x, y, z'
loop_
 _atom_site_type_symbol
 _atom_site_label
 _atom_site_symmetry_multiplicity
 _atom_site_fract_x
 _atom_site_fract_y
 _atom_site_fract_z
 _atom_site_occupancy
  V  V0  1  0.45892407  0.51871294  0.01791163  1
  V  V1  1  0.25849994  0.57472274  0.75092093  1
  V  V2  1  0.26869339  0.82631638  0.15467530  1
  V  V3  1  0.62115910  0.78584524  0.38316183  1
  V  V4  1  0.38804550  0.59780856  0.26245024  1
  V  V5  1  0.38679974  0.84626498  0.52074204  1
  V  V6  1  0.25232196  0.02566356  0.25681516  1
  V  V7  1  0.63521811  0.64805389  0.53151030  1
  V  V8  1  0.22563445  0.37719561  0.16822261  1
  V  V9  1  0.88682240  0.74582780  0.63550940  1
  V  V10  1  0.81323855  0.22964042  0.47820119  1
  V  V11  1  0.89166237  0.89341078  -0.02814371  1
  V  V12  1  0.30020053  0.08286959  0.40525165  1
  V  V13  1  0.60523044  0.59488262  0.06998858  1
  V  V14  1  0.67825093  0.00869725  0.61339222  1
  V  V15  1  0.22680915  0.76201395  0.49023916  1
  V  V16  1  0.80065838  0.45211063  0.25810101  1
  V  V17  1  0.88595616  0.83127132  0.48882328  1
  V  V18  1  0.36599388  0.57753235  0.88017397  1
  V  V19  1  0.77057813  0.86158838  0.61435881  1
  V  V20  1  0.36909059  0.35402688  -0.04762706  1
  V  V21  1  -0.00300863  0.37537896  0.87662234  1
  V  V22  1  0.05230134  0.15295665  0.14693854  1
  V  V23  1  0.36701210  0.84920956  0.01490463  1
  V  V24  1  0.37404195  0.24318738  0.18546066  1
  V  V25  1  0.23020799  0.00275896  0.77185458  1
  V  V26  1  0.09190688  0.74810408  0.88016343  1
  V  V27  1  0.50795523  0.07970614  0.63748357  1
  V  V28  1  0.14026060  0.43854183  0.76943879  1
  V  V29  1  0.86757100  0.08949592  0.20815121  1
  V  V30  1  0.13667404  -0.04771319  0.14590273  1
  V  V31  1  0.09631063  0.72798761  0.36883063  1
  V  V32  1  0.09463636  0.61625327  0.50642201  1
  V  V33  1  0.87671991  0.41300329  0.55211101  1
  V  V34  1  0.33686346  0.03398366  0.90787370  1
  V  V35  1  0.10203116  0.11444129  -0.02130641  1
  V  V36  1  0.88802731  0.00944089  0.36080425  1
  V  V37  1  0.28107222  0.62049625  0.41723022  1
  V  V38  1  0.73808015  0.67535726  0.38820019  1
  V  V39  1  0.51709921  0.12829561  0.14515100  1
  V  V40  1  0.49100359  0.01986190  0.00596999  1
  V  V41  1  0.07855869  0.29825210  0.37271000  1
  V  V42  1  -0.00749810  0.85864556  0.35611065  1
  V  V43  1  -0.01798218  0.61497054  0.62991310  1
  V  V44  1  0.50990342  0.81075118  0.22648479  1
  V  V45  1  0.68372642  0.10901804  0.44953824  1
  V  V46  1  0.88967386  0.20190924  0.65655947  1
  V  V47  1  0.62785964  0.91596883  0.79293014  1
  V  V48  1  0.61650474  0.75021708  0.87538406  1
  V  V49  1  0.23422095  0.87081857  0.64401088  1
  V  V50  1  0.88194344  0.22162125  0.10152064  1
  Zn  Zn51  1  0.69477224  0.97210544  0.97849146  1
  Zn  Zn52  1  0.88276748  0.86895536  0.76530681  1
  Zn  Zn53  1  0.85949443  0.34175117  0.75234335  1
  Zn  Zn54  1  0.33590141  0.86776969  0.81028739  1
  Zn  Zn55  1  0.07378832  0.29837027  0.04530689  1
  Zn  Zn56  1  0.21036920  0.21016035  0.25338107  1
  Zn  Zn57  1  0.18968656  0.44519159  0.35134890  1
  Zn  Zn58  1  0.24255914  0.71908937  0.26626351  1
  Zn  Zn59  1  0.55878692  0.56506305  0.88614776  1
  Zn  Zn60  1  1.00145421  0.35465013  0.65081119  1
  Zn  Zn61  1  0.26728769  0.09768501  0.07763484  1
  Zn  Zn62  1  0.85412004  0.08941459  0.00699300  1
  Zn  Zn63  1  0.58600117  0.65327670  0.26244504  1
  Zn  Zn64  1  0.71274436  0.11594699  0.10448043  1
  Zn  Zn65  1  0.95012921  0.70179958  0.97119611  1
  Zn  Zn66  1  0.48477714  0.64908605  0.41771471  1
  Zn  Zn67  1  0.77960367  0.54624246  0.10234023  1
  Zn  Zn68  1  0.42549912  0.95671012  0.17924298  1
  Zn  Zn69  1  0.29445915  0.39268130  0.79731966  1
  Zn  Zn70  1  0.22809321  0.94471812  0.99132258  1
  Zn  Zn71  1  0.45732846  -0.00037609  0.79713183  1
  Zn  Zn72  1  0.62819719  0.18803662  0.56149405  1
  Zn  Zn73  1  0.92318312  0.66950266  0.42955478  1
  Zn  Zn74  1  0.63632507  0.43362995  1.00843350  1
  Zn  Zn75  1  0.97512058  0.22540546  0.92686859  1
  Zn  Zn76  1  0.80517824  0.84321736  0.30167690  1
  Zn  Zn77  1  0.91465413  0.41015726  0.13504133  1
  Zn  Zn78  1  0.78245413  0.58010546  0.57508190  1
  Zn  Zn79  1  0.46445569  0.70424462  0.97389592  1
  Zn  Zn80  1  0.04532730  0.56581767  0.80768800  1
  Zn  Zn81  1  0.57545264  0.81761397  0.57857887  1
  Zn  Zn82  1  0.15496617  0.70864555  0.68204004  1
  Zn  Zn83  1  0.05778725  0.81125259  0.55616955  1
  Zn  Zn84  1  0.22107914  0.46044925  0.93494279  1
  Zn  Zn85  1  0.28136830  0.47291450  0.61623176  1
  Zn  Zn86  1  0.84583156  0.05793147  0.55310633  1
  Zn  Zn87  1  0.30712139  0.55394988  0.09416476  1
  Zn  Zn88  1  0.47048599  0.31548174  0.07410297  1
  Zn  Zn89  1  0.03387700  0.44163579  0.46680980  1
  Zn  Zn90  1  0.37076330  0.83534591  0.32766223  1
  Zn  Zn91  1  0.31640322  0.01681042  0.58572752  1
  Zn  Zn92  1  0.93869936  0.91146082  0.18764915  1
  Zn  Zn93  1  0.04855382  -0.03541379  0.84580603  1
  Zn  Zn94  1  0.54280566  0.84303722  0.03523441  1
  Zn  Zn95  1  0.72858807  0.93936618  0.43691694  1
  Zn  Zn96  1  0.17880684  0.91929178  0.37707703  1
  Zn  Zn97  1  0.89566440  0.21617192  0.32240398  1
  Zn  Zn98  1  0.39369455  0.43853761  0.18834430  1
  Zn  Zn99  1  0.00031560  0.25694553  0.52319876  1
  Zn  Zn100  1  0.43439686  0.18559912  0.94043938  1
  Zn  Zn101  1  0.30332251  0.67327740  0.60120461  1
  O  O102  1  0.14559231  0.18211134  0.16571520  1
  O  O103  1  0.09720625  0.03410392  0.46610405  1
  O  O104  1  0.08265511  0.64875168  0.10960207  1
  O  O105  1  0.09507429  0.64181380  0.61119464  1
  O  O106  1  0.61124340  0.14010161  0.12130174  1
  O  O107  1  0.69521187  0.09990606  0.62752183  1
  O  O108  1  0.59320562  0.60829387  0.16560533  1
  O  O109  1  0.59188537  0.71444161  0.58340855  1
  O  O110  1  0.43260694  0.34708893  0.43630895  1
  O  O111  1  0.37120534  0.35337275  0.85264367  1
  O  O112  1  0.39085783  0.87423174  0.42645726  1
  O  O113  1  0.35034660  0.86081423  0.91793571  1
  O  O114  1  0.92757257  0.46206587  0.47214750  1
  O  O115  1  0.90416155  0.38804648  0.85073025  1
  O  O116  1  0.89033951  0.83002555  0.38035113  1
  O  O117  1  0.86290585  0.88299573  0.87381689  1
  O  O118  1  0.27080320  -0.00934125  0.36435150  1
  O  O119  1  0.24054113  -0.00936856  0.88661197  1
  O  O120  1  0.24207808  0.53270953  0.39796636  1
  O  O121  1  0.26475021  0.54132038  0.86772442  1
  O  O122  1  0.80152273  -0.04740687  0.35037863  1
  O  O123  1  0.70330329  0.20500597  0.93189538  1
  O  O124  1  0.83384471  0.49270506  0.34031190  1
  O  O125  1  0.70342671  0.51438031  0.89818410  1
  O  O126  1  0.29190778  0.44886289  0.13288031  1
  O  O127  1  0.27698041  0.57369119  0.64704362  1
  O  O128  1  0.20966990  1.03835211  0.15853256  1
  O  O129  1  0.24817461  0.97369744  0.66717012  1
  O  O130  1  0.80055730  0.43221212  0.15083331  1
  O  O131  1  0.73156607  0.51591023  0.73536832  1
  O  O132  1  0.74951204  1.05903869  0.01844135  1
  O  O133  1  0.77669027  0.97903995  0.60230969  1
  O  O134  1  0.03131628  0.43469132  0.15805593  1
  O  O135  1  0.05406675  0.45523031  0.83038700  1
  O  O136  1  -0.01188784  0.84147362  0.26244267  1
  O  O137  1  -0.03075314  0.93377272  0.77520049  1
  O  O138  1  0.54291350  0.45192919  0.33706225  1
  O  O139  1  0.45309180  0.32554375  0.64473290  1
  O  O140  1  0.50358854  0.90567049  0.23876601  1
  O  O141  1  0.53360671  0.92830742  0.80318910  1
  O  O142  1  0.51123275  0.11522373  0.23659798  1
  O  O143  1  0.50163491  0.07629316  0.73520619  1
  O  O144  1  0.48075258  0.62623068  0.30300944  1
  O  O145  1  0.38326576  0.73819928  0.73573509  1
  O  O146  1  1.01200196  0.11689853  0.22456754  1
  O  O147  1  1.04634028  0.02771077  0.63980358  1
  O  O148  1  0.95900013  0.67677541  0.20850996  1
  O  O149  1  0.99549811  0.61704759  0.72774160  1
  O  O150  1  0.38904408  0.26690470  -0.00642689  1
  O  O151  1  0.21485359  0.26475364  0.62712910  1
  O  O152  1  0.39206033  0.76067669  0.02803616  1
  O  O153  1  0.34155451  0.75527717  0.51770988  1
  O  O154  1  0.89991417  0.18968032  -0.00624272  1
  O  O155  1  0.90895356  0.20752383  0.48269473  1
  O  O156  1  0.89316789  0.79302565  -0.02021066  1
  O  O157  1  0.87201155  0.73668472  0.50128537  1
  O  O158  1  0.08785675  0.25823639  0.46215513  1
  O  O159  1  0.08003762  0.21015101  0.96647792  1
  O  O160  1  0.12201767  0.74166020  0.48845487  1
  O  O161  1  0.05829551  0.74704383  0.98025722  1
  O  O162  1  0.70142401  0.21928508  0.48814043  1
  O  O163  1  0.56717971  0.28740889  0.93100360  1
  O  O164  1  0.66812559  0.72923234  0.45652277  1
  O  O165  1  0.65600611  0.66647869  1.03782731  1
  O  O166  1  0.46837029  0.21616594  0.13187284  1
  O  O167  1  0.54425788  0.17282567  0.62261332  1
  O  O168  1  0.52190317  0.79043630  0.13269964  1
  O  O169  1  0.39674636  0.72070961  0.66354945  1
  O  O170  1  1.00699483  0.23407397  0.11400358  1
  O  O171  1  0.98365197  0.24392787  0.63391822  1
  O  O172  1  0.89988321  0.70486911  0.22470392  1
  O  O173  1  0.98702633  0.74121881  0.61436444  1
  O  O174  1  -0.01198270  0.27659572  0.33742100  1
  O  O175  1  0.01111764  0.28804277  0.84172343  1
  O  O176  1  -0.00194826  0.72712947  0.36482942  1
  O  O177  1  -0.01430306  0.73794799  0.86771510  1
  O  O178  1  0.57496896  0.32460737  0.33022723  1
  O  O179  1  0.51231962  0.25945355  0.88092560  1
  O  O180  1  0.53086915  0.75456960  0.41351943  1
  O  O181  1  0.54890663  0.77643296  0.94703209  1
  O  O182  1  0.27475433  0.06916567  0.49912927  1
  O  O183  1  0.19797731  0.11385083  0.99319712  1
  O  O184  1  0.23211514  0.63979744  0.50749085  1
  O  O185  1  0.20201421  0.57471624  1.04502656  1
  O  O186  1  0.78915140  0.12318605  0.48487452  1
  O  O187  1  0.74949607  0.23770001  0.88291228  1
  O  O188  1  0.73384105  0.62126962  0.47732259  1
  O  O189  1  0.67902621  0.51979320  1.07175780  1
  O  O190  1  0.28532953  0.38634656  -0.02067458  1
  O  O191  1  0.26241530  0.37237940  0.42121358  1
  O  O192  1  0.26519992  0.85319138  0.03801776  1
  O  O193  1  0.22810159  0.85231135  0.46537225  1
  O  O194  1  0.73036177  0.36314991  0.00154581  1
  O  O195  1  0.82597170  0.33866607  0.50607396  1
  O  O196  1  0.79438638  0.89431073  -0.00749003  1
  O  O197  1  0.79672269  0.87465734  0.49603506  1
  O  O198  1  0.03657881  0.61084226  0.06905683  1
  O  O199  1  0.14949577  0.53882054  0.75861051  1
  O  O200  1  0.17284153  0.95921014  0.26490705  1
  O  O201  1  0.13661812  0.96951459  0.77981475  1
  O  O202  1  0.70488933  0.46339801  0.26497976  1
  O  O203  1  0.58564259  0.47448530  0.79232587  1
  O  O204  1  0.68333837  0.85621311  0.11412691  1
  O  O205  1  0.66242318  0.96646589  0.71136738  1
  O  O206  1  0.33977674  0.00147728  0.22952887  1
  O  O207  1  0.34388719  -0.01891190  0.79965027  1
  O  O208  1  0.38165843  0.50225648  0.27459850  1
  O  O209  1  0.36020517  0.58012974  0.77566982  1
  O  O210  1  0.89781152  -0.00136598  0.23601496  1
  O  O211  1  0.80071816  0.06148085  0.80301340  1
  O  O212  1  0.89953504  0.42049727  0.24702901  1
  O  O213  1  0.78275179  0.47172187  0.75274519  1
  O  O214  1  0.09154113  0.40091746  0.38527061  1
  O  O215  1  0.18744579  0.39358477  0.84676364  1
  O  O216  1  0.09594179  0.83860337  0.37354023  1
  O  O217  1  0.09582213  0.84550938  0.86987662  1
  O  O218  1  0.61392554  0.32686051  0.38929277  1
  O  O219  1  0.59497979  0.35667536  0.91472478  1
  O  O220  1  0.63382377  0.87740459  0.40585518  1
  O  O221  1  0.67823885  0.94742458  0.87246547  1
  O  O222  1  0.32076817  0.17067558  0.13916612  1
  O  O223  1  0.41820831  0.06026565  0.59863416  1
  O  O224  1  0.37246325  0.61187143  0.16725099  1
  O  O225  1  0.47300487  0.53429947  0.60806083  1
  O  O226  1  0.90003874  0.10057584  0.11272942  1
  O  O227  1  0.89168661  0.10559154  0.64399977  1
  O  O228  1  0.85725090  0.51310850  0.02658581  1
  O  O229  1  0.87548297  0.64011700  0.62213880  1
  O  O230  1  0.27409627  0.29692873  0.20075749  1
  O  O231  1  0.28008189  0.26122262  0.65366182  1
  O  O232  1  0.25739762  0.73199385  0.14756415  1
  O  O233  1  0.23000510  0.76071500  0.60617306  1
  O  O234  1  0.78561121  0.20748161  0.09057252  1
  O  O235  1  0.81843963  0.23210195  0.59910113  1
  O  O236  1  0.82771755  0.65603519  0.07370453  1
  O  O237  1  0.77851943  0.76240157  0.61640738  1
  O  O238  1  0.29213668  0.21285715  0.42804460  1
  O  O239  1  0.20998390  0.23517335  0.82771404  1
  O  O240  1  0.24540250  0.72346018  0.39545462  1
  O  O241  1  0.18261488  0.74922910  0.91896246  1
  O  O242  1  0.80831549  0.24391946  0.38069312  1
  O  O243  1  0.61380448  0.32847442  0.69699662  1
  O  O244  1  0.72869588  0.77241093  0.34398285  1
  O  O245  1  0.70171619  0.74934529  0.91308674  1
  O  O246  1  0.05532848  0.08765312  0.06445464  1
  O  O247  1  0.10373430  0.08030005  0.52051340  1
  O  O248  1  -0.09890417  0.66755372  0.06711022  1
  O  O249  1  -0.00512430  0.62490722  0.50132708  1
  O  O250  1  0.49034421  0.11895505  0.00164666  1
  O  O251  1  0.58998259  0.12474828  0.46949711  1
  O  O252  1  0.50085939  0.61675597  0.02873882  1
  O  O253  1  0.56068736  0.60019470  0.48094370  1
  O  O254  1  0.48400646  0.36446941  0.48277083  1
  O  O255  1  0.44726488  0.40815916  0.99441534  1
  O  O256  1  0.47580540  0.84722422  0.56136356  1
  O  O257  1  0.45706129  0.91196957  1.02529246  1
  O  O258  1  0.98812112  0.36902913  0.53841379  1
  O  O259  1  1.01438606  0.36559690  0.97417693  1
  O  O260  1  0.98738623  0.85648903  0.48359292  1
  O  O261  1  0.98678402  0.91333474  0.93531663  1
  O  O262  1  0.58428367  0.46359662  0.39370103  1
  O  O263  1  0.44977187  0.52821927  0.88966843  1
  O  O264  1  0.54390526  1.01736337  0.35183370  1
  O  O265  1  0.43757841  1.00862382  0.91152220  1
  O  O266  1  1.05030799  0.49937178  0.18276239  1
  O  O267  1  0.95518866  0.55363642  0.89427662  1
  O  O268  1  0.97825678  0.95599181  0.35734263  1
  O  O269  1  0.85413409  1.08934948  0.84292064  1
  O  O270  1  0.04280774  -0.05045264  0.16401395  1
  O  O271  1  0.00510633  -0.02640785  0.61926768  1
  O  O272  1  -0.07782344  0.49318368  0.05421546  1
  O  O273  1  -0.02686135  0.52435374  0.61326608  1
  O  O274  1  0.47619617  0.03138397  0.11284437  1
  O  O275  1  0.57029973  0.01218410  0.60352309  1
  O  O276  1  0.46227319  0.49467207  0.11079670  1
  O  O277  1  0.43068670  0.48018108  0.62813264  1
  O  O278  1  0.18856895  0.41666112  0.24617668  1
  O  O279  1  0.24701898  0.44770694  0.72090651  1
  O  O280  1  0.28166159  0.82959404  0.26036469  1
  O  O281  1  0.25077689  0.84221487  0.73642110  1
  O  O282  1  0.77396713  0.36017645  0.28302144  1
  O  O283  1  0.75997794  0.39703298  0.75244859  1
  O  O284  1  0.72148364  0.89747270  0.16044468  1
  O  O285  1  0.79041159  0.88161331  0.70897242  1
  O  O286  1  0.25000049  0.11740357  0.30466746  1
  O  O287  1  0.23300252  0.09317344  0.76177585  1
  O  O288  1  0.30674082  0.63863074  0.30589522  1
  O  O289  1  0.23613969  0.66481405  0.75053814  1
  O  O290  1  0.77269566  0.07541963  0.19321292  1
  O  O291  1  0.64922662  0.17201983  0.79242720  1
  O  O292  1  0.81551606  0.54525659  0.20930651  1
  O  O293  1  0.75757583  0.56219239  0.90327813  1
  O  O294  1  0.39179528  0.09009154  0.39952800  1
  O  O295  1  0.34818290  0.12713378  0.88883130  1
  O  O296  1  0.37538337  0.61855276  0.44391810  1
  O  O297  1  0.38440023  0.66891776  0.89852178  1
  O  O298  1  0.88075899  0.10284311  0.32445986  1
  O  O299  1  0.71774168  0.26826185  0.82308187  1
  O  O300  1  0.83140664  0.65901684  0.36730245  1
  O  O301  1  0.91226170  0.60251259  0.92103979  1
  O  O302  1  0.15531952  0.35402981  0.10066702  1
  O  O303  1  0.09647892  0.38520477  0.69969055  1
  O  O304  1  0.17392888  0.86095178  0.15382712  1
  O  O305  1  0.13866663  0.86605460  0.61921233  1
  O  O306  1  0.58670533  0.35379415  0.08729202  1
  O  O307  1  0.55688710  0.47807497  0.72723647  1
  O  O308  1  0.64332508  0.89868720  0.05485952  1
  O  O309  1  0.67163764  0.87012381  0.59444996  1
  O  O310  1  0.14951369  0.26653715  0.31897918  1
  O  O311  1  0.15404651  0.23176379  0.78434521  1
  O  O312  1  0.13103120  0.71935977  0.27998574  1
  O  O313  1  0.10779782  0.74354088  0.78196968  1
  O  O314  1  0.62911628  0.31672833  0.13280283  1
  O  O315  1  0.58667982  0.31888488  0.76017028  1
  O  O316  1  0.59167152  0.76940200  0.27700886  1
  O  O317  1  0.62814362  0.81537512  0.79418984  1
  O  O318  1  0.38759355  0.22171230  0.27478411  1
  O  O319  1  0.43652966  0.28074675  0.69589682  1
  O  O320  1  0.42818561  0.76939376  0.26627078  1
  O  O321  1  0.41404045  0.80574091  0.75804358  1
  O  O322  1  0.88147448  0.20063088  0.20874956  1
  O  O323  1  0.87072057  0.23395094  0.74832967  1
  O  O324  1  0.84714859  0.84792176  0.20309092  1
  O  O325  1  0.89116512  0.76524478  0.73014699  1
  O  O326  1  0.24476622  0.37909799  0.49165224  1
  O  O327  1  0.36143801  0.54371583  0.99636605  1
  O  O328  1  0.50992024  0.98541601  0.40300344  1
  O  O329  1  0.32422687  1.02331807  1.00875825  1
  O  O330  1  0.81225931  0.47915172  0.56520523  1
  O  O331  1  0.78440688  0.38032280  0.95822622  1
  O  O332  1  0.89463604  1.02266560  0.45679996  1
  O  O333  1  0.89175829  0.99256268  0.97741405  1
  O  O334  1  0.13936084  -0.04089452  0.04673566  1
  O  O335  1  0.13612729  -0.02918515  0.47405605  1
  O  O336  1  0.16344526  0.51865368  0.01155952  1
  O  O337  1  0.10527425  0.52299693  0.50943328  1
  O  O338  1  0.58107142  0.00485249  -0.00994396  1
  O  O339  1  0.67973549  0.01237601  0.49821066  1
  O  O340  1  0.56501061  0.51063910  -0.01511668  1
  O  O341  1  0.67489782  0.59323418  0.60186267  1
  O  O342  1  0.41623597  0.34019448  0.16495990  1
  O  O343  1  0.30930167  0.40813150  0.53885333  1
  O  O344  1  0.36300340  0.86932900  0.13554908  1
  O  O345  1  0.32367103  0.89681485  0.58110085  1
  O  O346  1  0.89468506  0.31715837  0.09056196  1
  O  O347  1  0.89664461  0.38557207  0.65385432  1
  O  O348  1  0.92520250  0.88919764  0.06761398  1
  O  O349  1  0.89067957  0.84875178  0.59758367  1
  O  O350  1  0.28662317  0.23349410  0.49514364  1
  O  O351  1  0.06773070  0.05736566  0.90460777  1
  O  O352  1  0.10817340  0.63283201  0.40274403  1
  O  O353  1  0.08970872  0.64697054  0.87689949  1
  O  O354  1  0.69044257  0.09332685  0.35834115  1
  O  O355  1  0.64131188  0.13885784  0.85298559  1
  O  O356  1  0.67352748  0.62763062  0.32721884  1
  O  O357  1  0.58636800  0.65873674  0.84668971  1
