# generated using pymatgen
data_V51Zn51O256
_symmetry_space_group_name_H-M   'P 1'
_cell_length_a   17.27206733
_cell_length_b   17.32676302
_cell_length_c   17.32399238
_cell_angle_alpha   89.98681940
_cell_angle_beta   89.66935942
_cell_angle_gamma   89.90172357
_symmetry_Int_Tables_number   1
_chemical_formula_structural   V51Zn51O256
_chemical_formula_sum   'V51 Zn51 O256'
_cell_volume   5184.44009767
_cell_formula_units_Z   1
loop_
 _symmetry_equiv_pos_site_id
 _symmetry_equiv_pos_as_xyz
  1  'x, y, z'
loop_
 _atom_site_type_symbol
 _atom_site_label
 _atom_site_symmetry_multiplicity
 _atom_site_fract_x
 _atom_site_fract_y
 _atom_site_fract_z
 _atom_site_occupancy
  V  V0  1  0.37898718  0.79940607  0.14867683  1
  V  V1  1  0.42540151  0.15614597  0.13914547  1
  V  V2  1  0.23000802  0.42538176  0.07837408  1
  V  V3  1  0.39761385  0.46709903  0.83192384  1
  V  V4  1  0.88261999  0.11416451  0.25357483  1
  V  V5  1  0.50773330  0.85124462  0.36587148  1
  V  V6  1  0.76341714  0.34348127  0.13154594  1
  V  V7  1  0.90168396  0.36109123  0.48321307  1
  V  V8  1  0.49904073  0.09760992  0.63289546  1
  V  V9  1  0.00289062  0.37763691  0.88387309  1
  V  V10  1  0.02281627  -0.02371219  0.01548346  1
  V  V11  1  0.24264506  0.26006851  0.47155189  1
  V  V12  1  0.03840148  0.10425491  0.15180721  1
  V  V13  1  0.73855165  0.38984796  0.61264956  1
  V  V14  1  0.00945555  0.77366127  0.78215464  1
  V  V15  1  0.73110273  0.77152756  0.01824491  1
  V  V16  1  0.77158676  0.21712863  0.48995219  1
  V  V17  1  0.36159079  0.87509473  0.50607348  1
  V  V18  1  0.24517242  0.15113005  0.85840911  1
  V  V19  1  0.26784114  0.71280848  0.50294516  1
  V  V20  1  0.85106115  0.72347303  0.62207235  1
  V  V21  1  0.73947285  -0.02065567  0.27047718  1
  V  V22  1  0.52687998  0.32499323  0.88447634  1
  V  V23  1  0.48036452  0.59884082  0.11005404  1
  V  V24  1  0.69316628  0.13084566  -0.02756682  1
  V  V25  1  0.11290098  0.25981223  0.82626059  1
  V  V26  1  0.88272930  -0.02529558  0.37206534  1
  V  V27  1  0.10448154  0.66309803  -0.00326695  1
  V  V28  1  0.24223456  -0.00333556  0.30561955  1
  V  V29  1  -0.02836798  0.61477227  0.56720532  1
  V  V30  1  0.07622525  0.49880133  0.63644187  1
  V  V31  1  0.37761579  0.63683059  0.24959297  1
  V  V32  1  0.87280484  0.84248512  0.49048581  1
  V  V33  1  0.44250356  0.73439498  0.78164030  1
  V  V34  1  0.11702927  0.70536830  0.38632642  1
  V  V35  1  0.73009076  0.62558182  0.36259161  1
  V  V36  1  0.13993518  0.88571369  0.71362121  1
  V  V37  1  0.14742148  -0.05147239  0.15698145  1
  V  V38  1  0.63010240  0.09623004  0.50258502  1
  V  V39  1  0.64668991  0.74494628  0.86435369  1
  V  V40  1  0.13308841  0.85568479  0.30536544  1
  V  V41  1  0.23336909  0.54715408  0.21532777  1
  V  V42  1  -0.03165428  0.75770168  0.24609267  1
  V  V43  1  0.71507080  0.73999331  0.48846995  1
  V  V44  1  -0.02156153  -0.01407264  0.52758927  1
  V  V45  1  0.49666314  0.29807251  0.28727457  1
  V  V46  1  0.66315842  0.31936791  0.77921081  1
  V  V47  1  0.62465086  0.61584962  -0.00466543  1
  V  V48  1  0.93001171  0.23900180  0.09554563  1
  V  V49  1  0.39307698  0.24540852  0.61681624  1
  V  V50  1  0.13364255  0.10204892  0.49236876  1
  Zn  Zn51  1  0.04197411  0.58154544  0.16927786  1
  Zn  Zn52  1  0.45668076  0.90041362  0.67839672  1
  Zn  Zn53  1  0.79283121  0.80572333  0.31496148  1
  Zn  Zn54  1  0.47454899  0.37246580  0.69883951  1
  Zn  Zn55  1  0.96689379  0.91589882  0.20066221  1
  Zn  Zn56  1  0.79177914  0.02647144  0.55272464  1
  Zn  Zn57  1  0.42544061  0.15809331  0.93410716  1
  Zn  Zn58  1  0.05001367  0.79191790  0.56177617  1
  Zn  Zn59  1  0.08441269  0.05031420  0.82457490  1
  Zn  Zn60  1  0.20514256  0.74028770  0.18032008  1
  Zn  Zn61  1  0.68267275  0.92870503  0.44552974  1
  Zn  Zn62  1  0.66804554  0.68328385  0.67003619  1
  Zn  Zn63  1  0.33551423  0.29098996  0.81400852  1
  Zn  Zn64  1  0.49967382  0.74404120  -0.01066348  1
  Zn  Zn65  1  1.02991772  0.42474563  0.07724088  1
  Zn  Zn66  1  0.79431024  0.54939829  0.53760676  1
  Zn  Zn67  1  0.05846809  0.03939355  0.33569639  1
  Zn  Zn68  1  0.18278641  1.00931646  0.96509483  1
  Zn  Zn69  1  0.93867434  0.79088690  1.05139344  1
  Zn  Zn70  1  0.56464816  0.15194880  0.80968339  1
  Zn  Zn71  1  0.55644875  0.58050567  0.80338298  1
  Zn  Zn72  1  0.56456917  0.67328895  0.28461319  1
  Zn  Zn73  1  0.39315228  0.43781958  0.18058829  1
  Zn  Zn74  1  0.75499606  0.43432970  0.43800792  1
  Zn  Zn75  1  0.87298971  0.09461429  0.03852694  1
  Zn  Zn76  1  0.94426652  0.15492047  0.44120790  1
  Zn  Zn77  1  0.84865087  0.79401478  0.88496919  1
  Zn  Zn78  1  0.21096483  0.39253352  0.87847902  1
  Zn  Zn79  1  0.68245955  0.66534268  0.16103287  1
  Zn  Zn80  1  0.58587227  0.26239621  0.06190014  1
  Zn  Zn81  1  0.05422338  0.58020304  0.80354699  1
  Zn  Zn82  1  0.65947177  0.92483918  0.91851885  1
  Zn  Zn83  1  0.79744190  0.28725039  0.31937100  1
  Zn  Zn84  1  0.15830953  0.57615254  0.49906858  1
  Zn  Zn85  1  0.21951141  0.35657608  0.30084989  1
  Zn  Zn86  1  0.43310072  0.60514738  0.91264879  1
  Zn  Zn87  1  0.11886433  0.28159250  0.14883278  1
  Zn  Zn88  1  0.91405564  0.67404175  0.39190709  1
  Zn  Zn89  1  0.89168534  0.90320219  0.68092853  1
  Zn  Zn90  1  0.29883963  0.79035577  0.66574554  1
  Zn  Zn91  1  0.92827817  0.41968030  0.65848880  1
  Zn  Zn92  1  0.17882987  0.93911627  0.49959979  1
  Zn  Zn93  1  1.05501405  0.18035700  0.97122089  1
  Zn  Zn94  1  0.84162213  0.27286396  0.85147549  1
  Zn  Zn95  1  0.42039861  0.97224799  0.23468136  1
  Zn  Zn96  1  0.32787161  0.07261019  0.53147005  1
  Zn  Zn97  1  0.09573823  0.38964928  0.49158562  1
  Zn  Zn98  1  0.48523204  0.20064519  0.47176245  1
  Zn  Zn99  1  0.31563488  0.79550558  0.34160143  1
  Zn  Zn100  1  0.24592539  0.18385124  0.23199219  1
  Zn  Zn101  1  0.63487547  0.40777210  0.99007198  1
  O  O102  1  0.13018854  0.10609196  0.17677796  1
  O  O103  1  0.10065817  0.15406096  0.56213467  1
  O  O104  1  0.14147382  0.70379371  0.08390763  1
  O  O105  1  0.07358686  0.60510462  0.57745578  1
  O  O106  1  0.62261696  0.16038387  0.03649420  1
  O  O107  1  0.59904837  0.09668500  0.62131232  1
  O  O108  1  0.59480965  0.62616759  0.10331608  1
  O  O109  1  0.63492529  0.56047934  0.71792305  1
  O  O110  1  0.38999578  0.44880995  0.40740544  1
  O  O111  1  0.43730167  0.37086219  0.88186861  1
  O  O112  1  0.40666061  0.84632794  0.40833247  1
  O  O113  1  0.43382046  1.01974532  0.83906854  1
  O  O114  1  0.82546965  0.36452922  0.39268483  1
  O  O115  1  0.90800574  0.34629595  0.89796127  1
  O  O116  1  0.86327887  0.86611556  0.38719471  1
  O  O117  1  0.83282966  0.87442191  0.78975715  1
  O  O118  1  0.19782057  -0.00590435  0.39572211  1
  O  O119  1  0.25567239  0.06829554  0.91714155  1
  O  O120  1  0.38011316  0.51654570  0.42363279  1
  O  O121  1  0.23638469  0.42473820  0.69031305  1
  O  O122  1  0.76281644  -0.01918723  0.37230022  1
  O  O123  1  0.75668953  -0.04407712  0.85882698  1
  O  O124  1  0.70220535  0.51094295  0.36469628  1
  O  O125  1  0.79248072  0.46685448  0.88531830  1
  O  O126  1  0.23676146  0.52299717  0.11338382  1
  O  O127  1  0.33493367  0.43468118  0.55488498  1
  O  O128  1  0.23564831  0.98066774  0.18504088  1
  O  O129  1  0.28612131  1.01382382  0.67558556  1
  O  O130  1  0.77242582  0.45386595  0.11950652  1
  O  O131  1  0.81331610  0.42451243  0.66582752  1
  O  O132  1  0.74994781  0.95468543  0.12133876  1
  O  O133  1  0.81769849  0.99408874  0.66160399  1
  O  O134  1  0.05923855  0.43930649  0.27769535  1
  O  O135  1  -0.03249158  0.42190271  0.78126009  1
  O  O136  1  0.02444846  0.84311250  0.27202560  1
  O  O137  1  -0.03286010  0.82608481  0.71168506  1
  O  O138  1  0.42860145  0.36409135  0.25585816  1
  O  O139  1  0.54309316  0.33704000  0.77614160  1
  O  O140  1  0.49754989  0.90352429  0.28356395  1
  O  O141  1  0.46732723  0.96116391  0.80900735  1
  O  O142  1  0.50020896  0.21513902  0.20947682  1
  O  O143  1  0.49578678  0.13053672  0.72697621  1
  O  O144  1  0.48686803  0.62965215  0.21983413  1
  O  O145  1  0.49149546  0.65541290  0.74514190  1
  O  O146  1  0.99132797  0.08844711  0.25167999  1
  O  O147  1  0.97087268  0.07836279  0.79503620  1
  O  O148  1  1.00029196  0.67837749  0.19805498  1
  O  O149  1  1.01365718  0.67556693  0.76387567  1
  O  O150  1  0.26362686  0.21481068  -0.00232520  1
  O  O151  1  0.37096521  0.15167111  0.44952417  1
  O  O152  1  0.45431743  0.88910627  -0.05514943  1
  O  O153  1  0.36129243  0.74083475  0.50339531  1
  O  O154  1  0.93408126  0.19557902  0.00512093  1
  O  O155  1  0.88541454  0.25041587  0.46445738  1
  O  O156  1  0.83698787  0.78023148  0.00256267  1
  O  O157  1  0.86445048  0.74280425  0.47545188  1
  O  O158  1  0.20690859  0.16965045  0.44438506  1
  O  O159  1  0.13889929  0.24041309  1.03648564  1
  O  O160  1  0.10189433  0.72975744  0.48254640  1
  O  O161  1  0.12006729  0.74584268  0.94219842  1
  O  O162  1  0.67559388  0.18841837  0.52698100  1
  O  O163  1  0.72387128  0.23451036  0.96041546  1
  O  O164  1  0.62202958  0.73946585  0.49999346  1
  O  O165  1  0.61674964  0.74116406  0.98131780  1
  O  O166  1  0.49316126  0.24990389  0.13288290  1
  O  O167  1  0.49099056  0.21387780  0.58513939  1
  O  O168  1  0.45526798  0.78170685  0.08278190  1
  O  O169  1  0.48355095  0.81884374  0.74626967  1
  O  O170  1  1.02349412  0.21378212  0.15109291  1
  O  O171  1  0.95902070  0.18314113  0.64523184  1
  O  O172  1  0.93104850  0.81229974  0.16268736  1
  O  O173  1  0.96429296  0.71503584  0.59709466  1
  O  O174  1  -0.00077678  0.30889020  0.29430115  1
  O  O175  1  0.03266320  0.26932334  0.89636877  1
  O  O176  1  0.01793993  0.71125476  0.35090053  1
  O  O177  1  -0.04457697  0.78759822  0.86566133  1
  O  O178  1  0.48750862  0.25836430  0.38022014  1
  O  O179  1  0.51334484  0.22443086  0.88822122  1
  O  O180  1  0.53770328  0.75909133  0.34386313  1
  O  O181  1  0.44735314  0.72030930  0.88668000  1
  O  O182  1  0.21898058  0.04748621  0.53354255  1
  O  O183  1  0.21063365  0.19408552  1.04400827  1
  O  O184  1  0.26294376  0.61223197  0.50671470  1
  O  O185  1  0.19735876  0.62699972  0.98463823  1
  O  O186  1  0.81168480  0.12990638  0.51444999  1
  O  O187  1  0.76470913  0.08404868  1.02063743  1
  O  O188  1  0.73934541  0.62856310  0.47122244  1
  O  O189  1  0.71848142  0.64692996  1.01074481  1
  O  O190  1  0.23142805  0.42776376  -0.01990631  1
  O  O191  1  0.16544241  0.30624881  0.51048443  1
  O  O192  1  0.33608006  0.93416137  0.00028594  1
  O  O193  1  0.26355244  0.86792772  0.49756114  1
  O  O194  1  0.83972011  0.41702051  0.10023734  1
  O  O195  1  0.71016541  0.46453807  0.54649616  1
  O  O196  1  0.70168800  0.86548938  0.00459943  1
  O  O197  1  0.74460917  0.84031006  0.48717787  1
  O  O198  1  0.13894002  0.57607596  0.22176648  1
  O  O199  1  0.11467004  0.53354102  0.72146172  1
  O  O200  1  0.11716957  0.96361534  0.27002341  1
  O  O201  1  0.11713693  0.97703898  0.74803686  1
  O  O202  1  0.58436609  0.48037355  0.24326749  1
  O  O203  1  0.74014671  0.50392387  0.85528430  1
  O  O204  1  0.64926646  1.00182190  0.25773122  1
  O  O205  1  0.64932805  0.97457327  0.70013292  1
  O  O206  1  0.34054027  -0.01333686  0.31507026  1
  O  O207  1  0.33015905  0.00297290  0.72902179  1
  O  O208  1  0.35442952  0.53625799  0.23162115  1
  O  O209  1  0.42024971  0.46557037  0.73473143  1
  O  O210  1  0.89075568  -0.03986442  0.27334544  1
  O  O211  1  0.79016985  0.04836136  0.72322333  1
  O  O212  1  0.84595702  0.56205817  0.19371245  1
  O  O213  1  0.86880708  0.57076113  0.77902108  1
  O  O214  1  0.13674537  0.40727892  0.37861154  1
  O  O215  1  0.11012247  0.36918110  0.83405398  1
  O  O216  1  0.11329506  0.85751810  0.39886194  1
  O  O217  1  0.26584398  0.84820674  0.88188159  1
  O  O218  1  0.64212696  0.48131570  0.20249033  1
  O  O219  1  0.63469858  0.35933108  0.87664975  1
  O  O220  1  0.57817599  0.89605813  0.41974379  1
  O  O221  1  0.61025413  0.83879691  0.86541780  1
  O  O222  1  0.33546171  0.18655561  0.16415363  1
  O  O223  1  0.38677001  0.12956689  0.60758843  1
  O  O224  1  0.39150126  0.63779656  0.11273928  1
  O  O225  1  0.46688559  0.62765676  0.52667667  1
  O  O226  1  0.90994075  0.12763276  0.14199333  1
  O  O227  1  0.89023830  0.17451701  0.65834470  1
  O  O228  1  0.81757076  0.61675087  0.15810540  1
  O  O229  1  0.85928008  0.61852926  0.59547447  1
  O  O230  1  0.18577473  0.27415259  0.23534210  1
  O  O231  1  0.31412703  0.25571477  0.54917625  1
  O  O232  1  0.28893356  0.77979059  0.11352848  1
  O  O233  1  0.23040816  0.74298947  0.59237556  1
  O  O234  1  0.82831110  0.26411071  0.11045085  1
  O  O235  1  0.76382694  0.31110764  0.55400079  1
  O  O236  1  0.72400577  0.75749478  0.11571234  1
  O  O237  1  0.74385911  0.71864420  0.59513011  1
  O  O238  1  0.27037753  0.30961855  0.39059893  1
  O  O239  1  0.21781894  0.26329989  0.84215463  1
  O  O240  1  0.23472181  0.73709809  0.40426722  1
  O  O241  1  0.30487103  0.79942600  0.91542303  1
  O  O242  1  0.74629228  0.22032485  0.39599786  1
  O  O243  1  0.77065247  0.19365004  0.90732408  1
  O  O244  1  0.72672351  0.73327675  0.37721201  1
  O  O245  1  0.74381088  0.75257578  0.89222664  1
  O  O246  1  0.04880858  0.09391051  0.04656940  1
  O  O247  1  -0.04667012  0.08029759  0.52587208  1
  O  O248  1  0.01068711  0.70660607  0.01819522  1
  O  O249  1  -0.04269547  0.60267221  0.47160135  1
  O  O250  1  0.42846432  0.14096423  0.04086052  1
  O  O251  1  0.52516014  0.09653654  0.50004421  1
  O  O252  1  0.49970896  0.62205466  0.00292967  1
  O  O253  1  0.60800736  0.60904394  0.60076941  1
  O  O254  1  0.54615961  0.42268403  0.49783331  1
  O  O255  1  0.54361691  0.33920502  0.98879510  1
  O  O256  1  0.50960677  1.05036286  0.35035152  1
  O  O257  1  0.48827477  0.93964012  0.98117296  1
  O  O258  1  0.99275368  0.37996032  0.44871665  1
  O  O259  1  1.03063006  0.42125312  0.96579699  1
  O  O260  1  0.97194287  0.85951543  0.50517891  1
  O  O261  1  1.00258715  0.88052485  1.02128781  1
  O  O262  1  0.56915082  0.41498245  0.42744430  1
  O  O263  1  0.49249998  0.51033048  0.86370443  1
  O  O264  1  0.53174697  1.10637188  0.31421079  1
  O  O265  1  0.48245872  1.06864779  0.88089535  1
  O  O266  1  1.08137436  0.45804587  0.34375496  1
  O  O267  1  0.98658497  0.48227228  0.83176986  1
  O  O268  1  0.97914714  0.97450993  0.40057996  1
  O  O269  1  1.07593915  0.99415272  0.92536416  1
  O  O270  1  0.03016797  -0.01501794  0.13752105  1
  O  O271  1  -0.03146124  -0.03416996  0.62251847  1
  O  O272  1  -0.01561970  0.49606945  0.14435359  1
  O  O273  1  -0.03010355  0.52585171  0.63075341  1
  O  O274  1  0.44373578  0.06896129  0.18283078  1
  O  O275  1  0.47712319  -0.00072645  0.63910375  1
  O  O276  1  0.46890698  0.50140002  0.11689062  1
  O  O277  1  0.43456176  0.60552155  0.58505942  1
  O  O278  1  0.23304217  0.46101094  0.26503469  1
  O  O279  1  0.23055702  0.36365966  0.65555736  1
  O  O280  1  0.23716494  0.87385576  0.30182093  1
  O  O281  1  0.23830850  0.87335936  0.71620733  1
  O  O282  1  0.75025461  0.33434676  0.22711708  1
  O  O283  1  0.76140886  0.32440197  0.79293131  1
  O  O284  1  0.74634892  0.88024069  0.25031157  1
  O  O285  1  0.76293689  0.91276880  0.79520590  1
  O  O286  1  0.23074296  0.09401594  0.28982730  1
  O  O287  1  0.23980830  0.12266193  0.76962549  1
  O  O288  1  0.26942099  0.64942614  0.22584327  1
  O  O289  1  0.33220805  0.49429636  0.59211236  1
  O  O290  1  0.79564346  0.06646790  0.23005113  1
  O  O291  1  0.75182157  0.10360672  0.69729162  1
  O  O292  1  0.67255395  0.64365033  0.26942822  1
  O  O293  1  0.80193581  0.56887003  0.75637734  1
  O  O294  1  0.36752343  0.12230115  0.37241880  1
  O  O295  1  0.34309377  0.19277390  0.87049757  1
  O  O296  1  0.38541930  0.64082568  0.34337891  1
  O  O297  1  0.34789048  0.54722938  0.86591049  1
  O  O298  1  0.88370260  0.08602114  0.36003121  1
  O  O299  1  0.95339648  0.15145132  0.81426164  1
  O  O300  1  0.82309443  0.60592755  0.34294723  1
  O  O301  1  0.89770431  0.53673126  0.96878730  1
  O  O302  1  0.13745940  0.38858134  0.10900533  1
  O  O303  1  0.04986227  0.40571871  0.65222034  1
  O  O304  1  0.14672776  0.85076810  0.16919310  1
  O  O305  1  0.11129392  0.86618260  0.61855220  1
  O  O306  1  0.67706261  0.33638713  0.07525154  1
  O  O307  1  0.66420219  0.36479471  0.68013266  1
  O  O308  1  0.58743428  0.99612857  0.09841808  1
  O  O309  1  0.63182842  0.90667461  0.69147819  1
  O  O310  1  0.02231190  0.25637170  0.33563457  1
  O  O311  1  0.08236899  0.23911817  0.74040017  1
  O  O312  1  0.14669254  0.75133310  0.28539127  1
  O  O313  1  0.10531917  0.81486253  0.78313051  1
  O  O314  1  0.58383008  0.33226764  0.27405346  1
  O  O315  1  0.64942822  0.22273203  0.77866603  1
  O  O316  1  0.57707300  0.93065270  0.12264868  1
  O  O317  1  0.65198242  0.72676582  0.76630344  1
  O  O318  1  0.36935489  0.17236045  0.31951913  1
  O  O319  1  0.37097993  0.25525530  0.71302002  1
  O  O320  1  0.37669442  0.75530304  0.24586384  1
  O  O321  1  0.34885517  0.73506636  0.74929859  1
  O  O322  1  0.86649080  0.20892499  0.26906892  1
  O  O323  1  0.88063155  0.17227024  0.79901659  1
  O  O324  1  0.88084614  0.73758485  0.29436226  1
  O  O325  1  0.84341256  0.72071019  0.71525363  1
  O  O326  1  0.51195106  0.48541923  0.51803060  1
  O  O327  1  0.30928561  0.40014136  0.82537751  1
  O  O328  1  0.37797558  0.97095066  0.50295582  1
  O  O329  1  0.37368947  0.98454623  1.03256109  1
  O  O330  1  0.85729794  0.45819904  0.49774361  1
  O  O331  1  0.86902169  0.59343819  1.00100463  1
  O  O332  1  0.86568070  0.96029975  0.49581450  1
  O  O333  1  0.93198252  1.01116024  0.99649870  1
  O  O334  1  0.14825105  -0.03989445  0.05432839  1
  O  O335  1  0.08225706  -0.00215814  0.51150671  1
  O  O336  1  0.06835517  0.58176157  0.05423794  1
  O  O337  1  0.13686784  0.47710868  0.54976326  1
  O  O338  1  0.63369348  0.03854225  -0.06474609  1
  O  O339  1  0.68302301  0.00636866  0.52821897  1
  O  O340  1  0.63458523  0.51727972  -0.01132097  1
  O  O341  1  0.59562670  0.54924465  0.64697355  1
  O  O342  1  0.31060891  0.38476341  0.11758147  1
  O  O343  1  0.43272620  0.34075719  0.60384622  1
  O  O344  1  0.38050390  0.89623686  0.16371859  1
  O  O345  1  0.38276545  0.85310561  0.60624403  1
  O  O346  1  0.96606017  0.32846278  0.08458443  1
  O  O347  1  0.92024166  0.34196113  0.57897497  1
  O  O348  1  0.81541075  0.94060741  0.09724025  1
  O  O349  1  0.85000411  0.83000302  0.59892797  1
  O  O350  1  0.05994958  0.11967591  0.41439248  1
  O  O351  1  0.12542418  0.15217260  0.87454015  1
  O  O352  1  0.13384454  0.60888247  0.39221963  1
  O  O353  1  0.07286551  0.61039032  0.91324582  1
  O  O354  1  0.64625571  0.09574884  0.40893855  1
  O  O355  1  0.65352790  0.09303893  0.87468306  1
  O  O356  1  0.64030188  0.55527939  0.39080735  1
  O  O357  1  0.61134476  0.63880062  0.88605333  1
