# generated using pymatgen
data_V51Zn51O256
_symmetry_space_group_name_H-M   'P 1'
_cell_length_a   17.49621405
_cell_length_b   17.60084279
_cell_length_c   17.43640696
_cell_angle_alpha   89.83825390
_cell_angle_beta   89.94323547
_cell_angle_gamma   88.13755554
_symmetry_Int_Tables_number   1
_chemical_formula_structural   V51Zn51O256
_chemical_formula_sum   'V51 Zn51 O256'
_cell_volume   5366.64853109
_cell_formula_units_Z   1
loop_
 _symmetry_equiv_pos_site_id
 _symmetry_equiv_pos_as_xyz
  1  'x, y, z'
loop_
 _atom_site_type_symbol
 _atom_site_label
 _atom_site_symmetry_multiplicity
 _atom_site_fract_x
 _atom_site_fract_y
 _atom_site_fract_z
 _atom_site_occupancy
  V  V0  1  -0.01766026  0.13317633  0.13437994  1
  V  V1  1  0.51953219  0.44712808  0.46304323  1
  V  V2  1  0.75937966  0.10573786  0.37179085  1
  V  V3  1  0.62937426  0.76212698  0.39119706  1
  V  V4  1  0.76497460  0.74505098  0.01140508  1
  V  V5  1  0.63559804  0.87358607  0.25931299  1
  V  V6  1  0.27272132  0.80411794  0.52591925  1
  V  V7  1  0.76541621  -0.01361460  0.25165261  1
  V  V8  1  -0.02750503  0.47585852  0.00751493  1
  V  V9  1  0.91074631  0.73576627  0.63081268  1
  V  V10  1  0.88860380  -0.04768584  0.87674898  1
  V  V11  1  0.45643024  0.56693817  0.05453832  1
  V  V12  1  -0.01850785  0.34732045  0.37866239  1
  V  V13  1  0.71269908  0.36598960  0.07288887  1
  V  V14  1  0.04628510  0.19516287  0.72003409  1
  V  V15  1  0.48129426  0.47048627  0.92099891  1
  V  V16  1  0.86654452  0.21799920  0.63959333  1
  V  V17  1  0.89341857  0.60680323  0.74278601  1
  V  V18  1  0.74381891  0.48220992  0.75913761  1
  V  V19  1  0.49475658  -0.00796419  0.48802596  1
  V  V20  1  0.26307991  0.84005651  0.15357757  1
  V  V21  1  0.63232774  0.64465664  0.06319251  1
  V  V22  1  0.88677047  -0.02134414  0.39339246  1
  V  V23  1  0.85531148  0.36188208  0.50625032  1
  V  V24  1  0.77785045  0.84874271  0.14715465  1
  V  V25  1  0.39438783  0.90004066  0.01577798  1
  V  V26  1  0.72670460  0.64859153  0.83856152  1
  V  V27  1  0.00340216  0.74182886  0.26779360  1
  V  V28  1  0.48444837  0.27817328  0.71496410  1
  V  V29  1  0.75127834  0.22765924  0.51162185  1
  V  V30  1  0.62087616  0.12308616  0.51003005  1
  V  V31  1  0.13028640  0.34482569  0.22388233  1
  V  V32  1  0.42469754  0.09875811  0.20034444  1
  V  V33  1  0.01445033  0.31657349  0.88339402  1
  V  V34  1  0.47511442  0.34973307  0.33804208  1
  V  V35  1  0.78865749  0.64939108  0.39364857  1
  V  V36  1  0.89175964  0.60844660  0.25329048  1
  V  V37  1  0.70228547  0.16935961  0.87746905  1
  V  V38  1  0.12545248  0.83105738  0.78104894  1
  V  V39  1  -0.03999868  0.24054210  0.25507209  1
  V  V40  1  0.62309472  0.79269281  0.89310871  1
  V  V41  1  0.36461598  0.65466967  0.74609336  1
  V  V42  1  0.50368932  0.65230994  0.19117344  1
  V  V43  1  0.00288646  0.81739593  0.90137600  1
  V  V44  1  0.30602881  0.24904736  -0.04959066  1
  V  V45  1  0.00999469  0.46742396  0.50315320  1
  V  V46  1  0.64378431  0.23712258  0.33989692  1
  V  V47  1  0.10783715  0.10193063  0.47923138  1
  V  V48  1  0.39643682  -0.02131469  0.35183529  1
  V  V49  1  -0.00236240  -0.01272775  0.54081849  1
  V  V50  1  0.10027008  0.87755012  0.26566046  1
  Zn  Zn51  1  0.67610650  0.94741793  0.43855263  1
  Zn  Zn52  1  0.84324761  0.32378898  0.80881820  1
  Zn  Zn53  1  0.31385202  0.65308821  0.14832907  1
  Zn  Zn54  1  0.81338339  0.04850601  0.55977427  1
  Zn  Zn55  1  0.07462138  0.82254146  0.58843088  1
  Zn  Zn56  1  0.02234337  0.31369369  0.07593236  1
  Zn  Zn57  1  0.79941940  0.29948445  0.33028367  1
  Zn  Zn58  1  0.45927785  0.82162804  0.43267349  1
  Zn  Zn59  1  0.14070879  0.41625257  0.38944595  1
  Zn  Zn60  1  0.51550927  0.37071340  0.06078309  1
  Zn  Zn61  1  0.48127303  0.49779447  0.25960505  1
  Zn  Zn62  1  0.95858033  0.91007759  0.71541089  1
  Zn  Zn63  1  0.71010289  0.68781557  0.22778953  1
  Zn  Zn64  1  0.50621696  0.23477658  0.91579313  1
  Zn  Zn65  1  0.66345992  0.19459538  0.67771884  1
  Zn  Zn66  1  0.12513385  0.74382440  0.13871848  1
  Zn  Zn67  1  0.37676532  0.63409200  0.57519253  1
  Zn  Zn68  1  0.57696252  0.06003168  0.31044880  1
  Zn  Zn69  1  0.53491920  0.28208545  0.50965417  1
  Zn  Zn70  1  0.65649487  0.49721157  0.92661355  1
  Zn  Zn71  1  0.23934988  0.88972896  0.34316544  1
  Zn  Zn72  1  0.84056441  0.80875765  0.32385283  1
  Zn  Zn73  1  0.03632923  0.03863615  0.82867509  1
  Zn  Zn74  1  -0.05619780  0.78005619  0.08396980  1
  Zn  Zn75  1  0.67007652  0.39317299  0.43764078  1
  Zn  Zn76  1  0.94220393  0.93471330  0.20528737  1
  Zn  Zn77  1  0.69500518  0.97321745  0.95347844  1
  Zn  Zn78  1  0.51745355  0.66394602  0.88909717  1
  Zn  Zn79  1  0.02547503  0.26216711  0.54409476  1
  Zn  Zn80  1  0.97825376  0.65586577  0.43330996  1
  Zn  Zn81  1  0.02469037  0.51063190  0.29502941  1
  Zn  Zn82  1  -0.00920016  0.46153556  0.81435139  1
  Zn  Zn83  1  0.92913735  0.16336731  0.44032483  1
  Zn  Zn84  1  0.27727068  0.01357950  0.48098638  1
  Zn  Zn85  1  0.81345946  0.06711785  0.01717272  1
  Zn  Zn86  1  0.19997392  0.18302113  0.58906384  1
  Zn  Zn87  1  0.04547495  0.04949218  0.30211971  1
  Zn  Zn88  1  0.80241484  0.55910344  0.08442736  1
  Zn  Zn89  1  0.12594470  0.84427586  1.00617968  1
  Zn  Zn90  1  0.30230005  0.81977754  0.86087182  1
  Zn  Zn91  1  0.86581456  0.56745381  0.54586325  1
  Zn  Zn92  1  0.93342993  0.42519899  0.19123965  1
  Zn  Zn93  1  0.75748440  0.78561863  0.51882450  1
  Zn  Zn94  1  0.47447188  1.12377024  0.60816913  1
  Zn  Zn95  1  0.60718752  0.57910237  0.35889388  1
  Zn  Zn96  1  0.57203909  0.81691350  0.09240425  1
  Zn  Zn97  1  0.93052280  0.40008139  0.66284426  1
  Zn  Zn98  1  0.42952001  0.10218575  -0.00549345  1
  Zn  Zn99  1  0.90653203  0.66750379  0.91917241  1
  Zn  Zn100  1  0.45113076  0.83008131  0.22594334  1
  Zn  Zn101  1  0.32829286  0.27949422  0.22532794  1
  O  O102  1  0.06217104  0.12164136  0.08876566  1
  O  O103  1  0.24212676  0.02113438  0.73889444  1
  O  O104  1  0.14665508  0.62184036  0.01665067  1
  O  O105  1  0.11338912  0.56997181  0.64909525  1
  O  O106  1  0.57620149  0.05130902  0.08287056  1
  O  O107  1  0.63476624  0.11448897  0.60808324  1
  O  O108  1  0.64252883  0.63019494  0.16161937  1
  O  O109  1  0.59336013  0.67065907  0.65872320  1
  O  O110  1  0.38890817  0.31858905  0.31047771  1
  O  O111  1  0.40925049  0.45708451  0.86429861  1
  O  O112  1  0.41407283  0.88072450  0.34413547  1
  O  O113  1  0.37129100  0.84597804  0.93659610  1
  O  O114  1  0.86854656  0.34856979  0.40079227  1
  O  O115  1  0.91626546  0.29409284  0.88440704  1
  O  O116  1  0.87379529  0.88348804  0.39699144  1
  O  O117  1  0.90294375  0.85532852  0.90125089  1
  O  O118  1  0.29111705  -0.01965423  0.37074411  1
  O  O119  1  0.15016207  0.08167001  0.95898180  1
  O  O120  1  0.23180859  0.59239079  0.36764634  1
  O  O121  1  0.15487492  0.53271326  0.80670514  1
  O  O122  1  0.76153427  0.00119810  0.39160788  1
  O  O123  1  0.65918145  0.08460914  0.91308242  1
  O  O124  1  0.76347644  0.45735274  0.28634670  1
  O  O125  1  0.71633067  0.54248107  0.84514762  1
  O  O126  1  0.30736636  0.50493312  0.21373815  1
  O  O127  1  0.32703313  0.55996915  0.52714152  1
  O  O128  1  0.22167629  1.06767799  0.14844099  1
  O  O129  1  0.17082227  1.02641794  0.74498210  1
  O  O130  1  0.75384673  0.46010337  0.08539685  1
  O  O131  1  0.58189646  0.60331956  0.64662052  1
  O  O132  1  0.77086557  0.97305018  0.15671032  1
  O  O133  1  0.75886264  0.94938060  0.58708177  1
  O  O134  1  -0.04001469  0.35139800  0.27232296  1
  O  O135  1  -0.07738026  0.39127944  0.76631186  1
  O  O136  1  -0.00815037  0.84555376  0.27287120  1
  O  O137  1  0.01681298  0.86265555  0.80325208  1
  O  O138  1  0.51776638  0.38903390  0.25722544  1
  O  O139  1  0.45804318  0.37208595  0.72045892  1
  O  O140  1  0.54018701  0.88698215  0.24995156  1
  O  O141  1  0.52926483  0.95985886  0.84099134  1
  O  O142  1  0.51746895  0.10761414  0.22985294  1
  O  O143  1  0.49838692  0.17197566  0.70468275  1
  O  O144  1  0.53449490  0.60235835  0.27780784  1
  O  O145  1  0.45423623  0.65167616  0.79707833  1
  O  O146  1  0.99236066  0.13411601  0.24050102  1
  O  O147  1  1.02351316  0.10519085  0.74408779  1
  O  O148  1  0.99659712  0.61610646  0.26036475  1
  O  O149  1  0.97491227  0.56443332  0.77926333  1
  O  O150  1  0.39847411  0.26538135  -0.10605623  1
  O  O151  1  0.29247025  0.27266029  0.43828456  1
  O  O152  1  0.29149401  0.67337116  -0.05000798  1
  O  O153  1  0.37227981  0.80666777  0.50011220  1
  O  O154  1  0.95104201  0.15803516  -0.09565850  1
  O  O155  1  0.85763685  0.22410763  0.50983389  1
  O  O156  1  0.86496065  0.72882252  0.01177913  1
  O  O157  1  0.96054529  0.72604010  0.52904610  1
  O  O158  1  0.11111648  0.20239383  0.51515533  1
  O  O159  1  0.21433582  0.26274573  0.98700402  1
  O  O160  1  0.17584464  0.78566259  0.54248449  1
  O  O161  1  0.11224986  0.69093647  1.03200368  1
  O  O162  1  0.64757897  0.23045707  0.49415682  1
  O  O163  1  0.51648364  0.34696845  0.95465620  1
  O  O164  1  0.65408193  0.77023074  0.48695788  1
  O  O165  1  0.64019868  0.74466735  1.03406319  1
  O  O166  1  0.45407840  0.31697184  0.13481544  1
  O  O167  1  0.47380805  0.28787375  0.61149070  1
  O  O168  1  0.52709899  0.74978026  0.18565718  1
  O  O169  1  0.47494651  0.88123045  0.66376696  1
  O  O170  1  0.96649802  0.23830416  0.14039154  1
  O  O171  1  0.97869296  0.23090760  0.64261703  1
  O  O172  1  1.01325430  0.73101628  0.15845909  1
  O  O173  1  1.02008186  0.72174759  0.58665242  1
  O  O174  1  -0.03217620  0.23496358  0.36097039  1
  O  O175  1  0.04632854  0.24245949  0.80809197  1
  O  O176  1  0.02963975  0.71802661  0.36234927  1
  O  O177  1  -0.00589238  0.72285384  0.88759275  1
  O  O178  1  0.54625032  0.26839374  0.35236950  1
  O  O179  1  0.51897200  0.28137327  0.80879373  1
  O  O180  1  0.53256315  0.75168659  0.38804905  1
  O  O181  1  0.52826339  0.77048540  0.91579452  1
  O  O182  1  0.21328166  0.09788720  0.50935097  1
  O  O183  1  0.33613580  0.14391735  0.93924857  1
  O  O184  1  0.29392378  0.70273910  0.52549293  1
  O  O185  1  0.19389890  0.59418539  1.06503252  1
  O  O186  1  0.74010429  0.11749544  0.49774991  1
  O  O187  1  0.75601599  0.15534064  0.96323386  1
  O  O188  1  0.78246946  0.60268187  0.47936936  1
  O  O189  1  0.74242379  0.64693069  1.04365007  1
  O  O190  1  0.33033982  0.34207724  -0.03312584  1
  O  O191  1  0.25198257  0.44364332  0.45875754  1
  O  O192  1  0.30689935  0.89089140  0.07696218  1
  O  O193  1  0.26116316  0.90644027  0.51846365  1
  O  O194  1  0.70481433  0.40742680  -0.02447081  1
  O  O195  1  0.75437265  0.33568626  0.49592078  1
  O  O196  1  0.76092287  0.84287519  0.04286226  1
  O  O197  1  0.74026314  0.90403040  0.52786813  1
  O  O198  1  0.11414822  0.43803722  0.28237315  1
  O  O199  1  0.16633496  0.52743216  0.62773778  1
  O  O200  1  0.05338913  0.96517038  0.22486693  1
  O  O201  1  0.13889292  0.98946599  0.80946263  1
  O  O202  1  0.70120210  0.48794013  0.26903340  1
  O  O203  1  0.68089731  0.48752552  0.69087808  1
  O  O204  1  0.65818616  0.97792906  0.27360319  1
  O  O205  1  0.57582994  0.97204441  0.79017400  1
  O  O206  1  0.38986817  0.01793135  0.25911560  1
  O  O207  1  0.40168897  0.01425923  0.73413974  1
  O  O208  1  0.35409577  0.50615221  0.27259960  1
  O  O209  1  0.38950655  0.57602762  0.67715489  1
  O  O210  1  0.86603883  -0.01741794  0.27923135  1
  O  O211  1  0.87767113  -0.04031647  0.78005830  1
  O  O212  1  0.90904155  0.50546613  0.26023677  1
  O  O213  1  0.83015861  0.52744796  0.72741259  1
  O  O214  1  0.07641761  0.32533055  0.39184772  1
  O  O215  1  0.07073346  0.38623959  0.84079201  1
  O  O216  1  0.12088573  0.89786822  0.35690645  1
  O  O217  1  0.10897043  0.83777887  0.90071736  1
  O  O218  1  0.68984237  0.33134587  0.34597631  1
  O  O219  1  0.56724523  0.46580464  0.87238931  1
  O  O220  1  0.64219581  0.86732703  0.37423250  1
  O  O221  1  0.64543141  0.88238050  0.93177389  1
  O  O222  1  0.42192401  0.07841872  0.10522432  1
  O  O223  1  0.35970385  0.14543915  0.58400453  1
  O  O224  1  0.40880566  0.66752785  0.20708398  1
  O  O225  1  0.40428118  0.70080602  0.65612136  1
  O  O226  1  0.88198428  0.09320463  0.10297263  1
  O  O227  1  0.85853409  0.12181676  0.62954183  1
  O  O228  1  0.86457983  0.60967090  0.15934857  1
  O  O229  1  0.90233391  0.61415020  0.63686114  1
  O  O230  1  0.33463212  0.21334742  0.04261150  1
  O  O231  1  0.25931579  0.28387295  0.57730950  1
  O  O232  1  0.24554650  0.73908547  0.14186980  1
  O  O233  1  0.28945219  0.82237933  0.62183146  1
  O  O234  1  0.65995578  0.28462494  0.05704552  1
  O  O235  1  0.74874638  0.23017159  0.61468226  1
  O  O236  1  0.77316576  0.75288850  0.15841444  1
  O  O237  1  0.81908863  0.74059269  0.59391351  1
  O  O238  1  0.22746085  0.28813307  0.41485409  1
  O  O239  1  0.25495792  0.23765515  0.86520144  1
  O  O240  1  0.25174306  0.81015936  0.42211438  1
  O  O241  1  0.24525615  0.72355486  0.92506370  1
  O  O242  1  0.75568467  0.21079810  0.38736841  1
  O  O243  1  0.74685647  0.25719870  0.87101773  1
  O  O244  1  0.79516134  0.74823722  0.41084572  1
  O  O245  1  0.74208575  0.74459276  0.91266839  1
  O  O246  1  -0.06915136  0.14109022  -0.02990258  1
  O  O247  1  0.00166841  0.10472095  0.50052486  1
  O  O248  1  -0.06391282  0.57913786  -0.00860526  1
  O  O249  1  -0.02199273  0.56305775  0.49564041  1
  O  O250  1  0.49526975  0.19181045  0.01672659  1
  O  O251  1  0.52451025  0.16529285  0.51299853  1
  O  O252  1  0.51995191  0.65176899  0.07650916  1
  O  O253  1  0.51030732  0.72330156  0.53943662  1
  O  O254  1  0.46690516  0.35059670  0.44922719  1
  O  O255  1  0.45736189  0.46458196  1.02809539  1
  O  O256  1  0.50956688  0.89696053  0.49457682  1
  O  O257  1  0.47600075  0.86871337  1.06724787  1
  O  O258  1  0.97273533  0.34958150  0.49511340  1
  O  O259  1  1.04678927  0.28747150  0.97214194  1
  O  O260  1  1.01816516  0.89334238  0.52200734  1
  O  O261  1  1.00943273  0.82758876  1.00630353  1
  O  O262  1  0.46574758  0.45855861  0.36905516  1
  O  O263  1  0.47830122  0.57573152  0.94658871  1
  O  O264  1  0.49481343  1.01395636  0.37543679  1
  O  O265  1  0.48691041  1.12396186  0.89515411  1
  O  O266  1  0.98525787  0.45092722  0.39163470  1
  O  O267  1  0.96190228  0.42237271  0.92569832  1
  O  O268  1  0.98014587  0.99274125  0.37533105  1
  O  O269  1  0.97082676  0.99909020  0.90271073  1
  O  O270  1  -0.05947832  0.03442733  0.12261658  1
  O  O271  1  -0.02051495  -0.01116702  0.63581432  1
  O  O272  1  -0.04970483  0.40945041  0.08737609  1
  O  O273  1  0.00100386  0.44990410  0.60034009  1
  O  O274  1  0.56110276  0.01244880  0.02711674  1
  O  O275  1  0.48326758  0.02051529  0.58249399  1
  O  O276  1  0.48321649  0.54313637  0.15327752  1
  O  O277  1  0.47732654  0.50031294  0.52807610  1
  O  O278  1  0.22679026  0.32035531  0.22787648  1
  O  O279  1  0.27442050  0.39259762  0.64076204  1
  O  O280  1  0.20901578  0.88816779  0.23426074  1
  O  O281  1  0.22377891  0.85323721  0.79775961  1
  O  O282  1  0.72691969  0.35823182  0.16908670  1
  O  O283  1  0.75572932  0.38812848  0.78679094  1
  O  O284  1  0.76693102  0.87245323  0.25864354  1
  O  O285  1  0.64272071  0.92418066  0.65901044  1
  O  O286  1  0.25113327  0.15176606  0.33047543  1
  O  O287  1  0.30964755  0.13646197  0.63685619  1
  O  O288  1  0.26097539  0.56777924  0.20547574  1
  O  O289  1  0.27084309  0.67954415  0.71894177  1
  O  O290  1  0.75521698  0.09192149  0.27222906  1
  O  O291  1  0.65543366  0.16494591  0.78277936  1
  O  O292  1  0.78351785  0.62467175  0.28712619  1
  O  O293  1  0.72193168  0.67110135  0.74885812  1
  O  O294  1  0.30883676  0.15117340  0.37014361  1
  O  O295  1  0.38987477  -0.01798209  0.79531743  1
  O  O296  1  0.39574926  0.61904423  0.39209003  1
  O  O297  1  0.32602918  0.58690193  0.80123875  1
  O  O298  1  0.86021913  0.09832058  0.38532722  1
  O  O299  1  0.77189511  0.12504210  0.81872941  1
  O  O300  1  0.88742979  0.62228896  0.37483931  1
  O  O301  1  0.83744391  0.63390972  0.84121694  1
  O  O302  1  0.10435307  0.36432995  0.13216764  1
  O  O303  1  0.23329094  0.33512693  0.63055979  1
  O  O304  1  0.15837185  0.85070964  0.10547670  1
  O  O305  1  0.10491777  0.86198509  0.68470577  1
  O  O306  1  0.61364388  0.40525131  0.08848161  1
  O  O307  1  0.58813938  0.38083165  0.51317897  1
  O  O308  1  0.65962323  0.86373492  0.15741800  1
  O  O309  1  0.63268916  0.86011873  0.63510481  1
  O  O310  1  0.07779718  0.26683120  0.24616481  1
  O  O311  1  0.13606816  0.19391733  0.68206716  1
  O  O312  1  0.11412683  0.77499937  0.25222992  1
  O  O313  1  0.12273096  0.73867788  0.77619682  1
  O  O314  1  0.65532224  0.21779502  0.25022481  1
  O  O315  1  0.58709940  0.27813123  0.68465015  1
  O  O316  1  0.65467538  0.76990641  0.28167188  1
  O  O317  1  0.62294485  0.80801218  0.80024578  1
  O  O318  1  0.36818782  0.17868991  0.21584927  1
  O  O319  1  0.39293710  0.24674042  0.72991308  1
  O  O320  1  0.37842104  0.68010090  0.36117716  1
  O  O321  1  0.35928362  0.74087481  0.79861874  1
  O  O322  1  0.86268101  0.24437475  0.25182927  1
  O  O323  1  0.85106499  0.23867092  0.73195454  1
  O  O324  1  0.89995986  0.72977723  0.26636048  1
  O  O325  1  0.91117787  0.70759411  0.73401040  1
  O  O326  1  0.47985164  0.66124569  0.52381367  1
  O  O327  1  0.36546929  0.60106439  1.06128225  1
  O  O328  1  0.39163772  1.00553765  0.46297607  1
  O  O329  1  0.40440012  0.99081424  0.98414493  1
  O  O330  1  0.85553895  0.45719572  0.51857893  1
  O  O331  1  0.86855554  0.53179499  0.99711138  1
  O  O332  1  0.89417241  0.99798578  0.49957660  1
  O  O333  1  0.81036729  0.99092156  0.92947979  1
  O  O334  1  0.21409191  0.03093605  0.08945413  1
  O  O335  1  0.09987265  0.01223623  0.52875391  1
  O  O336  1  0.06210144  0.49753551  0.01343240  1
  O  O337  1  0.10591938  0.46291281  0.48571363  1
  O  O338  1  0.71594574  0.02847022  0.04534963  1
  O  O339  1  0.60204250  0.02457559  0.48179227  1
  O  O340  1  0.62713383  0.56321437  0.01042577  1
  O  O341  1  0.60808368  0.49060135  0.42022396  1
  O  O342  1  0.38750442  0.35054356  0.14724528  1
  O  O343  1  0.32078383  0.43077522  0.44687015  1
  O  O344  1  0.34589315  0.82613818  0.20670466  1
  O  O345  1  0.48710542  0.85479745  0.72799274  1
  O  O346  1  0.79411163  0.31568641  0.04847107  1
  O  O347  1  0.86704817  0.33006623  0.60512200  1
  O  O348  1  0.88023147  0.86145440  0.14308622  1
  O  O349  1  0.92639828  0.82838940  0.65011897  1
  O  O350  1  0.10927698  0.09158267  0.38163074  1
  O  O351  1  0.10991375  0.11790279  0.91178243  1
  O  O352  1  0.17835176  0.61328081  0.40966944  1
  O  O353  1  0.16792052  0.56254962  0.86863470  1
  O  O354  1  0.64155126  0.12851269  0.37780477  1
  O  O355  1  0.61940280  0.22463449  0.90897556  1
  O  O356  1  0.67324469  0.66121794  0.37992789  1
  O  O357  1  0.63196384  0.66877903  0.87575744  1
