# generated using pymatgen
data_V51Zn51O256
_symmetry_space_group_name_H-M   'P 1'
_cell_length_a   17.33860575
_cell_length_b   17.19251550
_cell_length_c   17.22686844
_cell_angle_alpha   90.90084697
_cell_angle_beta   90.32858084
_cell_angle_gamma   89.44948556
_symmetry_Int_Tables_number   1
_chemical_formula_structural   V51Zn51O256
_chemical_formula_sum   'V51 Zn51 O256'
_cell_volume   5134.27860551
_cell_formula_units_Z   1
loop_
 _symmetry_equiv_pos_site_id
 _symmetry_equiv_pos_as_xyz
  1  'x, y, z'
loop_
 _atom_site_type_symbol
 _atom_site_label
 _atom_site_symmetry_multiplicity
 _atom_site_fract_x
 _atom_site_fract_y
 _atom_site_fract_z
 _atom_site_occupancy
  V  V0  1  0.08457175  0.64533759  -0.02291201  1
  V  V1  1  0.47023109  0.48959123  0.55110406  1
  V  V2  1  0.00622728  0.00706594  0.49206649  1
  V  V3  1  -0.01080946  -0.01300876  -0.00913193  1
  V  V4  1  0.87568857  0.48464553  0.90285950  1
  V  V5  1  0.24971998  0.49850317  0.25297424  1
  V  V6  1  0.14529341  0.01588283  0.13375827  1
  V  V7  1  0.27099592  0.03191813  0.74371271  1
  V  V8  1  0.00782154  0.22375405  0.75358519  1
  V  V9  1  0.25271560  0.36289350  0.62823527  1
  V  V10  1  0.63689079  -0.00649312  0.59998370  1
  V  V11  1  0.26476843  0.12751475  0.89328145  1
  V  V12  1  0.50798590  0.51481836  0.01686031  1
  V  V13  1  0.50464364  0.87778459  0.86252172  1
  V  V14  1  0.40358146  0.62915077  0.69372967  1
  V  V15  1  0.45861415  0.13957649  0.17892338  1
  V  V16  1  0.86596830  0.74588149  0.12365932  1
  V  V17  1  0.62639139  0.59416290  0.48309478  1
  V  V18  1  0.11862914  0.37812254  0.21751118  1
  V  V19  1  0.49066660  0.14341509  0.60152200  1
  V  V20  1  0.12850817  0.24402667  0.89760694  1
  V  V21  1  0.13685052  0.28762938  0.39003034  1
  V  V22  1  0.47653017  -0.02122072  0.49792536  1
  V  V23  1  0.14006773  0.37649073  0.76257574  1
  V  V24  1  0.01051848  0.75032991  0.26057718  1
  V  V25  1  0.74877978  0.86766941  0.16964062  1
  V  V26  1  0.62441271  0.25042776  0.36480130  1
  V  V27  1  0.47877345  0.25336088  0.73402162  1
  V  V28  1  0.35977706  0.46919607  0.88803393  1
  V  V29  1  0.72515138  0.76427289  0.46119090  1
  V  V30  1  0.87247097  0.61992891  0.28591056  1
  V  V31  1  0.46874859  0.81704223  0.35462694  1
  V  V32  1  0.00985151  0.88011630  0.37278386  1
  V  V33  1  0.00014153  0.25694985  0.25741966  1
  V  V34  1  0.74913621  0.08921203  0.90952497  1
  V  V35  1  0.14795390  0.12512016  0.47951888  1
  V  V36  1  0.25537577  0.87778661  0.64182360  1
  V  V37  1  0.12863736  0.01389536  0.62856117  1
  V  V38  1  0.55590204  0.65159369  0.14497568  1
  V  V39  1  0.14327662  0.87432255  0.23726520  1
  V  V40  1  0.24945397  0.68222939  0.46852623  1
  V  V41  1  0.89336364  0.37861363  0.51994666  1
  V  V42  1  0.65433701  0.35427171  0.74113423  1
  V  V43  1  0.51490051  0.34756615  0.87970880  1
  V  V44  1  0.66185438  0.24475532  0.89004137  1
  V  V45  1  0.76115833  0.38518852  0.13587263  1
  V  V46  1  0.50271455  0.04965083  0.02094269  1
  V  V47  1  0.48899163  0.29126416  0.25731538  1
  V  V48  1  0.87805535  0.61875663  0.72761905  1
  V  V49  1  0.88779718  0.11769068  0.29391406  1
  V  V50  1  0.64033643  0.02831121  0.13908157  1
  Zn  Zn51  1  0.20283009  0.47743770  0.45263318  1
  Zn  Zn52  1  0.69257000  0.20902988  0.21835719  1
  Zn  Zn53  1  0.80700442  0.58062417  0.06410851  1
  Zn  Zn54  1  0.18664701  0.93308949  0.43173680  1
  Zn  Zn55  1  0.96339628  0.20054506  0.43770234  1
  Zn  Zn56  1  0.07720918  0.06216201  0.82830540  1
  Zn  Zn57  1  0.26420569  0.62657880  -0.11972972  1
  Zn  Zn58  1  0.64638522  0.95581674  0.93710691  1
  Zn  Zn59  1  0.53690364  -0.00251047  0.30949804  1
  Zn  Zn60  1  0.83314832  0.81357261  0.32714034  1
  Zn  Zn61  1  0.49422939  0.14610544  0.38934853  1
  Zn  Zn62  1  0.57172760  0.81816684  0.22366315  1
  Zn  Zn63  1  0.03694359  0.54267580  0.28804238  1
  Zn  Zn64  1  0.12168320  0.22178950  0.10598709  1
  Zn  Zn65  1  0.35294713  0.84134242  0.50005274  1
  Zn  Zn66  1  0.92219176  0.43047407  0.20668435  1
  Zn  Zn67  1  0.69335311  0.40438438  0.45252798  1
  Zn  Zn68  1  0.58540391  0.81335988  0.05380127  1
  Zn  Zn69  1  0.56581543  0.32412913  0.56028028  1
  Zn  Zn70  1  0.52000520  0.48405241  0.74975099  1
  Zn  Zn71  1  0.66519710  0.47410756  0.87933511  1
  Zn  Zn72  1  0.53744326  0.65248313  0.31893701  1
  Zn  Zn73  1  0.30564847  0.29524793  0.81539879  1
  Zn  Zn74  1  0.84433868  0.80708060  0.78199617  1
  Zn  Zn75  1  0.81806532  0.31416489  0.33365947  1
  Zn  Zn76  1  0.16875228  0.45854426  0.91427287  1
  Zn  Zn77  1  0.17493626  0.19338086  0.67999948  1
  Zn  Zn78  1  0.44590828  0.67196582  0.50224056  1
  Zn  Zn79  1  0.45411231  0.49074498  0.19869016  1
  Zn  Zn80  1  0.70708023  0.67831895  0.22751723  1
  Zn  Zn81  1  0.63752036  0.90230960  0.42299973  1
  Zn  Zn82  1  0.22671992  0.68602916  0.71217587  1
  Zn  Zn83  1  0.31302863  0.06966836  0.56175885  1
  Zn  Zn84  1  0.13144338  0.82966148  0.52846882  1
  Zn  Zn85  1  0.07181148  0.06129250  0.30822295  1
  Zn  Zn86  1  0.03905094  0.83167272  0.08549078  1
  Zn  Zn87  1  0.13996463  0.65809865  0.18852559  1
  Zn  Zn88  1  0.31894571  0.05392595  0.06747686  1
  Zn  Zn89  1  0.89207690  0.71111768  0.92185429  1
  Zn  Zn90  1  0.28410634  0.29385824  0.26225612  1
  Zn  Zn91  1  0.29774813  0.53843711  0.58226096  1
  Zn  Zn92  1  0.42782903  0.95252776  0.67277972  1
  Zn  Zn93  1  0.84247004  0.23516859  0.84145964  1
  Zn  Zn94  1  0.80827935  -0.05050423  0.49831525  1
  Zn  Zn95  1  0.05927164  0.56742591  0.79639976  1
  Zn  Zn96  1  0.81435555  0.04547774  0.08169008  1
  Zn  Zn97  1  0.71582381  0.66613485  0.62610761  1
  Zn  Zn98  1  0.08460864  0.30210124  0.58161863  1
  Zn  Zn99  1  0.52090525  0.24721661  0.03490730  1
  Zn  Zn100  1  0.61869409  0.13443179  0.75400950  1
  Zn  Zn101  1  0.56625575  0.82583401  0.56073479  1
  O  O102  1  0.14637403  0.11490245  0.14324147  1
  O  O103  1  0.13165755  0.11661962  0.60050477  1
  O  O104  1  0.09278063  0.62382464  0.07745258  1
  O  O105  1  0.13413464  0.63347201  0.74407784  1
  O  O106  1  0.66134516  0.12371942  0.15018701  1
  O  O107  1  0.59970261  0.10391609  0.59947047  1
  O  O108  1  0.64910288  0.62713783  0.13041050  1
  O  O109  1  0.59676054  0.66455545  0.58433941  1
  O  O110  1  0.37333690  0.33819102  0.43730762  1
  O  O111  1  0.33110854  0.37700619  0.89537515  1
  O  O112  1  0.38436406  0.85647719  0.38449192  1
  O  O113  1  0.40990526  0.89176072  0.88968760  1
  O  O114  1  0.89589799  0.35361572  0.41233887  1
  O  O115  1  0.89829464  0.39280037  0.91294999  1
  O  O116  1  0.91289165  0.86610694  0.38584277  1
  O  O117  1  0.95191083  0.85397253  0.82629230  1
  O  O118  1  0.29429255  -0.01867527  0.35379932  1
  O  O119  1  0.24721899  0.02835470  0.84441629  1
  O  O120  1  0.24558246  0.50109094  0.35122648  1
  O  O121  1  0.26602844  0.51875591  0.90764118  1
  O  O122  1  0.75589178  0.07568827  0.42906296  1
  O  O123  1  0.73923111  -0.00984089  0.89382816  1
  O  O124  1  0.61285763  0.49627382  0.29564072  1
  O  O125  1  0.77442980  0.48857308  0.88445833  1
  O  O126  1  0.26699043  0.48859325  0.06936431  1
  O  O127  1  0.09993905  0.53019865  0.63157142  1
  O  O128  1  0.23827288  0.99209955  0.11091765  1
  O  O129  1  0.24519333  1.01074902  0.62937438  1
  O  O130  1  0.76651888  0.48653999  0.11587033  1
  O  O131  1  0.71933821  0.55927852  0.64049862  1
  O  O132  1  0.73463182  0.98164546  0.13280070  1
  O  O133  1  0.73166573  0.98985036  0.57334377  1
  O  O134  1  0.00757582  0.36808269  0.24201738  1
  O  O135  1  0.01032856  0.36823724  0.78276344  1
  O  O136  1  0.01205106  0.86543648  0.26541167  1
  O  O137  1  0.15610815  0.88198666  0.89144634  1
  O  O138  1  0.48565534  0.38783231  0.24813011  1
  O  O139  1  0.52978459  0.34129376  0.74515782  1
  O  O140  1  0.45844230  0.80442583  0.25735896  1
  O  O141  1  0.48593042  0.91351992  0.76967040  1
  O  O142  1  0.47993012  0.11271752  0.27344771  1
  O  O143  1  0.50876715  0.15184743  0.72486923  1
  O  O144  1  0.50578171  0.59464687  0.21927873  1
  O  O145  1  0.48481389  0.59238074  0.74663871  1
  O  O146  1  0.99061673  0.13528429  0.27700840  1
  O  O147  1  1.01306960  0.12598838  0.75899848  1
  O  O148  1  1.03830028  0.64952148  0.24563228  1
  O  O149  1  0.97749897  0.59899243  0.72168646  1
  O  O150  1  0.27940591  0.26764601  0.08881926  1
  O  O151  1  0.34920639  0.28059453  0.46889524  1
  O  O152  1  0.35078372  0.74347054  -0.02172629  1
  O  O153  1  0.34376047  0.72406121  0.49880046  1
  O  O154  1  0.92242650  0.22284126  -0.01577758  1
  O  O155  1  0.91569382  0.27130274  0.51785934  1
  O  O156  1  0.86054735  0.74323285  0.02564555  1
  O  O157  1  0.79031756  0.78798061  0.55534503  1
  O  O158  1  0.11760103  0.23578886  0.48388017  1
  O  O159  1  0.12322714  0.24423723  0.99609041  1
  O  O160  1  0.17027714  0.72814721  0.51256819  1
  O  O161  1  0.08325322  0.74594499  1.00980528  1
  O  O162  1  0.63428534  0.30786397  0.45292585  1
  O  O163  1  0.62068615  0.23763391  0.98000774  1
  O  O164  1  0.62756448  0.79083095  0.46737627  1
  O  O165  1  0.67987009  0.77747038  0.98533859  1
  O  O166  1  0.49573443  0.23293773  0.14837907  1
  O  O167  1  0.50238679  0.25086172  0.62169847  1
  O  O168  1  0.52881837  0.74792256  0.11906555  1
  O  O169  1  0.53614282  0.71642061  0.58048933  1
  O  O170  1  1.02339356  0.23027281  0.16381849  1
  O  O171  1  1.02584399  0.24235297  0.65471115  1
  O  O172  1  0.96669214  0.77059445  0.14525653  1
  O  O173  1  1.05396605  0.76763147  0.63675769  1
  O  O174  1  0.02941835  0.25702126  0.36647423  1
  O  O175  1  0.03131653  0.24410864  0.86471874  1
  O  O176  1  0.02853525  0.76199362  0.35819229  1
  O  O177  1  -0.02486177  0.80611853  0.87692802  1
  O  O178  1  0.50711893  0.26723512  0.35920528  1
  O  O179  1  0.48921084  0.25411456  0.84928571  1
  O  O180  1  0.48259205  0.72186431  0.39535831  1
  O  O181  1  0.50034390  0.78315676  0.83194912  1
  O  O182  1  0.24462376  0.12978361  0.49449735  1
  O  O183  1  0.26559203  0.11339439  0.99188834  1
  O  O184  1  0.23908353  0.58146383  0.49402031  1
  O  O185  1  0.18490313  0.66338660  0.96183482  1
  O  O186  1  0.73598527  0.12795015  0.47368973  1
  O  O187  1  0.75338913  0.10846029  1.00763191  1
  O  O188  1  0.71313858  0.66586682  0.50600145  1
  O  O189  1  0.73716384  0.60293516  0.98655927  1
  O  O190  1  0.21392090  0.44741553  0.04419944  1
  O  O191  1  0.22662691  0.44166151  0.56568744  1
  O  O192  1  0.32972821  0.86021086  0.08174575  1
  O  O193  1  0.24509670  0.87830070  0.50908707  1
  O  O194  1  0.73493339  0.36287489  0.04153884  1
  O  O195  1  0.79139383  0.37163109  0.50758343  1
  O  O196  1  0.71042669  0.84233747  -0.03095221  1
  O  O197  1  0.74784659  0.87506048  0.44360707  1
  O  O198  1  0.11518044  0.47987923  0.23894674  1
  O  O199  1  0.12239132  0.47440163  0.80264536  1
  O  O200  1  0.13162948  0.99416380  0.23845015  1
  O  O201  1  0.12548960  1.01866304  0.72769293  1
  O  O202  1  0.60749317  0.44006181  0.33845893  1
  O  O203  1  0.62778641  0.45827279  0.77167286  1
  O  O204  1  0.60494334  0.99442241  0.22523431  1
  O  O205  1  0.64218463  1.04161234  0.69693630  1
  O  O206  1  0.29615425  0.01046472  0.28902389  1
  O  O207  1  0.36857503  0.02467286  0.73670692  1
  O  O208  1  0.34554404  0.49511301  0.22680673  1
  O  O209  1  0.34762819  0.50140009  0.78368758  1
  O  O210  1  0.87664210  0.02598221  0.31140550  1
  O  O211  1  0.88461781  0.04919424  0.67093497  1
  O  O212  1  0.92755066  0.52955815  0.26109701  1
  O  O213  1  0.84038571  0.53270061  0.75692388  1
  O  O214  1  0.13695289  0.38204704  0.42161600  1
  O  O215  1  0.14816590  0.35321436  0.87852105  1
  O  O216  1  0.13509048  0.88381390  0.34459047  1
  O  O217  1  0.14138717  0.85071570  0.82896665  1
  O  O218  1  0.76255084  0.40731617  0.36717188  1
  O  O219  1  0.62108371  0.35077760  0.87556422  1
  O  O220  1  0.55748411  0.88246430  0.34096870  1
  O  O221  1  0.60959435  0.88421095  0.84504136  1
  O  O222  1  0.36812680  0.11936786  0.14956682  1
  O  O223  1  0.39418281  0.12955823  0.61224087  1
  O  O224  1  0.35482240  0.67371721  -0.04207324  1
  O  O225  1  0.42470051  0.60615555  0.59415497  1
  O  O226  1  0.84829756  0.12002576  0.17740643  1
  O  O227  1  0.78872512  0.18448432  0.64229475  1
  O  O228  1  0.86199348  0.64258411  0.13825632  1
  O  O229  1  0.87760532  0.59855064  0.63016349  1
  O  O230  1  0.23867728  0.24407367  0.15395255  1
  O  O231  1  0.20153039  0.27766188  0.60499000  1
  O  O232  1  0.26940514  0.72113016  0.12306690  1
  O  O233  1  0.23486968  0.78204514  0.65527645  1
  O  O234  1  0.75672130  0.28424388  0.15329366  1
  O  O235  1  0.73121001  0.20877427  0.60825465  1
  O  O236  1  0.76232162  0.75820394  0.16749494  1
  O  O237  1  0.74228795  0.77946665  0.61507020  1
  O  O238  1  0.23209044  0.26992987  0.36362540  1
  O  O239  1  0.24147561  0.23535857  0.87985045  1
  O  O240  1  0.23997844  0.68936187  0.37443908  1
  O  O241  1  0.25207393  0.71124232  0.81838273  1
  O  O242  1  0.72427207  0.24994531  0.32831163  1
  O  O243  1  0.75676557  0.26483823  0.90438528  1
  O  O244  1  0.75684217  0.74004683  0.37079094  1
  O  O245  1  0.80908951  0.76553779  0.87233124  1
  O  O246  1  -0.08977061  0.19361336  0.04736983  1
  O  O247  1  0.01323311  0.10872028  0.48342069  1
  O  O248  1  -0.01856034  0.65164597  -0.02752642  1
  O  O249  1  0.03944994  0.66026484  0.47247098  1
  O  O250  1  0.49171960  0.14131715  -0.00837694  1
  O  O251  1  0.49655189  0.15328536  0.50323197  1
  O  O252  1  0.51354210  0.61062673  0.05440863  1
  O  O253  1  0.52268079  0.57168977  0.49512875  1
  O  O254  1  0.51947946  0.41183695  0.50868668  1
  O  O255  1  0.49407840  0.34164523  0.97642071  1
  O  O256  1  0.47850093  0.87466201  0.50157731  1
  O  O257  1  0.52913953  0.84181910  0.95913575  1
  O  O258  1  0.99527075  0.37755528  0.54171070  1
  O  O259  1  1.01033972  0.43737239  1.05652745  1
  O  O260  1  1.04428317  0.88227793  0.47555965  1
  O  O261  1  0.98917010  0.88885802  1.00493940  1
  O  O262  1  0.43257777  0.49021309  0.36602934  1
  O  O263  1  0.46446529  0.43321204  0.84570170  1
  O  O264  1  0.48786660  1.02511882  0.40294815  1
  O  O265  1  0.52569268  0.97833631  0.90569747  1
  O  O266  1  1.07223439  0.55327065  0.39967996  1
  O  O267  1  0.96526952  0.51292324  0.85986010  1
  O  O268  1  1.01799114  0.98749451  0.37998553  1
  O  O269  1  1.01199787  1.00435643  0.89500983  1
  O  O270  1  0.03432226  0.04082651  0.07787466  1
  O  O271  1  0.03006034  -0.00278321  0.59541723  1
  O  O272  1  -0.00682027  0.47800505  0.11401934  1
  O  O273  1  -0.03196652  0.40840982  0.74064872  1
  O  O274  1  0.51627699  0.06956464  0.12646619  1
  O  O275  1  0.49261997  0.01103727  0.59932429  1
  O  O276  1  0.50494543  0.46233595  0.09942329  1
  O  O277  1  0.47760110  0.46740023  0.64679377  1
  O  O278  1  0.22909248  0.39056496  0.23232041  1
  O  O279  1  0.24423708  0.37045801  0.73930000  1
  O  O280  1  0.23577215  0.86437600  0.22616748  1
  O  O281  1  0.25640291  0.91563073  0.73560566  1
  O  O282  1  0.80984097  0.39628002  0.23276451  1
  O  O283  1  0.74764670  0.35507087  0.75954960  1
  O  O284  1  0.76299025  0.88069408  0.26658850  1
  O  O285  1  0.82128414  0.88567074  0.70434173  1
  O  O286  1  0.31527855  0.14118555  0.33349180  1
  O  O287  1  0.25107769  0.13113475  0.73084498  1
  O  O288  1  0.21755109  0.58478041  0.20923344  1
  O  O289  1  0.29704684  0.60361745  0.67406924  1
  O  O290  1  0.79379946  0.13866675  0.23375098  1
  O  O291  1  0.83657032  0.04324468  0.72189891  1
  O  O292  1  0.77664561  0.60253428  0.26675553  1
  O  O293  1  0.78349507  0.66798286  0.71936093  1
  O  O294  1  0.35640905  0.13839295  0.39179468  1
  O  O295  1  0.35576170  0.13601340  0.86811601  1
  O  O296  1  0.41700402  0.56001086  0.36669980  1
  O  O297  1  0.35912965  0.57799073  0.80424021  1
  O  O298  1  0.87102984  0.16651034  0.38318540  1
  O  O299  1  0.82776451  0.12377946  0.86141424  1
  O  O300  1  0.87986916  0.62391038  0.38005823  1
  O  O301  1  0.88577134  0.63250576  0.83911061  1
  O  O302  1  0.11838764  0.35327116  0.12396201  1
  O  O303  1  0.10947930  0.38640889  0.66890029  1
  O  O304  1  0.11015888  0.90165338  0.13436965  1
  O  O305  1  0.14798692  0.90546324  0.61627371  1
  O  O306  1  0.67353639  0.40573832  0.17756965  1
  O  O307  1  0.64352261  0.34748157  0.64114877  1
  O  O308  1  0.64235318  0.85890133  0.14171217  1
  O  O309  1  0.61279772  0.89943540  0.62930881  1
  O  O310  1  0.12186781  0.28861906  0.27381709  1
  O  O311  1  0.12390548  0.26447436  0.76159322  1
  O  O312  1  0.11218957  0.76906332  0.21387006  1
  O  O313  1  0.04605748  0.80957022  0.69515240  1
  O  O314  1  0.59860543  0.26607620  0.25640107  1
  O  O315  1  0.64667143  0.24421028  0.77811694  1
  O  O316  1  0.60294969  0.71142060  0.24859113  1
  O  O317  1  0.62663834  0.71235579  0.72802582  1
  O  O318  1  0.39170057  0.26053261  0.25616410  1
  O  O319  1  0.38187635  0.26536573  0.73946373  1
  O  O320  1  0.32969344  0.68418489  0.13114295  1
  O  O321  1  0.40195188  0.72334361  0.70689250  1
  O  O322  1  0.90024839  0.26466300  0.26811904  1
  O  O323  1  0.91089746  0.24985882  0.76241766  1
  O  O324  1  0.89986184  0.72851955  0.26732249  1
  O  O325  1  0.90166774  0.72469400  0.72976458  1
  O  O326  1  0.37666441  0.48057637  0.51985097  1
  O  O327  1  0.41449774  0.50878562  0.96869536  1
  O  O328  1  0.37838342  0.99725475  0.49979294  1
  O  O329  1  0.41542353  1.00678057  1.02631321  1
  O  O330  1  0.90517563  0.47501397  0.50139545  1
  O  O331  1  0.87875409  0.52853719  0.99408017  1
  O  O332  1  0.90970330  0.98873566  0.49875497  1
  O  O333  1  0.89837305  1.02216575  1.01471222  1
  O  O334  1  0.09797959  0.01683369  0.02807128  1
  O  O335  1  0.13311025  0.01652763  0.49136014  1
  O  O336  1  0.09674351  0.54450781  -0.03859420  1
  O  O337  1  0.07186923  0.56719235  0.57729772  1
  O  O338  1  0.60284857  -0.00019939  0.03700586  1
  O  O339  1  0.59631935  -0.01942922  0.49680290  1
  O  O340  1  0.58543046  0.49664556  -0.04245335  1
  O  O341  1  0.66773385  0.50523976  0.49370284  1
  O  O342  1  0.33414313  0.31451590  0.10088930  1
  O  O343  1  0.34363554  0.34607933  0.61286186  1
  O  O344  1  0.39426053  0.84396835  0.10571459  1
  O  O345  1  0.35795544  0.88070027  0.61832837  1
  O  O346  1  0.86666252  0.38412435  0.11072150  1
  O  O347  1  0.86924720  0.38294149  0.61674729  1
  O  O348  1  0.83571256  0.86591274  0.12247867  1
  O  O349  1  0.86943546  0.89000264  0.64914492  1
  O  O350  1  0.14063226  0.12053478  0.37936178  1
  O  O351  1  0.14432369  0.13821468  0.87685297  1
  O  O352  1  0.01647020  0.60437944  0.43191958  1
  O  O353  1  0.07321475  0.66097887  0.87191327  1
  O  O354  1  0.61276903  0.15556619  0.38223181  1
  O  O355  1  0.66043182  0.13325480  0.86899433  1
  O  O356  1  0.62041727  0.61366282  0.38768013  1
  O  O357  1  0.63575761  0.69429335  0.79707622  1
