# generated using pymatgen
data_V51Zn51O256
_symmetry_space_group_name_H-M   'P 1'
_cell_length_a   17.93655952
_cell_length_b   17.50076019
_cell_length_c   17.67471940
_cell_angle_alpha   90.86982657
_cell_angle_beta   88.91104046
_cell_angle_gamma   90.00573866
_symmetry_Int_Tables_number   1
_chemical_formula_structural   V51Zn51O256
_chemical_formula_sum   'V51 Zn51 O256'
_cell_volume   5546.51362930
_cell_formula_units_Z   1
loop_
 _symmetry_equiv_pos_site_id
 _symmetry_equiv_pos_as_xyz
  1  'x, y, z'
loop_
 _atom_site_type_symbol
 _atom_site_label
 _atom_site_symmetry_multiplicity
 _atom_site_fract_x
 _atom_site_fract_y
 _atom_site_fract_z
 _atom_site_occupancy
  V  V0  1  -0.01829674  0.02001568  0.02119614  1
  V  V1  1  0.19120881  0.89448004  0.10914177  1
  V  V2  1  0.71584177  0.09986367  0.82201621  1
  V  V3  1  0.18126139  0.37106896  0.76603570  1
  V  V4  1  0.21714069  0.29309251  0.59732524  1
  V  V5  1  0.88776697  -0.01673736  0.37669822  1
  V  V6  1  0.32119186  0.02964059  0.41904067  1
  V  V7  1  0.34478266  0.09837207  0.18230628  1
  V  V8  1  0.58644196  0.10244716  0.48167809  1
  V  V9  1  0.21611190  0.59635978  0.42413471  1
  V  V10  1  -0.04752604  0.83667184  0.90477167  1
  V  V11  1  0.93708264  0.38632352  0.02242574  1
  V  V12  1  0.51920442  0.46793099  0.45203310  1
  V  V13  1  0.64752648  0.59795578  0.49760055  1
  V  V14  1  0.73621066  0.46763433  0.76271667  1
  V  V15  1  0.27759254  0.57977429  0.77265603  1
  V  V16  1  0.24191975  0.80045159  -0.05848690  1
  V  V17  1  0.24182957  0.38059518  0.07482303  1
  V  V18  1  0.02109372  0.03160160  0.49931515  1
  V  V19  1  0.48922927  0.58713251  0.59967676  1
  V  V20  1  0.11761163  0.66722568  -0.00670311  1
  V  V21  1  0.54187704  0.59832915  0.16294385  1
  V  V22  1  0.20219828  0.14908445  0.38108333  1
  V  V23  1  0.68464776  0.79434266  0.39450947  1
  V  V24  1  -0.02082952  0.65283636  0.11884063  1
  V  V25  1  0.86739052  0.17709411  0.25383434  1
  V  V26  1  0.09754629  0.88972517  0.25789040  1
  V  V27  1  0.49409168  0.24586362  0.72697802  1
  V  V28  1  0.88804456  0.22498110  0.61690709  1
  V  V29  1  0.12788874  0.53748011  0.10850365  1
  V  V30  1  0.77376386  0.77791594  0.52719302  1
  V  V31  1  0.40699522  0.78768114  0.60815609  1
  V  V32  1  0.64793256  0.62698173  -0.00794936  1
  V  V33  1  0.33400727  0.77903858  0.16827985  1
  V  V34  1  0.44783553  0.30115926  0.24396711  1
  V  V35  1  0.56393686  0.73941272  0.70447393  1
  V  V36  1  0.25709047  0.11775485  0.87127424  1
  V  V37  1  0.92195456  0.14081118  0.76262235  1
  V  V38  1  0.21080787  0.53089168  0.27205151  1
  V  V39  1  0.25198548  0.77302204  0.50354186  1
  V  V40  1  0.00387392  0.25330278  0.20315484  1
  V  V41  1  0.80476012  0.60489467  0.85901480  1
  V  V42  1  0.40418614  0.67272808  0.76019520  1
  V  V43  1  0.91545818  0.87407422  0.52457775  1
  V  V44  1  0.11843379  0.35963359  0.26971206  1
  V  V45  1  0.35556667  0.37118635  0.47282063  1
  V  V46  1  0.71988287  0.25668785  0.03992903  1
  V  V47  1  0.85152287  0.89513573  0.03469563  1
  V  V48  1  0.88226596  0.61719680  0.27640480  1
  V  V49  1  0.40695127  0.36478140  0.01032916  1
  V  V50  1  0.00352509  0.75089413  0.27307678  1
  Zn  Zn51  1  0.97353596  0.65367428  0.91138499  1
  Zn  Zn52  1  0.85297265  0.42282043  0.59190426  1
  Zn  Zn53  1  0.49731354  0.28796731  0.52408787  1
  Zn  Zn54  1  0.53433664  0.27986885  0.06947748  1
  Zn  Zn55  1  0.39111256  0.46800999  0.19398486  1
  Zn  Zn56  1  0.29828231  0.92382208  0.56699145  1
  Zn  Zn57  1  0.73510382  0.63523514  0.65675983  1
  Zn  Zn58  1  0.94202016  0.17156782  0.43871568  1
  Zn  Zn59  1  0.27236560  0.79264480  0.74240009  1
  Zn  Zn60  1  0.77821139  0.43003975  0.94891797  1
  Zn  Zn61  1  0.03819889  0.07988442  0.29880230  1
  Zn  Zn62  1  0.73594304  0.96362093  0.47724746  1
  Zn  Zn63  1  0.02174562  0.82658719  0.06239704  1
  Zn  Zn64  1  0.85572191  0.79337369  0.34936230  1
  Zn  Zn65  1  0.36957228  0.64727955  0.50148327  1
  Zn  Zn66  1  0.93489027  0.93597644  0.19545485  1
  Zn  Zn67  1  0.06573216  0.23002441  0.69517923  1
  Zn  Zn68  1  0.28469001  0.44809805  0.90338374  1
  Zn  Zn69  1  0.37651539  0.21198325  0.38914519  1
  Zn  Zn70  1  0.25094431  0.07332285  0.04020660  1
  Zn  Zn71  1  0.94100226  0.69339740  0.44688441  1
  Zn  Zn72  1  0.10716581  0.87029964  0.45924816  1
  Zn  Zn73  1  0.66141116  0.39569914  0.49959186  1
  Zn  Zn74  1  0.97026571  0.45413684  0.19644603  1
  Zn  Zn75  1  0.88911662  0.19869317  0.95923220  1
  Zn  Zn76  1  0.76961154  0.26284534  0.74290699  1
  Zn  Zn77  1  0.20798022  0.23260500  0.18406827  1
  Zn  Zn78  1  0.68730957  0.20942402  0.21399546  1
  Zn  Zn79  1  0.33551725  0.28861186  0.83750605  1
  Zn  Zn80  1  0.55989834  0.75572701  0.53212018  1
  Zn  Zn81  1  0.26151517  0.12469791  0.55588668  1
  Zn  Zn82  1  0.76889582  0.13424962  0.37913843  1
  Zn  Zn83  1  0.94350647  0.99520213  0.66792031  1
  Zn  Zn84  1  0.77568863  0.76704894  0.96404777  1
  Zn  Zn85  1  0.29530605  0.31788475  0.29708159  1
  Zn  Zn86  1  0.64204198  0.60371376  0.79710733  1
  Zn  Zn87  1  0.84333651  0.09846698  0.07078597  1
  Zn  Zn88  1  0.11686096  0.93347045  0.93057355  1
  Zn  Zn89  1  0.31670235  0.50503881  0.60738056  1
  Zn  Zn90  1  0.19219761  0.39722557  0.42393686  1
  Zn  Zn91  1  0.71943246  0.11150300  0.63212793  1
  Zn  Zn92  1  0.53789154  0.10492500  0.81610118  1
  Zn  Zn93  1  0.51351945  0.15205490  0.28554192  1
  Zn  Zn94  1  0.85612642  0.06811979  0.55437168  1
  Zn  Zn95  1  0.05797867  0.07446972  0.84200213  1
  Zn  Zn96  1  0.68198924  0.63799992  0.29409941  1
  Zn  Zn97  1  0.29809049  0.92533392  0.26931467  1
  Zn  Zn98  1  0.87827933  1.00510846  0.87411426  1
  Zn  Zn99  1  0.37222550  0.18395774  0.99526779  1
  Zn  Zn100  1  0.87519353  0.55839843  0.04405402  1
  Zn  Zn101  1  0.13442331  0.54223347  0.85581885  1
  O  O102  1  0.14603972  0.13697533  0.08441470  1
  O  O103  1  0.17118198  0.04172318  0.69106163  1
  O  O104  1  0.08834299  0.65089260  0.09367672  1
  O  O105  1  0.13927556  0.69203336  0.77302229  1
  O  O106  1  0.63557023  0.01391299  0.20811570  1
  O  O107  1  0.62493284  0.12045153  0.57407820  1
  O  O108  1  0.61445867  0.58815816  0.22629610  1
  O  O109  1  0.57651997  0.64590466  0.56064584  1
  O  O110  1  0.29894034  0.37462125  0.39104477  1
  O  O111  1  0.37899629  0.28444913  0.93386868  1
  O  O112  1  0.35374659  0.95475378  0.36734059  1
  O  O113  1  0.43113122  0.93268248  0.95043281  1
  O  O114  1  0.89482537  0.34369452  0.38819230  1
  O  O115  1  0.95901526  0.35108344  0.79970811  1
  O  O116  1  0.88320022  0.88506195  0.40596245  1
  O  O117  1  0.89278008  0.89357854  0.85666163  1
  O  O118  1  0.24162100  0.05440005  0.36548099  1
  O  O119  1  0.24565387  0.03349534  0.93111850  1
  O  O120  1  0.19750996  0.49980335  0.38246277  1
  O  O121  1  0.24936655  0.54250905  0.86180598  1
  O  O122  1  0.80264320  0.02948038  0.40974201  1
  O  O123  1  0.77904995  0.04168259  0.86507525  1
  O  O124  1  0.67624531  0.42547514  0.32631009  1
  O  O125  1  0.77201135  0.49265271  0.85928129  1
  O  O126  1  0.18121061  0.57541912  0.18541086  1
  O  O127  1  0.25889752  0.52131722  0.69808787  1
  O  O128  1  0.21711844  0.98558217  0.09045819  1
  O  O129  1  0.33194623  0.97183069  0.74085415  1
  O  O130  1  0.79343693  0.40004926  0.26229964  1
  O  O131  1  0.73735594  0.50413100  0.65880086  1
  O  O132  1  0.62779083  1.06451055  0.03447683  1
  O  O133  1  0.75666268  1.03247335  0.56606824  1
  O  O134  1  0.01887880  0.36002023  0.23908232  1
  O  O135  1  0.01201722  0.47008406  0.68859715  1
  O  O136  1  -0.01094946  0.85620801  0.25143392  1
  O  O137  1  0.01360018  0.70513862  0.65191346  1
  O  O138  1  0.43724329  0.39683318  0.26404985  1
  O  O139  1  0.51035411  0.33789793  0.75380543  1
  O  O140  1  0.53183152  0.91636412  0.29482975  1
  O  O141  1  0.65250789  0.82775535  0.67405299  1
  O  O142  1  0.42743091  0.12384529  0.22469940  1
  O  O143  1  0.47509912  0.13763337  0.73061364  1
  O  O144  1  0.50305972  0.68147853  0.17911110  1
  O  O145  1  0.49043463  0.65937169  0.69723277  1
  O  O146  1  0.98190949  0.15934269  0.24572260  1
  O  O147  1  1.02277446  0.15056577  0.76375938  1
  O  O148  1  0.99822650  0.65387486  0.22860473  1
  O  O149  1  1.16112284  0.61440876  0.76007962  1
  O  O150  1  0.42172109  0.26149138  0.05294938  1
  O  O151  1  0.39787964  0.27918262  0.48116554  1
  O  O152  1  0.32858903  0.80351774  -0.03400965  1
  O  O153  1  0.43973826  0.72715511  0.52866132  1
  O  O154  1  0.91216971  0.30263928  -0.02556276  1
  O  O155  1  0.87135918  0.17491720  0.52497695  1
  O  O156  1  0.88198873  0.80020795  -0.01461877  1
  O  O157  1  0.88370823  0.77037439  0.51194889  1
  O  O158  1  0.19648415  0.10490323  0.67032495  1
  O  O159  1  0.09940383  0.16172517  1.03993022  1
  O  O160  1  0.15804464  0.78911400  0.51311388  1
  O  O161  1  0.06566071  0.74878636  0.98976724  1
  O  O162  1  0.55459705  0.19919874  0.49232893  1
  O  O163  1  0.62550643  0.23488922  1.02911295  1
  O  O164  1  0.66868567  0.77274336  0.50166302  1
  O  O165  1  0.68724240  0.71332226  1.00779193  1
  O  O166  1  0.51878412  0.28348202  0.17807684  1
  O  O167  1  0.47630426  0.25465474  0.62980207  1
  O  O168  1  0.44254331  0.81664624  0.15865581  1
  O  O169  1  0.51631753  0.79419709  0.62979157  1
  O  O170  1  1.00068899  0.24549264  0.11199648  1
  O  O171  1  0.98180525  0.23563798  0.62345785  1
  O  O172  1  0.96741410  0.74878873  0.11895721  1
  O  O173  1  1.15821999  0.73632270  0.71836717  1
  O  O174  1  -0.05733847  0.31357932  0.42759287  1
  O  O175  1  -0.00722937  0.39056621  0.84520387  1
  O  O176  1  0.00604491  0.74379309  0.37095681  1
  O  O177  1  -0.04678988  0.74707244  0.86188391  1
  O  O178  1  0.46449743  0.24585050  0.32957716  1
  O  O179  1  0.51262303  0.21779817  0.82596998  1
  O  O180  1  0.57103223  0.80251120  0.38756478  1
  O  O181  1  0.54904609  0.78135842  0.78520459  1
  O  O182  1  0.19183757  0.15240470  0.47679303  1
  O  O183  1  0.25684299  0.16851879  0.96796757  1
  O  O184  1  0.25710918  0.54979417  0.51544563  1
  O  O185  1  0.20661084  0.70363122  0.96976270  1
  O  O186  1  0.67410903  0.13168502  0.43546132  1
  O  O187  1  0.78569995  0.18082022  1.01480402  1
  O  O188  1  0.72998098  0.60515566  0.54252903  1
  O  O189  1  0.79122114  0.59416004  0.97356290  1
  O  O190  1  0.23263188  0.38972474  -0.01895325  1
  O  O191  1  0.22030094  0.34129656  0.51183400  1
  O  O192  1  0.18622470  0.87314441  -0.00699854  1
  O  O193  1  0.28667508  0.85786300  0.47411576  1
  O  O194  1  0.74042382  0.34050713  -0.00728573  1
  O  O195  1  0.68274411  0.34242555  0.59911144  1
  O  O196  1  0.76129883  0.87182867  0.00864316  1
  O  O197  1  0.78422770  0.87587221  0.53645390  1
  O  O198  1  0.13023806  0.46118163  0.26527504  1
  O  O199  1  0.13123965  0.45040978  0.79655631  1
  O  O200  1  0.06315552  0.98234967  0.25109332  1
  O  O201  1  0.12480019  0.98935928  0.83745433  1
  O  O202  1  0.78464283  0.44170921  0.20358611  1
  O  O203  1  0.64435910  0.49207710  0.77296446  1
  O  O204  1  0.67330742  0.97949437  0.25354482  1
  O  O205  1  0.53848140  0.99343717  0.76714267  1
  O  O206  1  0.33471936  0.00324777  0.20225954  1
  O  O207  1  0.43764380  -0.07233151  0.88131582  1
  O  O208  1  0.29465774  0.49343868  0.24580482  1
  O  O209  1  0.37797909  0.57178101  0.77464844  1
  O  O210  1  0.87723091  -0.02232695  0.28224587  1
  O  O211  1  0.91828644  0.03539176  0.76550956  1
  O  O212  1  0.91589667  0.52427208  0.26097421  1
  O  O213  1  0.81335125  0.48481814  0.67748328  1
  O  O214  1  0.11845718  0.34198172  0.36409404  1
  O  O215  1  0.26305281  0.36682034  0.82240195  1
  O  O216  1  0.11826802  0.87997087  0.34987402  1
  O  O217  1  0.04486220  0.86404521  0.88802856  1
  O  O218  1  0.69954213  0.30849864  0.42688756  1
  O  O219  1  0.53393284  0.45250600  0.88135842  1
  O  O220  1  0.70273196  0.88950972  0.39281561  1
  O  O221  1  0.75336397  0.89572301  0.76872109  1
  O  O222  1  0.34793603  0.10682558  0.07815622  1
  O  O223  1  0.33127517  0.02262584  0.69431801  1
  O  O224  1  0.41551107  0.80956081  0.09003826  1
  O  O225  1  0.38871545  0.59191770  0.60688066  1
  O  O226  1  0.84840850  0.11746575  0.17768474  1
  O  O227  1  0.88811045  0.11394352  0.65748421  1
  O  O228  1  0.89089589  0.61123167  0.14324883  1
  O  O229  1  0.91492552  0.56555572  0.54094890  1
  O  O230  1  0.22651258  0.28584271  0.08866628  1
  O  O231  1  0.28491186  0.22118317  0.60067470  1
  O  O232  1  0.25789885  0.81933344  0.11269972  1
  O  O233  1  0.30664730  0.75191971  0.58640687  1
  O  O234  1  0.72753594  0.27085010  0.13679666  1
  O  O235  1  0.76213853  0.20938977  0.64383009  1
  O  O236  1  0.59925887  0.88870979  0.12793772  1
  O  O237  1  0.77214960  0.73341853  0.61236748  1
  O  O238  1  0.27037300  0.21937703  0.35571408  1
  O  O239  1  0.26727487  0.20236981  0.81874702  1
  O  O240  1  0.27697173  0.69237379  0.44438816  1
  O  O241  1  0.23926161  0.81718066  0.84528887  1
  O  O242  1  0.75814945  0.27449892  0.44762282  1
  O  O243  1  0.73808521  0.19620751  0.82302989  1
  O  O244  1  0.77824483  0.75426006  0.42029824  1
  O  O245  1  0.78467974  0.69943223  0.87512952  1
  O  O246  1  -0.05593229  0.11906814  0.01958799  1
  O  O247  1  0.02802931  0.12869629  0.48296251  1
  O  O248  1  -0.03976844  0.62577737  0.01826473  1
  O  O249  1  -0.02702722  0.60955677  0.52161447  1
  O  O250  1  0.48847089  0.12906105  -0.02452203  1
  O  O251  1  0.50848926  0.05766619  0.51924191  1
  O  O252  1  0.58353156  0.60296824  0.06189681  1
  O  O253  1  0.48236362  0.55418431  0.49929419  1
  O  O254  1  0.55389012  0.37344744  0.49030764  1
  O  O255  1  0.49847311  0.38196132  1.02306519  1
  O  O256  1  0.53569044  0.82967821  0.44740395  1
  O  O257  1  0.57558503  0.85540042  0.96488240  1
  O  O258  1  0.97491932  0.48131432  0.39721340  1
  O  O259  1  1.02226500  0.41517715  0.99776191  1
  O  O260  1  1.00449200  0.85642641  0.50032673  1
  O  O261  1  0.96406922  0.90305293  1.00534575  1
  O  O262  1  0.54234989  0.48820164  0.36598843  1
  O  O263  1  0.48514162  0.47804621  0.84168201  1
  O  O264  1  0.50564440  0.96275385  0.25113457  1
  O  O265  1  0.49420666  1.07587228  0.92671410  1
  O  O266  1  0.80010699  0.46413874  0.43498430  1
  O  O267  1  0.97072626  0.50386550  0.73416311  1
  O  O268  1  0.97761112  1.02825327  0.38345909  1
  O  O269  1  0.97935017  1.03339297  0.90702487  1
  O  O270  1  -0.02871882  0.00467596  0.11738654  1
  O  O271  1  0.02135436  0.02564556  0.59762779  1
  O  O272  1  0.03455301  0.52379610  0.13200253  1
  O  O273  1  -0.06356542  0.49400816  0.56156934  1
  O  O274  1  0.50049914  0.01189360  0.08981887  1
  O  O275  1  0.49033922  -0.03279899  0.72346381  1
  O  O276  1  0.47342757  0.52748324  0.16286314  1
  O  O277  1  0.51886220  0.51154748  0.64040700  1
  O  O278  1  0.21221398  0.34104358  0.23485784  1
  O  O279  1  0.22111741  0.36514341  0.67218739  1
  O  O280  1  0.19423829  0.90643205  0.21871670  1
  O  O281  1  0.24774592  0.87341827  0.66297619  1
  O  O282  1  0.63286370  0.39705486  0.28132221  1
  O  O283  1  0.74406379  0.37039562  0.76120173  1
  O  O284  1  0.64972931  0.84726099  0.14813958  1
  O  O285  1  0.78291083  0.91824771  0.71054372  1
  O  O286  1  0.26159524  0.14330094  0.21049914  1
  O  O287  1  0.28242193  0.06074465  0.79907680  1
  O  O288  1  0.22296511  0.61934596  0.32092435  1
  O  O289  1  0.29523957  0.68109119  0.76100118  1
  O  O290  1  0.76737894  0.19139738  0.28423476  1
  O  O291  1  0.70000621  0.07022718  0.72873001  1
  O  O292  1  0.78681192  0.61215065  0.27209342  1
  O  O293  1  0.76071100  0.59873274  0.76676046  1
  O  O294  1  0.38059688  0.10569311  0.41513512  1
  O  O295  1  0.35933205  0.12320794  0.89508218  1
  O  O296  1  0.32075898  0.55349571  0.46016722  1
  O  O297  1  0.43203148  0.70030446  0.84185431  1
  O  O298  1  0.87936700  0.15504942  0.35557612  1
  O  O299  1  0.89578466  0.15864841  0.85443717  1
  O  O300  1  0.89749546  0.62466677  0.37292311  1
  O  O301  1  0.89760066  0.59478297  0.85225691  1
  O  O302  1  0.17062098  0.44141693  0.11402962  1
  O  O303  1  0.13597897  0.24670249  0.61233286  1
  O  O304  1  0.09614833  0.87556520  0.12393380  1
  O  O305  1  0.13847998  0.92349309  0.61894073  1
  O  O306  1  0.72671695  0.43323010  0.16304319  1
  O  O307  1  0.63809723  0.37801637  0.64378191  1
  O  O308  1  0.68125746  1.02862705  0.05721083  1
  O  O309  1  0.63092038  0.89438751  0.66290323  1
  O  O310  1  0.10379763  0.25400919  0.22299282  1
  O  O311  1  0.12252222  0.29506373  0.77015609  1
  O  O312  1  0.09475946  0.77313180  0.24433321  1
  O  O313  1  0.16534690  0.88499901  0.67095980  1
  O  O314  1  0.61070851  0.14860595  0.24765802  1
  O  O315  1  0.58661405  0.23173987  0.69931194  1
  O  O316  1  0.68179611  0.75359841  0.30647581  1
  O  O317  1  0.64038866  0.67329245  0.71078463  1
  O  O318  1  0.35962090  0.27541858  0.21594290  1
  O  O319  1  0.39520154  0.26317236  0.74830602  1
  O  O320  1  0.32805745  0.68686597  0.17282747  1
  O  O321  1  0.38552598  0.77190182  0.70789953  1
  O  O322  1  0.89570414  0.26759590  0.22849516  1
  O  O323  1  0.87901540  0.23204868  0.72927359  1
  O  O324  1  0.89242941  0.73547326  0.26706756  1
  O  O325  1  1.01269120  0.63946192  0.67481660  1
  O  O326  1  0.42817363  0.42511124  0.43601858  1
  O  O327  1  0.38265829  0.42947065  0.94162679  1
  O  O328  1  0.29657456  1.02348224  0.52216760  1
  O  O329  1  0.46714446  0.95173460  1.09845369  1
  O  O330  1  0.77776064  0.43409746  0.49711430  1
  O  O331  1  0.87100785  0.46113696  0.99308039  1
  O  O332  1  0.91810101  0.98617777  0.50244666  1
  O  O333  1  0.85796943  0.99688061  1.00996065  1
  O  O334  1  0.07692966  0.01075206  0.00588327  1
  O  O335  1  0.10095429  -0.01611885  0.47260199  1
  O  O336  1  0.15879417  0.55916325  0.01748875  1
  O  O337  1  0.01176447  0.44965303  0.44505787  1
  O  O338  1  0.58900726  -0.07617622  -0.03008332  1
  O  O339  1  0.62882114  0.00997848  0.47274263  1
  O  O340  1  0.72471945  0.55398319  -0.00038325  1
  O  O341  1  0.62374039  0.49958215  0.49442415  1
  O  O342  1  0.34317832  0.40309710  0.09112174  1
  O  O343  1  0.34629795  0.41029236  0.56289763  1
  O  O344  1  0.32333705  0.81891442  0.25722225  1
  O  O345  1  0.39636335  0.88144448  0.59143038  1
  O  O346  1  0.92401762  0.39148306  0.11987112  1
  O  O347  1  0.85936963  0.31749745  0.59460147  1
  O  O348  1  0.85652576  0.88852991  0.12979083  1
  O  O349  1  0.91548097  0.89666125  0.61929675  1
  O  O350  1  0.11853647  0.14637620  0.33770062  1
  O  O351  1  0.16053424  0.12516535  0.86266198  1
  O  O352  1  0.13605908  0.62549851  0.45825839  1
  O  O353  1  0.07929387  0.61804564  0.91004253  1
  O  O354  1  0.54705090  0.10219276  0.38998977  1
  O  O355  1  0.62753885  0.08904458  0.86535978  1
  O  O356  1  0.65375748  0.62824469  0.40698033  1
  O  O357  1  0.61594942  0.61787066  0.90109701  1
