# generated using pymatgen
data_V51Zn51O256
_symmetry_space_group_name_H-M   'P 1'
_cell_length_a   17.46627138
_cell_length_b   17.78057970
_cell_length_c   17.32655725
_cell_angle_alpha   90.03692476
_cell_angle_beta   89.86755315
_cell_angle_gamma   90.17202704
_symmetry_Int_Tables_number   1
_chemical_formula_structural   V51Zn51O256
_chemical_formula_sum   'V51 Zn51 O256'
_cell_volume   5380.90334921
_cell_formula_units_Z   1
loop_
 _symmetry_equiv_pos_site_id
 _symmetry_equiv_pos_as_xyz
  1  'x, y, z'
loop_
 _atom_site_type_symbol
 _atom_site_label
 _atom_site_symmetry_multiplicity
 _atom_site_fract_x
 _atom_site_fract_y
 _atom_site_fract_z
 _atom_site_occupancy
  V  V0  1  0.24379437  0.59906673  0.93496695  1
  V  V1  1  0.33134293  0.60069027  0.78471842  1
  V  V2  1  0.88022758  0.39988888  0.02631136  1
  V  V3  1  0.64580163  0.49970833  0.64144957  1
  V  V4  1  0.59892260  0.74572428  0.39081048  1
  V  V5  1  0.09482861  0.84415467  0.75695780  1
  V  V6  1  0.80375049  0.32913165  0.47510860  1
  V  V7  1  0.00988824  0.70129430  0.77308488  1
  V  V8  1  0.47084264  0.51238868  0.57012768  1
  V  V9  1  0.25074356  0.25992103  0.49869865  1
  V  V10  1  0.38989727  0.34167075  0.02630799  1
  V  V11  1  0.19172079  -0.03902227  0.17254516  1
  V  V12  1  0.71958272  0.36600296  0.12204382  1
  V  V13  1  0.36427842  0.01586395  0.39201549  1
  V  V14  1  0.04288015  0.65539762  0.57883038  1
  V  V15  1  0.64615554  0.78704879  0.85315705  1
  V  V16  1  0.09996964  0.16262210  -0.00308689  1
  V  V17  1  -0.00638428  0.00139858  0.51487798  1
  V  V18  1  -0.01019539  0.12658776  0.12422257  1
  V  V19  1  0.86298725  0.24902779  0.11950596  1
  V  V20  1  0.15237072  0.35234314  0.23651076  1
  V  V21  1  0.51230254  0.61851486  0.13148249  1
  V  V22  1  0.87126732  0.49900830  0.87802417  1
  V  V23  1  0.85566784  -0.01469025  0.84625212  1
  V  V24  1  0.79239663  0.12079192  0.89988015  1
  V  V25  1  0.30324951  0.77408005  -0.00799308  1
  V  V26  1  0.57856957  0.89155477  0.73671382  1
  V  V27  1  0.93113354  0.48648568  0.51833455  1
  V  V28  1  0.56997110  -0.03007362  0.09399655  1
  V  V29  1  0.85137185  0.00844257  0.36768866  1
  V  V30  1  0.34892498  0.04031074  0.85076768  1
  V  V31  1  0.12008909  0.72790732  0.92378926  1
  V  V32  1  0.59692298  0.10989082  0.48764896  1
  V  V33  1  0.50278770  0.76642284  0.21231735  1
  V  V34  1  -0.01406050  0.88404377  0.31539396  1
  V  V35  1  0.73689710  0.76283946  0.51391994  1
  V  V36  1  0.51191023  0.49395228  -0.06444886  1
  V  V37  1  0.45467308  0.74525393  0.71844590  1
  V  V38  1  0.84212667  0.13825423  0.25613199  1
  V  V39  1  0.01790158  0.23902607  0.26323301  1
  V  V40  1  0.84435207  0.61825380  0.77108979  1
  V  V41  1  0.52319442  0.11946761  0.12148184  1
  V  V42  1  0.87621668  0.74505206  0.64576334  1
  V  V43  1  0.25475094  0.50446609  0.22716220  1
  V  V44  1  0.01220146  0.41759328  0.34607429  1
  V  V45  1  0.48327322  0.38456567  0.37853299  1
  V  V46  1  0.15396229  0.77260044  0.29528650  1
  V  V47  1  0.64857574  0.87415519  0.28358068  1
  V  V48  1  0.70626151  0.35200379  0.76947847  1
  V  V49  1  0.13524587  0.38653464  0.73515516  1
  V  V50  1  0.36428348  0.18987566  0.13758171  1
  Zn  Zn51  1  0.43402969  0.65173505  0.95852620  1
  Zn  Zn52  1  0.46170738  0.69694767  0.51460057  1
  Zn  Zn53  1  0.35757191  0.53323387  0.06436388  1
  Zn  Zn54  1  0.15259206  0.80695573  0.10407634  1
  Zn  Zn55  1  0.86366633  0.30090181  0.85561997  1
  Zn  Zn56  1  0.53050665  0.30438004  0.06955834  1
  Zn  Zn57  1  0.75852703  -0.01144674  0.01551239  1
  Zn  Zn58  1  0.61552559  0.50876482  0.08667602  1
  Zn  Zn59  1  0.44247741  0.44957092  0.75352168  1
  Zn  Zn60  1  0.68993240  0.21877000  0.18745811  1
  Zn  Zn61  1  0.07333633  0.54057614  0.85652359  1
  Zn  Zn62  1  0.18272118  1.06505573  0.47808689  1
  Zn  Zn63  1  0.50874123  0.80351937  0.00991584  1
  Zn  Zn64  1  0.20385969  0.90220158  0.88828637  1
  Zn  Zn65  1  0.94610883  0.39958077  0.18889300  1
  Zn  Zn66  1  0.69281963  0.92639367  0.45625092  1
  Zn  Zn67  1  0.82656983  0.81377179  0.35105665  1
  Zn  Zn68  1  0.31550071  0.32151729  0.69649747  1
  Zn  Zn69  1  0.34235621  0.00885405  0.59285971  1
  Zn  Zn70  1  0.69726543  0.24331275  0.60924077  1
  Zn  Zn71  1  0.81973259  0.33339849  0.28460560  1
  Zn  Zn72  1  0.44418237  0.44394718  0.19252437  1
  Zn  Zn73  1  0.32312327  0.15845827  0.69226202  1
  Zn  Zn74  1  0.81663946  0.80506589  0.79839835  1
  Zn  Zn75  1  0.08278166  0.38149559  0.53082386  1
  Zn  Zn76  1  0.29932313  0.48980454  0.64025851  1
  Zn  Zn77  1  0.63071838  0.38674785  0.49896227  1
  Zn  Zn78  1  0.23394753  0.66708865  0.13146616  1
  Zn  Zn79  1  0.20959836  0.42805111  0.39285058  1
  Zn  Zn80  1  0.04613300  0.30982529  0.07865233  1
  Zn  Zn81  1  0.54709283  0.03287016  0.29275940  1
  Zn  Zn82  1  1.02334093  0.74284130  0.40541425  1
  Zn  Zn83  1  0.95682375  0.62869336  0.93899194  1
  Zn  Zn84  1  0.69773016  0.41604561  0.94212851  1
  Zn  Zn85  1  0.90980554  0.96845648  0.18194278  1
  Zn  Zn86  1  0.91976458  0.93379763  0.68772675  1
  Zn  Zn87  1  0.96728064  0.16089343  0.90175853  1
  Zn  Zn88  1  0.39324311  0.89846210  0.71582554  1
  Zn  Zn89  1  0.17315346  0.20060924  0.16474417  1
  Zn  Zn90  1  0.29525436  0.42546692  0.87444826  1
  Zn  Zn91  1  0.55746935  0.81458425  0.56965744  1
  Zn  Zn92  1  0.02255455  0.83459256  0.57198356  1
  Zn  Zn93  1  0.22633739  0.04076420  0.00948195  1
  Zn  Zn94  1  0.04360494  0.07895468  0.34441043  1
  Zn  Zn95  1  0.92581012  0.18386057  0.43136200  1
  Zn  Zn96  1  0.19355188  0.65946263  0.70736854  1
  Zn  Zn97  1  0.33217361  0.27968333  0.31214117  1
  Zn  Zn98  1  0.67793635  0.68424039  0.69113467  1
  Zn  Zn99  1  0.33233032  0.83054762  0.30025018  1
  Zn  Zn100  1  0.07992126  0.00997797  0.87634269  1
  Zn  Zn101  1  0.79253523  0.59795743  0.57709092  1
  O  O102  1  0.09585503  0.14320275  0.10705278  1
  O  O103  1  0.05089893  0.13861200  0.65925028  1
  O  O104  1  0.07900452  0.58551489  0.11759732  1
  O  O105  1  0.13092697  0.63836787  0.61682646  1
  O  O106  1  0.60890727  0.15759816  0.15310382  1
  O  O107  1  0.63705206  0.15961187  0.57250852  1
  O  O108  1  0.59847259  0.62161426  0.08436912  1
  O  O109  1  0.62387330  0.58703356  0.67066530  1
  O  O110  1  0.40918333  0.58257115  0.34089120  1
  O  O111  1  0.36451973  0.35398551  0.81238143  1
  O  O112  1  0.35507287  0.91725347  0.36045378  1
  O  O113  1  0.39586539  0.95522668  0.81593840  1
  O  O114  1  0.91538961  0.40034353  0.30464017  1
  O  O115  1  0.89391072  0.39420038  0.92138614  1
  O  O116  1  0.87581280  0.91259366  0.34391747  1
  O  O117  1  0.84492981  0.91073101  0.77652582  1
  O  O118  1  0.26283077  0.01354344  0.40949465  1
  O  O119  1  0.26940456  -0.02439475  0.82200479  1
  O  O120  1  0.27022003  0.48774543  0.32354690  1
  O  O121  1  0.23077638  0.50743947  0.91290008  1
  O  O122  1  0.76012109  -0.00947856  0.39266594  1
  O  O123  1  0.78089963  0.05230799  0.81957487  1
  O  O124  1  0.73123959  0.48596017  0.33031937  1
  O  O125  1  0.77641394  0.48592218  0.89997141  1
  O  O126  1  0.33866071  0.48789833  0.16942245  1
  O  O127  1  0.21461671  0.50517877  0.54328643  1
  O  O128  1  0.25426744  0.99643651  0.10471753  1
  O  O129  1  0.23873785  1.02727096  0.56194284  1
  O  O130  1  0.69946787  0.45904302  0.13841722  1
  O  O131  1  0.73145856  0.50571632  0.59625644  1
  O  O132  1  0.83105528  0.94661955  0.10089870  1
  O  O133  1  0.78050510  1.01098735  0.62208816  1
  O  O134  1  0.03562971  0.35395479  0.24353310  1
  O  O135  1  0.04610122  0.38307954  0.78022483  1
  O  O136  1  -0.03437755  0.88124875  0.21901736  1
  O  O137  1  0.00339702  0.82122876  0.78359149  1
  O  O138  1  0.48887571  0.42627704  0.29027792  1
  O  O139  1  0.44573812  0.25400094  0.82812159  1
  O  O140  1  0.51771402  0.87475983  0.20300550  1
  O  O141  1  0.48986521  0.83787866  0.76051212  1
  O  O142  1  0.51076948  0.15211406  0.26591971  1
  O  O143  1  0.53055374  0.16330479  0.72216369  1
  O  O144  1  0.50876544  0.66188341  0.22463537  1
  O  O145  1  0.41184276  0.66483755  0.76999362  1
  O  O146  1  1.00138765  0.13822580  0.25205995  1
  O  O147  1  1.05978515  0.14042075  0.72955165  1
  O  O148  1  0.97944204  0.69036439  0.21737755  1
  O  O149  1  1.01799139  0.60707534  0.77861452  1
  O  O150  1  0.34919263  0.25340502  0.05331202  1
  O  O151  1  0.34514772  0.23646440  0.51204910  1
  O  O152  1  0.40407519  0.75761962  -0.02321385  1
  O  O153  1  0.34369575  0.69568852  0.55151954  1
  O  O154  1  0.89624075  0.27059813  0.03053317  1
  O  O155  1  0.85827378  0.24967351  0.48573732  1
  O  O156  1  0.81497992  0.69317217  0.07501002  1
  O  O157  1  0.85276402  0.73603150  0.55189537  1
  O  O158  1  0.14939478  0.29793249  0.49724021  1
  O  O159  1  0.08797922  0.25738018  0.98784789  1
  O  O160  1  0.20726269  0.85653040  0.51221174  1
  O  O161  1  0.10546686  0.75628505  1.01570329  1
  O  O162  1  0.53482607  0.17998596  0.46609960  1
  O  O163  1  0.57935415  0.18326869  0.92791701  1
  O  O164  1  0.63165607  0.76126389  0.49514440  1
  O  O165  1  0.58358582  0.77856446  0.93021379  1
  O  O166  1  0.48322891  0.20863993  0.09476676  1
  O  O167  1  0.53650098  0.23100009  0.70938899  1
  O  O168  1  0.51149366  0.75216738  0.11257671  1
  O  O169  1  0.50816539  0.72176602  0.64016853  1
  O  O170  1  0.98645056  0.24386303  0.15430595  1
  O  O171  1  0.99423818  0.29610018  0.56741412  1
  O  O172  1  1.02801531  0.57806724  0.06611496  1
  O  O173  1  0.98715284  0.69678961  0.65759992  1
  O  O174  1  -0.01233142  0.25171368  0.35654523  1
  O  O175  1  -0.04711672  0.24523914  0.84133624  1
  O  O176  1  -0.05857840  0.79276276  0.35530337  1
  O  O177  1  0.02139705  0.71088568  0.88767138  1
  O  O178  1  0.42248649  0.30916688  0.36817917  1
  O  O179  1  0.38871726  0.28757196  0.85532379  1
  O  O180  1  0.50772201  0.71454342  0.40661264  1
  O  O181  1  0.67365409  0.62324034  0.91738261  1
  O  O182  1  0.20668874  0.17353312  0.52020175  1
  O  O183  1  0.19615089  0.14348689  0.99544548  1
  O  O184  1  0.28501113  0.66693197  0.51135451  1
  O  O185  1  0.26220540  0.59530325  1.03829432  1
  O  O186  1  0.69130972  0.14479561  0.46194244  1
  O  O187  1  0.74151425  0.09132073  0.97890027  1
  O  O188  1  0.72147609  0.68487485  0.58499261  1
  O  O189  1  0.76710402  0.68208170  1.12536090  1
  O  O190  1  0.31710014  0.38714440  -0.02273892  1
  O  O191  1  0.26598578  0.35445771  0.45988859  1
  O  O192  1  0.28173314  0.86042623  -0.03978806  1
  O  O193  1  0.27249302  0.83986390  0.53257336  1
  O  O194  1  0.76959316  0.37527736  0.02501339  1
  O  O195  1  0.86094369  0.40724409  0.49162304  1
  O  O196  1  0.80521327  0.86733148  0.11179003  1
  O  O197  1  0.74250047  0.85830873  0.52994571  1
  O  O198  1  0.17270528  0.44844698  0.20250785  1
  O  O199  1  0.12798227  0.48445686  0.77342590  1
  O  O200  1  0.12293107  1.01970764  0.24451394  1
  O  O201  1  0.11708471  0.93253280  0.79885845  1
  O  O202  1  0.71204170  0.53549069  0.28537738  1
  O  O203  1  0.68945943  0.45812614  0.74205142  1
  O  O204  1  0.63707225  0.96990798  0.28899044  1
  O  O205  1  0.55595598  0.98045998  0.73659898  1
  O  O206  1  0.33774713  0.06639195  0.31260016  1
  O  O207  1  0.37840403  0.08745046  0.76322115  1
  O  O208  1  0.37162968  0.63226252  0.31078605  1
  O  O209  1  0.34830413  0.50474809  0.80045772  1
  O  O210  1  0.85851610  0.03318744  0.25583996  1
  O  O211  1  0.94783682  0.01498588  0.77663450  1
  O  O212  1  0.92122685  0.53450578  0.20003226  1
  O  O213  1  0.87042324  0.51402593  0.77709806  1
  O  O214  1  0.11908780  0.38657369  0.34453902  1
  O  O215  1  0.19871095  0.37207801  0.81522321  1
  O  O216  1  0.08317939  0.84550713  0.32400119  1
  O  O217  1  0.14603409  0.80650554  0.86811753  1
  O  O218  1  0.57424960  0.36062942  0.41123490  1
  O  O219  1  0.66836727  0.34510359  0.86050494  1
  O  O220  1  0.63244816  0.85875140  0.38685195  1
  O  O221  1  0.64466048  0.88185820  0.81693040  1
  O  O222  1  0.41616230  0.10276836  0.14379557  1
  O  O223  1  0.37979546  0.10841415  0.61101111  1
  O  O224  1  0.42853500  0.62323518  0.07316323  1
  O  O225  1  0.28875787  0.58980807  0.68922098  1
  O  O226  1  0.88162365  0.14175830  0.14541958  1
  O  O227  1  0.95981637  0.28391419  0.62953323  1
  O  O228  1  0.86976338  0.57051096  0.16859140  1
  O  O229  1  0.85758502  0.63103816  0.66790339  1
  O  O230  1  0.27071322  0.16015164  0.14367343  1
  O  O231  1  0.25679198  0.29094127  0.59570755  1
  O  O232  1  0.26629563  0.76450632  0.08784571  1
  O  O233  1  0.23845164  0.77267357  0.67985090  1
  O  O234  1  0.76824889  0.23343816  0.10287566  1
  O  O235  1  0.71567388  0.32494061  0.53539470  1
  O  O236  1  0.76551023  0.84321029  0.05682174  1
  O  O237  1  0.79255419  0.77387820  0.69056610  1
  O  O238  1  0.26113282  0.23298971  0.39864530  1
  O  O239  1  0.26901320  0.23641631  0.74666708  1
  O  O240  1  0.24546221  0.77421527  0.33437145  1
  O  O241  1  0.23798204  0.71626982  0.94093456  1
  O  O242  1  0.76996313  0.33481441  0.38364170  1
  O  O243  1  0.79119239  0.21484415  0.88367098  1
  O  O244  1  0.77321127  0.74911651  0.42268985  1
  O  O245  1  0.74238845  0.77537589  0.87485233  1
  O  O246  1  -0.01705200  0.14263143  0.02529774  1
  O  O247  1  -0.00395320  0.10194394  0.45059993  1
  O  O248  1  -0.01322149  0.64290724  0.04788721  1
  O  O249  1  0.04311856  0.73599282  0.51489406  1
  O  O250  1  0.54357918  0.06056379  0.04251159  1
  O  O251  1  0.53507998  0.06548935  0.55274738  1
  O  O252  1  0.51549952  0.58966830  -0.07926027  1
  O  O253  1  0.49723964  0.59653515  0.53065825  1
  O  O254  1  0.45614163  0.42348219  0.49365319  1
  O  O255  1  0.47032324  0.32262319  0.97211900  1
  O  O256  1  0.46599033  0.80585292  0.51397876  1
  O  O257  1  0.51486018  0.90828244  1.04307430  1
  O  O258  1  1.00950850  0.42504557  0.45654270  1
  O  O259  1  0.97552536  0.39570904  1.07636262  1
  O  O260  1  1.00209484  0.90662611  0.49032636  1
  O  O261  1  0.93724368  0.83961683  0.99794963  1
  O  O262  1  0.42776729  0.46003953  0.42889786  1
  O  O263  1  0.50063005  0.45035941  0.84771600  1
  O  O264  1  0.45853738  0.99178754  0.35150770  1
  O  O265  1  0.42932095  1.07381847  0.89825275  1
  O  O266  1  1.02245180  0.50452280  0.32051310  1
  O  O267  1  0.97559401  0.52106436  0.90783319  1
  O  O268  1  1.00401844  0.97715892  0.33794997  1
  O  O269  1  0.96773800  0.97856808  0.84822391  1
  O  O270  1  -0.01255775  0.03208803  0.13410185  1
  O  O271  1  -0.04264792  0.00076230  0.60773496  1
  O  O272  1  0.14632810  0.42115766  0.00846672  1
  O  O273  1  0.01237952  0.57594108  0.53258611  1
  O  O274  1  0.53524588  0.02580210  0.18145584  1
  O  O275  1  0.43362694  -0.04358996  0.63202850  1
  O  O276  1  0.51691762  0.52066419  0.15206584  1
  O  O277  1  0.48787444  0.50901662  0.66885275  1
  O  O278  1  0.24207697  0.32902178  0.26972269  1
  O  O279  1  0.22973206  0.40909001  0.68591856  1
  O  O280  1  0.19637766  0.89122407  0.25922401  1
  O  O281  1  0.22498560  0.82341723  0.72877060  1
  O  O282  1  0.72205773  0.32312755  0.21768478  1
  O  O283  1  0.80349884  0.35486602  0.77928831  1
  O  O284  1  0.74205291  0.84770840  0.27381950  1
  O  O285  1  0.72334635  1.01376879  0.66420343  1
  O  O286  1  0.18070510  0.06151928  0.21515135  1
  O  O287  1  0.23412154  0.10306098  0.67607204  1
  O  O288  1  0.23237593  0.59683064  0.21339365  1
  O  O289  1  0.24033943  0.63554539  0.81372475  1
  O  O290  1  0.74675604  0.14407328  0.25053983  1
  O  O291  1  0.80973836  0.18309287  0.62502240  1
  O  O292  1  0.82141425  0.63047972  0.29446606  1
  O  O293  1  0.75047774  0.63076553  0.77426628  1
  O  O294  1  0.39684535  0.09736715  0.43539436  1
  O  O295  1  0.28460599  0.11627455  0.85055196  1
  O  O296  1  0.29869064  0.63883295  0.44525139  1
  O  O297  1  0.34308524  0.61138862  0.90415025  1
  O  O298  1  0.85889513  0.12509333  0.35817765  1
  O  O299  1  0.88584085  0.08612731  0.91169335  1
  O  O300  1  0.86579244  0.59824276  0.33778442  1
  O  O301  1  0.86210880  0.60774129  0.88312210  1
  O  O302  1  0.14509609  0.31181709  0.14231031  1
  O  O303  1  0.10320011  0.40821276  0.64055970  1
  O  O304  1  0.12719897  0.91071173  0.11850596  1
  O  O305  1  0.08990797  0.85813042  0.65901092  1
  O  O306  1  0.63422661  0.32841111  0.08952153  1
  O  O307  1  0.62490699  0.41381463  0.70975653  1
  O  O308  1  0.59380995  0.88549941  0.17644750  1
  O  O309  1  0.61154873  0.86813486  0.64531423  1
  O  O310  1  0.11875494  0.23588085  0.26487385  1
  O  O311  1  0.12880846  0.29140130  0.72243900  1
  O  O312  1  0.15701050  0.74417850  0.19678729  1
  O  O313  1  0.10705249  0.72675297  0.75198561  1
  O  O314  1  0.53244978  0.21410734  0.29170508  1
  O  O315  1  0.68599281  0.27292118  0.71252832  1
  O  O316  1  0.58481124  0.78111097  0.28071038  1
  O  O317  1  0.62018596  0.73544203  0.77197262  1
  O  O318  1  0.37738136  0.23799900  0.22154944  1
  O  O319  1  0.38809836  0.24233097  0.67307988  1
  O  O320  1  0.41290323  0.78371919  0.24571670  1
  O  O321  1  0.37801829  0.78989773  0.68267563  1
  O  O322  1  0.86859174  0.23993960  0.24526657  1
  O  O323  1  0.83250100  0.16093992  0.68918189  1
  O  O324  1  0.91592402  0.70197494  0.19030807  1
  O  O325  1  0.89777241  0.71350801  0.78059627  1
  O  O326  1  0.37273513  0.51916013  0.56367455  1
  O  O327  1  0.43333484  0.48130368  0.99694221  1
  O  O328  1  0.37749699  0.98133346  0.49205519  1
  O  O329  1  0.32203163  1.01614368  0.94882033  1
  O  O330  1  0.86464026  0.55665362  0.50535165  1
  O  O331  1  0.87009903  0.49174888  1.03170610  1
  O  O332  1  0.89577485  1.01702909  0.45812519  1
  O  O333  1  0.82323730  0.94602130  0.92964671  1
  O  O334  1  0.15791217  -0.02006813  -0.05078977  1
  O  O335  1  0.08967643  0.02550223  0.52387081  1
  O  O336  1  0.09247422  0.44656289  -0.02923824  1
  O  O337  1  0.16543258  0.47222709  0.49786221  1
  O  O338  1  0.66385789  -0.03564281  0.06890122  1
  O  O339  1  0.63729121  0.01378098  0.49229569  1
  O  O340  1  0.60283491  0.46686139  -0.01783570  1
  O  O341  1  0.58533132  0.46409221  0.56214293  1
  O  O342  1  0.43829605  0.36835811  0.11417894  1
  O  O343  1  0.37250154  0.40766040  0.67038127  1
  O  O344  1  0.26612252  0.89432112  0.21593008  1
  O  O345  1  0.30300741  0.94236360  0.67155916  1
  O  O346  1  0.84766655  0.35714586  0.14319738  1
  O  O347  1  0.93955850  0.46547713  0.60851008  1
  O  O348  1  0.93767604  0.79736544  0.05390299  1
  O  O349  1  0.92774676  0.83329244  0.64122011  1
  O  O350  1  0.14005708  0.10454402  0.38845340  1
  O  O351  1  0.06943860  0.11467518  0.90788241  1
  O  O352  1  0.10682267  0.70254124  0.34417319  1
  O  O353  1  0.13491467  0.62054437  0.91901536  1
  O  O354  1  0.57808391  0.08251822  0.39078129  1
  O  O355  1  0.60439401  0.18948635  0.86220814  1
  O  O356  1  0.65078955  0.67260382  0.36921605  1
  O  O357  1  0.71582343  0.63553235  0.97183882  1
