# generated using pymatgen
data_V51Zn51O256
_symmetry_space_group_name_H-M   'P 1'
_cell_length_a   17.72744307
_cell_length_b   17.89065481
_cell_length_c   17.83609367
_cell_angle_alpha   89.86832503
_cell_angle_beta   90.99561041
_cell_angle_gamma   89.38222240
_symmetry_Int_Tables_number   1
_chemical_formula_structural   V51Zn51O256
_chemical_formula_sum   'V51 Zn51 O256'
_cell_volume   5655.61610158
_cell_formula_units_Z   1
loop_
 _symmetry_equiv_pos_site_id
 _symmetry_equiv_pos_as_xyz
  1  'x, y, z'
loop_
 _atom_site_type_symbol
 _atom_site_label
 _atom_site_symmetry_multiplicity
 _atom_site_fract_x
 _atom_site_fract_y
 _atom_site_fract_z
 _atom_site_occupancy
  V  V0  1  0.55638135  0.24514410  0.85467609  1
  V  V1  1  -0.02965502  0.85392860  0.37708170  1
  V  V2  1  0.70694323  -0.00401355  0.21286881  1
  V  V3  1  0.82380533  0.39071725  0.03930994  1
  V  V4  1  0.22828526  0.82166902  0.16336290  1
  V  V5  1  0.10852597  0.66514236  -0.00900005  1
  V  V6  1  0.77893504  0.39660366  0.21993585  1
  V  V7  1  0.85585284  0.73259343  0.09400230  1
  V  V8  1  0.07025294  0.29568998  0.90112128  1
  V  V9  1  0.14877952  0.21104140  0.35927446  1
  V  V10  1  0.47208069  0.80444097  0.78530455  1
  V  V11  1  0.61478243  0.80984465  0.27788458  1
  V  V12  1  0.48477399  0.48936247  -0.05029250  1
  V  V13  1  0.35558278  0.60912495  0.70756176  1
  V  V14  1  0.25861381  0.10147032  0.30035266  1
  V  V15  1  0.56300396  0.12638904  -0.01063344  1
  V  V16  1  0.01868978  0.14411116  0.09114037  1
  V  V17  1  0.01202487  0.00314332  0.45778643  1
  V  V18  1  0.61874632  0.12187167  0.46172910  1
  V  V19  1  0.01328038  0.83855581  0.81117639  1
  V  V20  1  0.37445994  0.51789836  0.43222036  1
  V  V21  1  0.22352501  0.51765959  0.69547189  1
  V  V22  1  0.72574824  0.24050513  0.00053766  1
  V  V23  1  0.59991864  0.41149064  0.28371598  1
  V  V24  1  0.61469048  0.62735730  0.54374960  1
  V  V25  1  0.00947162  0.50025554  0.39056827  1
  V  V26  1  0.01025578  0.26537847  0.22282320  1
  V  V27  1  0.38662159  -0.03615982  0.36315903  1
  V  V28  1  0.60099892  0.22762409  0.32657420  1
  V  V29  1  0.31843252  0.46756080  0.88877122  1
  V  V30  1  0.35655984  0.27490249  0.09872731  1
  V  V31  1  0.87093150  -0.00122248  0.34688698  1
  V  V32  1  0.78436981  0.09833055  0.88130060  1
  V  V33  1  0.41671175  0.83182044  0.62578689  1
  V  V34  1  0.84161743  0.22992321  0.12838040  1
  V  V35  1  0.74529156  0.12046165  0.33635683  1
  V  V36  1  0.21960434  0.19425249  0.84036715  1
  V  V37  1  0.62661869  0.60329740  -0.08732313  1
  V  V38  1  -0.00946502  0.66019383  0.64358167  1
  V  V39  1  0.47006107  0.11902279  0.14387248  1
  V  V40  1  0.90316663  0.11288319  0.22217576  1
  V  V41  1  0.21957407  0.85070709  0.53042551  1
  V  V42  1  0.64805476  0.01317279  0.60082410  1
  V  V43  1  0.02861290  -0.02237204  0.00637495  1
  V  V44  1  0.77283560  0.91285760  0.56681928  1
  V  V45  1  -0.02424828  0.10194137  0.57996883  1
  V  V46  1  0.73339291  0.83654746  0.13243795  1
  V  V47  1  0.52632557  -0.02975982  0.46780177  1
  V  V48  1  -0.01969133  0.63186879  0.12718392  1
  V  V49  1  0.13616704  0.37270502  0.64519622  1
  V  V50  1  0.91382632  -0.02234324  0.84825523  1
  Zn  Zn51  1  0.84470550  0.26189854  0.33560116  1
  Zn  Zn52  1  0.81464859  0.08742248  0.51207353  1
  Zn  Zn53  1  0.94752598  0.93211369  0.65782927  1
  Zn  Zn54  1  0.59854543  0.83124282  0.55976023  1
  Zn  Zn55  1  0.70956996  0.23371925  0.78806806  1
  Zn  Zn56  1  0.34789411  -0.01536648  0.55241564  1
  Zn  Zn57  1  0.17866645  0.21350116  0.16533739  1
  Zn  Zn58  1  0.05405519  0.49632556  0.74846687  1
  Zn  Zn59  1  -0.00726135  0.33243693  0.05770164  1
  Zn  Zn60  1  0.49517152  0.96351754  0.68324819  1
  Zn  Zn61  1  0.13229751  0.17594428  0.68126137  1
  Zn  Zn62  1  0.61199385  0.33089672  0.46549738  1
  Zn  Zn63  1  0.70394259  0.93582969  0.40064693  1
  Zn  Zn64  1  0.33045800  0.76623909  0.91469112  1
  Zn  Zn65  1  0.40566693  0.39405665  0.22870761  1
  Zn  Zn66  1  0.55334258  0.04297003  0.30123595  1
  Zn  Zn67  1  0.91216361  0.21410245  0.94020436  1
  Zn  Zn68  1  0.61684254  0.68037398  0.74550695  1
  Zn  Zn69  1  0.12264411  0.36240045  0.44846389  1
  Zn  Zn70  1  0.47642176  0.69394955  0.95419123  1
  Zn  Zn71  1  0.99633996  0.22007106  0.42653404  1
  Zn  Zn72  1  0.40028029  0.23076368  0.34169108  1
  Zn  Zn73  1  0.40854402  0.43402822  0.73341440  1
  Zn  Zn74  1  0.55158995  0.44125838  0.60911154  1
  Zn  Zn75  1  0.94308853  0.45733219  0.20124254  1
  Zn  Zn76  1  0.72450732  0.68813697  0.24582407  1
  Zn  Zn77  1  0.20188451  0.60454428  0.84402031  1
  Zn  Zn78  1  0.38688424  0.20628578  0.92177647  1
  Zn  Zn79  1  0.64677786  0.96298917  1.03144820  1
  Zn  Zn80  1  0.07436615  0.56854930  0.23634792  1
  Zn  Zn81  1  0.53106894  0.56960631  0.36589838  1
  Zn  Zn82  1  0.27344565  0.37053469  0.32770289  1
  Zn  Zn83  1  0.41380002  0.68579617  0.53156458  1
  Zn  Zn84  1  0.18124568  0.51869786  0.36248579  1
  Zn  Zn85  1  0.19284670  0.70952274  0.67379327  1
  Zn  Zn86  1  0.64491407  0.78814766  -0.03415069  1
  Zn  Zn87  1  0.21561887  1.03036044  0.45283477  1
  Zn  Zn88  1  0.61839190  0.06806742  0.80193786  1
  Zn  Zn89  1  0.15510837  0.85782115  0.95010645  1
  Zn  Zn90  1  0.81074504  0.61604690  0.58153278  1
  Zn  Zn91  1  0.81272808  0.33986401  0.85642597  1
  Zn  Zn92  1  0.34334704  -0.00353206  0.17554084  1
  Zn  Zn93  1  0.20737949  0.37427980  0.81478950  1
  Zn  Zn94  1  0.33367584  0.67953331  0.08172784  1
  Zn  Zn95  1  0.25206238  0.64163078  0.24173742  1
  Zn  Zn96  1  0.28863517  0.79549627  0.35655225  1
  Zn  Zn97  1  0.91734794  0.69784149  0.46581882  1
  Zn  Zn98  1  0.63054534  0.40232828  0.96855984  1
  Zn  Zn99  1  0.04003029  0.81028195  0.07638971  1
  Zn  Zn100  1  0.65622694  0.15962399  0.15700748  1
  Zn  Zn101  1  0.51835385  0.53694933  0.77941747  1
  O  O102  1  0.11038244  0.16521687  0.09221816  1
  O  O103  1  0.27315832  0.12590432  0.60331139  1
  O  O104  1  0.16590922  0.61122065  0.06350598  1
  O  O105  1  0.08763594  0.68463277  0.65477387  1
  O  O106  1  0.56442248  0.12278977  0.10330995  1
  O  O107  1  0.64639666  0.10707272  0.56119570  1
  O  O108  1  0.46141546  0.73587053  0.20686667  1
  O  O109  1  0.62716278  0.64554891  0.64310969  1
  O  O110  1  0.36267990  0.42446342  0.40496358  1
  O  O111  1  0.34880774  0.41106155  0.81552803  1
  O  O112  1  0.36141865  0.87382425  0.37484279  1
  O  O113  1  0.26509081  0.85602258  0.92367237  1
  O  O114  1  0.76884282  0.37015733  0.48097954  1
  O  O115  1  0.84115564  0.38777007  0.94237863  1
  O  O116  1  0.88437689  0.90217909  0.33737232  1
  O  O117  1  0.92526687  0.88163141  0.85263478  1
  O  O118  1  0.29674688  0.02176445  0.37046231  1
  O  O119  1  0.28880444  0.00584980  0.98045946  1
  O  O120  1  0.28537341  0.53891864  0.39479591  1
  O  O121  1  0.23476154  0.42840798  0.91053190  1
  O  O122  1  0.76272858  -0.00103903  0.32486562  1
  O  O123  1  0.81677755  0.00096954  0.86871172  1
  O  O124  1  0.69992891  0.40473055  0.46779961  1
  O  O125  1  0.89275973  0.53328283  0.88876499  1
  O  O126  1  0.29569815  0.49088147  0.11063010  1
  O  O127  1  0.18803635  0.53484323  0.61260867  1
  O  O128  1  0.26895555  0.91175393  0.15983265  1
  O  O129  1  0.39270260  1.08545077  0.72409169  1
  O  O130  1  0.83422938  0.47286432  0.21455832  1
  O  O131  1  0.79022646  0.52981091  0.62572991  1
  O  O132  1  0.68842942  1.01159702  0.11893666  1
  O  O133  1  0.75623708  1.01170742  0.57232174  1
  O  O134  1  -0.03044379  0.35027515  0.23595188  1
  O  O135  1  0.05756112  0.42579624  0.66738070  1
  O  O136  1  0.04064071  0.85763576  0.32022560  1
  O  O137  1  0.01152831  0.86670172  0.71611814  1
  O  O138  1  0.51438358  0.40659564  0.24038847  1
  O  O139  1  0.48633037  0.22058439  0.60909134  1
  O  O140  1  0.52540239  0.83121955  0.28942161  1
  O  O141  1  0.48369076  0.89925702  0.77636622  1
  O  O142  1  0.49019598  0.10138108  0.23500169  1
  O  O143  1  0.52091313  0.05786288  0.74189297  1
  O  O144  1  0.49545387  0.69002700  0.35948727  1
  O  O145  1  0.43234850  0.61143202  0.76632700  1
  O  O146  1  0.99828588  0.13611109  0.20475382  1
  O  O147  1  1.03562267  0.14149527  0.64392466  1
  O  O148  1  1.03590837  0.66672060  0.19694959  1
  O  O149  1  1.01191223  0.60047198  0.72004520  1
  O  O150  1  0.35933428  0.27202133  0.00306479  1
  O  O151  1  0.39943341  0.23943909  0.45662543  1
  O  O152  1  0.37786408  0.70980781  -0.00530606  1
  O  O153  1  0.39768444  0.78898805  0.54170930  1
  O  O154  1  0.84148399  0.25169141  0.02272360  1
  O  O155  1  0.89477030  0.23600783  0.42353111  1
  O  O156  1  0.83230155  0.70129541  0.01156191  1
  O  O157  1  0.83184506  0.69527775  0.52356155  1
  O  O158  1  0.10038692  0.24927619  0.44055864  1
  O  O159  1  0.07351866  0.32761289  0.99344343  1
  O  O160  1  0.12953624  0.85275352  0.54634075  1
  O  O161  1  0.10365562  0.76527442  0.99409456  1
  O  O162  1  0.62498488  0.22141070  0.44772898  1
  O  O163  1  0.63382906  0.20329571  1.00956449  1
  O  O164  1  0.62573762  0.72794267  0.53172751  1
  O  O165  1  0.58551621  0.70334156  0.95412259  1
  O  O166  1  0.42252866  0.20648279  0.14141425  1
  O  O167  1  0.43260436  0.17870990  0.61274400  1
  O  O168  1  0.46038569  0.72449876  0.13916094  1
  O  O169  1  0.51457431  0.83377352  0.62938029  1
  O  O170  1  0.96440953  0.24399776  0.12107132  1
  O  O171  1  1.20319011  0.14860030  0.58763210  1
  O  O172  1  0.95599723  0.74868634  0.09946319  1
  O  O173  1  0.95489493  0.74152733  0.68683128  1
  O  O174  1  0.04731587  0.22623262  0.31118827  1
  O  O175  1  -0.02317732  0.27679824  0.88021516  1
  O  O176  1  -0.04679739  0.76139153  0.39433480  1
  O  O177  1  0.01095497  0.74766149  0.82507103  1
  O  O178  1  0.50788435  0.22101127  0.33776026  1
  O  O179  1  0.45949270  0.24715346  0.84991535  1
  O  O180  1  0.45515082  0.72787393  0.40306082  1
  O  O181  1  0.43424513  0.77593089  0.87178804  1
  O  O182  1  0.30856907  0.09555678  0.54263216  1
  O  O183  1  0.26055528  0.04568594  1.02844723  1
  O  O184  1  0.24923578  0.76416264  0.59701125  1
  O  O185  1  0.21646882  0.65365681  1.02296814  1
  O  O186  1  0.73749541  0.10987565  0.43602037  1
  O  O187  1  0.75291701  0.11238189  0.96866021  1
  O  O188  1  0.71287499  0.61266379  0.52896365  1
  O  O189  1  0.70952685  0.64316296  0.91254400  1
  O  O190  1  0.19917897  0.39114633  0.20011758  1
  O  O191  1  0.19445252  0.41572648  0.38392668  1
  O  O192  1  0.22686133  0.82247149  0.06242502  1
  O  O193  1  0.24979513  0.94950020  0.52016830  1
  O  O194  1  0.71293716  0.33747735  0.01950413  1
  O  O195  1  0.72324805  0.40464353  0.62214088  1
  O  O196  1  0.67937766  0.85984875  0.03908413  1
  O  O197  1  0.77509085  0.88736177  0.47602073  1
  O  O198  1  0.17778807  0.57311796  0.27021311  1
  O  O199  1  0.15439220  0.53427589  0.76880078  1
  O  O200  1  0.10328054  0.99448061  0.23219245  1
  O  O201  1  0.28299226  0.90738182  0.85369064  1
  O  O202  1  0.59912716  0.49220585  0.33354429  1
  O  O203  1  0.75360014  0.49938434  0.76141475  1
  O  O204  1  0.62278039  0.97482361  0.24893810  1
  O  O205  1  0.64970815  1.02312382  0.69354538  1
  O  O206  1  0.39333403  -0.03042860  0.26838085  1
  O  O207  1  0.44837646  0.09835626  0.76607867  1
  O  O208  1  0.42155806  0.54925748  0.34400024  1
  O  O209  1  0.33196163  0.51185928  0.68833974  1
  O  O210  1  0.89895240  0.01824552  0.23984504  1
  O  O211  1  0.92938573  0.00098528  0.75906065  1
  O  O212  1  0.82456520  0.41268101  0.48875480  1
  O  O213  1  0.88685324  0.42516008  0.62855424  1
  O  O214  1  0.21454518  0.27685809  0.35118392  1
  O  O215  1  0.10015366  0.36275049  0.83943160  1
  O  O216  1  0.14143807  0.98643694  0.28975387  1
  O  O217  1  0.09079229  0.86981333  0.85904517  1
  O  O218  1  0.61055892  0.33302398  0.34942256  1
  O  O219  1  0.59279686  0.31871919  0.90369861  1
  O  O220  1  0.67226474  0.85049023  0.34516817  1
  O  O221  1  0.66037262  0.90303664  0.82597114  1
  O  O222  1  0.41259841  0.04747538  0.11354742  1
  O  O223  1  0.32924333  0.25471632  0.48213366  1
  O  O224  1  0.52282473  0.59595606  0.23304924  1
  O  O225  1  0.37551041  0.64604541  0.62420016  1
  O  O226  1  0.86846275  0.12225339  0.13069400  1
  O  O227  1  0.88244692  0.12998771  0.58512249  1
  O  O228  1  0.88274158  0.64143110  0.14557347  1
  O  O229  1  0.89291276  0.62995638  0.65712347  1
  O  O230  1  0.26809571  0.25626146  0.13182409  1
  O  O231  1  0.32434004  0.28041350  0.54845136  1
  O  O232  1  0.20177294  0.72710032  0.18110157  1
  O  O233  1  0.27980455  0.83334606  0.62387013  1
  O  O234  1  0.74331438  0.20498343  0.10875737  1
  O  O235  1  0.76853590  0.25707640  0.60137089  1
  O  O236  1  0.76439415  0.73876567  0.16086717  1
  O  O237  1  0.73017032  0.71665009  0.73822781  1
  O  O238  1  0.17893086  0.16368458  0.26413341  1
  O  O239  1  0.25187129  0.27598550  0.80544647  1
  O  O240  1  0.23294378  0.80696844  0.44479560  1
  O  O241  1  0.25045230  0.71260742  0.85083918  1
  O  O242  1  0.73447664  0.21468085  0.32706834  1
  O  O243  1  0.74213671  0.24584375  0.90666371  1
  O  O244  1  0.79759192  0.68652255  0.34626300  1
  O  O245  1  0.84207473  0.74529240  0.84223532  1
  O  O246  1  -0.01295688  0.16312355  0.00327217  1
  O  O247  1  0.00391302  0.11353906  0.48538252  1
  O  O248  1  0.02341968  0.63671837  0.03110370  1
  O  O249  1  -0.01363913  0.71465807  0.55668385  1
  O  O250  1  0.46946624  0.14585474  -0.01259087  1
  O  O251  1  0.52691915  0.10462580  0.46707231  1
  O  O252  1  0.51052487  0.58509150  -0.04685767  1
  O  O253  1  0.51416050  0.64757413  0.54884632  1
  O  O254  1  0.54679622  0.36910821  0.53700626  1
  O  O255  1  0.53383995  0.43373165  1.01155644  1
  O  O256  1  0.54276183  0.87759939  0.47568614  1
  O  O257  1  0.67714866  0.83912928  0.86122981  1
  O  O258  1  1.02525948  0.40963525  0.41671947  1
  O  O259  1  0.91755980  0.40437715  1.07890346  1
  O  O260  1  0.98894589  0.90520159  0.46304982  1
  O  O261  1  0.98780647  0.89852800  1.03553018  1
  O  O262  1  0.47752125  0.50792297  0.45262847  1
  O  O263  1  0.49992777  0.46169347  0.85917959  1
  O  O264  1  0.49845663  0.97987402  0.36785953  1
  O  O265  1  0.63715916  0.96131445  0.86837231  1
  O  O266  1  1.00260737  0.50419028  0.29147237  1
  O  O267  1  0.97221780  0.46882437  0.81518214  1
  O  O268  1  0.98053642  1.01961633  0.36496645  1
  O  O269  1  1.01393848  0.99900266  0.89831227  1
  O  O270  1  0.02231873  0.04262113  0.08279759  1
  O  O271  1  -0.01784262  0.00236048  0.57661623  1
  O  O272  1  -0.00095827  0.53540741  0.14552854  1
  O  O273  1  -0.00443686  0.58977235  0.57350678  1
  O  O274  1  0.46681349  -0.11569345  0.08811428  1
  O  O275  1  0.54977412  -0.01075451  0.58225880  1
  O  O276  1  0.47626805  0.56886174  0.18908874  1
  O  O277  1  0.49760192  0.47169072  0.69272253  1
  O  O278  1  0.31768145  0.45134197  0.26530138  1
  O  O279  1  0.21447285  0.41348709  0.70503336  1
  O  O280  1  0.23301920  0.83664764  0.26205338  1
  O  O281  1  0.20312698  0.78950161  0.75341211  1
  O  O282  1  0.80075719  0.35507860  0.30238446  1
  O  O283  1  0.88311212  0.41961720  0.69665068  1
  O  O284  1  0.76185828  0.90824176  0.19457208  1
  O  O285  1  0.75349194  0.75433873  0.68381664  1
  O  O286  1  0.26297952  0.05470789  0.21792201  1
  O  O287  1  0.19053430  0.13896169  0.76545487  1
  O  O288  1  0.32116495  0.62194013  0.16611696  1
  O  O289  1  0.25241897  0.62840734  0.71885069  1
  O  O290  1  0.71835826  0.09659293  0.23194474  1
  O  O291  1  0.71533392  0.12116612  0.80917821  1
  O  O292  1  0.74490412  0.58514384  0.29628068  1
  O  O293  1  0.77177881  0.55936814  0.78891669  1
  O  O294  1  0.33596679  0.15440984  0.30422390  1
  O  O295  1  0.29578090  0.15435956  0.88892486  1
  O  O296  1  0.37033669  0.61244341  0.46660733  1
  O  O297  1  0.29977148  0.55645778  0.85466410  1
  O  O298  1  0.84790078  0.11343907  0.32149032  1
  O  O299  1  0.86304690  0.15001392  0.86757284  1
  O  O300  1  0.94117725  0.59342505  0.41758860  1
  O  O301  1  0.95968751  0.52498497  0.86802474  1
  O  O302  1  0.14699095  0.43698274  0.19621002  1
  O  O303  1  0.15332359  0.37552511  0.55159134  1
  O  O304  1  0.13084724  0.84271318  0.15149402  1
  O  O305  1  0.23208928  0.95255935  0.83733082  1
  O  O306  1  0.67885300  0.41643307  0.22017939  1
  O  O307  1  0.66815871  0.41612236  0.66238900  1
  O  O308  1  0.64393628  0.82487381  0.17835685  1
  O  O309  1  0.67620169  0.89826191  0.59875926  1
  O  O310  1  0.09309636  0.28682515  0.18334324  1
  O  O311  1  0.12624516  0.28319471  0.67547348  1
  O  O312  1  0.11655856  0.71687225  0.41180448  1
  O  O313  1  0.19231234  0.76364962  0.82186733  1
  O  O314  1  0.61421260  0.22888192  0.23272915  1
  O  O315  1  0.59959890  0.24124288  0.76888460  1
  O  O316  1  0.62802813  0.71172889  0.28403762  1
  O  O317  1  0.55819424  0.76305691  0.77330297  1
  O  O318  1  0.36267875  0.31976516  0.29668495  1
  O  O319  1  0.36884178  0.25919467  0.68855796  1
  O  O320  1  0.30049032  0.69931652  0.31703068  1
  O  O321  1  0.40420751  0.77832929  0.71187651  1
  O  O322  1  0.87441841  0.22039196  0.23209330  1
  O  O323  1  0.78057916  0.30739632  0.76653499  1
  O  O324  1  0.78434016  0.61391996  0.35413501  1
  O  O325  1  0.85211318  0.67787597  0.84377172  1
  O  O326  1  0.35859096  0.48914471  0.52389802  1
  O  O327  1  0.38532229  0.47553161  0.96681707  1
  O  O328  1  0.42265409  0.98343642  0.47526857  1
  O  O329  1  0.42335819  0.88653373  1.03322575  1
  O  O330  1  0.91930116  0.52705842  0.44740115  1
  O  O331  1  0.77870629  0.46760121  1.05771011  1
  O  O332  1  0.86441674  1.01584707  0.44144554  1
  O  O333  1  0.94777598  1.02892103  0.94075995  1
  O  O334  1  0.12135113  -0.04753311  -0.00140347  1
  O  O335  1  0.10596327  0.00336726  0.45403380  1
  O  O336  1  0.23689569  0.48345104  0.07476344  1
  O  O337  1  0.09032080  0.54721313  0.41392257  1
  O  O338  1  0.58067913  0.03149853  -0.01544057  1
  O  O339  1  0.62740584  0.00203513  0.45319649  1
  O  O340  1  0.64443607  0.51117217  -0.06123287  1
  O  O341  1  0.60205614  0.53320245  0.56929394  1
  O  O342  1  0.38360493  0.36195869  0.12785308  1
  O  O343  1  0.41650855  0.30835019  0.68150684  1
  O  O344  1  0.32064486  0.77818803  0.15383411  1
  O  O345  1  0.39746042  0.93103136  0.63396088  1
  O  O346  1  0.80760060  0.33553266  0.14409346  1
  O  O347  1  0.83217035  0.28200109  0.60850383  1
  O  O348  1  0.82188288  0.83190856  0.08429459  1
  O  O349  1  0.85204927  0.89174632  0.61909299  1
  O  O350  1  0.19372399  0.12616925  0.39470052  1
  O  O351  1  0.13601085  0.21758355  0.89482819  1
  O  O352  1  0.09547019  0.70131653  0.34828673  1
  O  O353  1  0.11554419  0.62943407  0.90369584  1
  O  O354  1  0.62531920  0.11983049  0.34699151  1
  O  O355  1  0.57974113  0.14667870  0.88726089  1
  O  O356  1  0.59890918  0.61143156  0.44615252  1
  O  O357  1  0.60301944  0.59758520  0.81133481  1
