# generated using pymatgen
data_V51Zn51O256
_symmetry_space_group_name_H-M   'P 1'
_cell_length_a   17.64816714
_cell_length_b   17.35446129
_cell_length_c   17.69792298
_cell_angle_alpha   88.78695355
_cell_angle_beta   90.61342939
_cell_angle_gamma   91.52394391
_symmetry_Int_Tables_number   1
_chemical_formula_structural   V51Zn51O256
_chemical_formula_sum   'V51 Zn51 O256'
_cell_volume   5417.01076919
_cell_formula_units_Z   1
loop_
 _symmetry_equiv_pos_site_id
 _symmetry_equiv_pos_as_xyz
  1  'x, y, z'
loop_
 _atom_site_type_symbol
 _atom_site_label
 _atom_site_symmetry_multiplicity
 _atom_site_fract_x
 _atom_site_fract_y
 _atom_site_fract_z
 _atom_site_occupancy
  V  V0  1  0.76774115  0.64390237  0.38608078  1
  V  V1  1  0.20377650  0.79779103  0.54402222  1
  V  V2  1  -0.03420182  0.42431824  0.86012374  1
  V  V3  1  0.25814872  0.85214729  0.12369039  1
  V  V4  1  0.50730467  0.86213540  0.34310676  1
  V  V5  1  0.63046960  0.27037221  0.88455880  1
  V  V6  1  0.42995322  0.29139232  0.75157404  1
  V  V7  1  0.50188048  0.74016684  0.79676831  1
  V  V8  1  0.63793207  0.34206763  0.26578539  1
  V  V9  1  0.89500852  0.73337287  0.13050862  1
  V  V10  1  0.01706223  0.26114025  0.21943732  1
  V  V11  1  0.76464683  0.13320112  0.88242810  1
  V  V12  1  -0.02423559  0.77272189  0.70641806  1
  V  V13  1  0.74831365  0.26853881  0.00876829  1
  V  V14  1  0.34169355  -0.01417224  0.87514522  1
  V  V15  1  0.13389105  0.73433726  0.92352291  1
  V  V16  1  0.53231837  -0.01143100  0.48110240  1
  V  V17  1  0.76789276  0.61441913  0.89548091  1
  V  V18  1  0.25430871  0.65371771  0.36286770  1
  V  V19  1  0.26647948  -0.00050182  0.23935480  1
  V  V20  1  0.62729534  0.12851045  0.00076863  1
  V  V21  1  0.72745976  0.35977577  0.63672075  1
  V  V22  1  0.54250009  0.51404538  0.00816711  1
  V  V23  1  0.86007404  0.90153569  0.44798814  1
  V  V24  1  0.69542859  0.74896692  0.02544036  1
  V  V25  1  0.38416443  0.88507010  0.53474935  1
  V  V26  1  0.75127693  0.39466241  0.12964287  1
  V  V27  1  0.58265572  0.64152025  0.50281360  1
  V  V28  1  0.04041380  0.68293274  0.22794512  1
  V  V29  1  0.03014570  0.93586447  0.35012271  1
  V  V30  1  0.50357492  0.22989012  0.25507064  1
  V  V31  1  0.38983566  -0.01006356  0.36141470  1
  V  V32  1  0.75651056  0.47560054  0.29349877  1
  V  V33  1  0.12523548  0.37896825  0.75525246  1
  V  V34  1  0.50808030  0.13361248  0.12211386  1
  V  V35  1  0.14770157  0.00075143  0.11396908  1
  V  V36  1  -0.00073599  0.33487358  0.37890388  1
  V  V37  1  0.51521446  0.08620700  0.63812103  1
  V  V38  1  0.52684829  0.69770524  0.26450344  1
  V  V39  1  0.38192959  0.11221736  0.77097493  1
  V  V40  1  0.88202670  0.11875386  0.22771751  1
  V  V41  1  0.53861734  0.91786280  0.87810930  1
  V  V42  1  0.01417981  0.86758334  0.92099526  1
  V  V43  1  0.87970504  0.25496005  0.10639637  1
  V  V44  1  0.72540359  0.51514738  0.73990530  1
  V  V45  1  0.39823470  0.88036236  0.00738897  1
  V  V46  1  0.11452704  0.26352812  0.90883011  1
  V  V47  1  0.06473534  0.51581054  0.63640137  1
  V  V48  1  0.63758919  -0.00790163  0.12581677  1
  V  V49  1  0.48252176  0.38238758  0.90853579  1
  V  V50  1  0.76618393  0.89878791  0.60556366  1
  Zn  Zn51  1  0.99561301  0.13404483  0.36331505  1
  Zn  Zn52  1  0.07791886  0.35426078  0.55472371  1
  Zn  Zn53  1  0.95570099  0.93095433  0.17752810  1
  Zn  Zn54  1  0.46629295  0.95839209  0.18321999  1
  Zn  Zn55  1  0.59502888  0.53557227  0.32972637  1
  Zn  Zn56  1  0.01958875  0.85568733  0.52900231  1
  Zn  Zn57  1  0.09471116  0.70373495  0.64637764  1
  Zn  Zn58  1  -0.08750312  0.59255097  0.28717107  1
  Zn  Zn59  1  0.30626979  0.83785251  0.31578037  1
  Zn  Zn60  1  0.32920046  0.05889817  0.05936553  1
  Zn  Zn61  1  0.09700690  0.51232652  0.39307365  1
  Zn  Zn62  1  0.20063722  0.93171666  0.42958839  1
  Zn  Zn63  1  0.07537901  0.79964416  0.07629743  1
  Zn  Zn64  1  0.56298562  0.55563543  0.84063481  1
  Zn  Zn65  1  0.57165974  0.79828328  0.15140951  1
  Zn  Zn66  1  0.68057503  0.81408701  0.44853011  1
  Zn  Zn67  1  0.77291869  0.35849406  0.83362370  1
  Zn  Zn68  1  0.87824583  0.85209154  0.78819737  1
  Zn  Zn69  1  0.03874348  0.60390481  0.81363752  1
  Zn  Zn70  1  0.50480413  0.73633620  0.98725301  1
  Zn  Zn71  1  0.66620481  0.36471423  0.46219221  1
  Zn  Zn72  1  0.86968635  0.47698473  0.62976894  1
  Zn  Zn73  1  0.23571301  0.66524775  0.18610617  1
  Zn  Zn74  1  0.33592782  0.76675785  0.89066673  1
  Zn  Zn75  1  0.19806883  0.91489744  0.95361127  1
  Zn  Zn76  1  0.69751548  0.45590487  0.95297944  1
  Zn  Zn77  1  0.84430604  0.31345365  0.28337702  1
  Zn  Zn78  1  0.71333182  0.53390417  0.54978835  1
  Zn  Zn79  1  0.34466747  0.16828383  0.31047457  1
  Zn  Zn80  1  0.18424131  0.60532303  0.51962628  1
  Zn  Zn81  1  0.44941122  0.93032264  0.71958028  1
  Zn  Zn82  1  0.15186060  0.20814784  0.09856682  1
  Zn  Zn83  1  0.52927884  0.79860587  0.56219870  1
  Zn  Zn84  1  0.67516562  0.18803533  0.71648739  1
  Zn  Zn85  1  0.42252259  0.70837244  0.43739915  1
  Zn  Zn86  1  0.60097348  0.64392036  0.68942075  1
  Zn  Zn87  1  0.79383665  0.08444145  0.08432628  1
  Zn  Zn88  1  0.69788359  0.17858156  0.18378877  1
  Zn  Zn89  1  0.05791341  0.06786925  0.21370839  1
  Zn  Zn90  1  0.69854330  0.65148488  0.21468692  1
  Zn  Zn91  1  0.91720226  0.73542764  0.93016561  1
  Zn  Zn92  1  0.46853262  0.07382592  0.94260551  1
  Zn  Zn93  1  0.03733273  0.34283512  0.03352721  1
  Zn  Zn94  1  0.71080362  0.95233576  0.96997077  1
  Zn  Zn95  1  0.91756579  0.78275041  0.31319229  1
  Zn  Zn96  1  0.60011531  0.38605596  0.76404823  1
  Zn  Zn97  1  0.24283018  0.24103618  0.78673432  1
  Zn  Zn98  1  0.91342180  0.25877856  0.90181669  1
  Zn  Zn99  1  0.57398942  0.32346316  0.07800400  1
  Zn  Zn100  1  0.55816174  0.27611310  0.62583789  1
  Zn  Zn101  1  0.92109560  0.43552184  0.19825249  1
  O  O102  1  0.13673843  0.10148041  0.13071824  1
  O  O103  1  0.05132757  0.13659285  0.69076872  1
  O  O104  1  0.22440546  0.57531621  0.11657664  1
  O  O105  1  0.09704664  0.61005594  0.59192587  1
  O  O106  1  0.63385831  0.13022914  0.10523267  1
  O  O107  1  0.58197859  0.16351953  0.65720782  1
  O  O108  1  0.72303321  0.66785608  0.10937375  1
  O  O109  1  0.62044561  0.59831123  0.58907485  1
  O  O110  1  0.32281052  0.27826982  0.35275426  1
  O  O111  1  0.39589387  0.35723735  0.92704172  1
  O  O112  1  0.40485069  0.86561633  0.36044866  1
  O  O113  1  0.35931347  0.88720963  0.89006644  1
  O  O114  1  0.90118871  0.34223507  0.36963252  1
  O  O115  1  0.87997075  0.36234601  0.85364308  1
  O  O116  1  0.85339364  0.83312061  0.38000734  1
  O  O117  1  0.91028777  0.84372353  0.89101625  1
  O  O118  1  0.28201811  -0.04386101  0.35071971  1
  O  O119  1  0.24747004  -0.00959717  0.88094218  1
  O  O120  1  0.17772348  0.58980479  0.40613469  1
  O  O121  1  0.28091872  0.48351118  0.91800819  1
  O  O122  1  0.77113276  -0.06723294  0.26485424  1
  O  O123  1  0.76230502  0.03683118  0.90639451  1
  O  O124  1  0.76377787  0.45563138  0.38358355  1
  O  O125  1  0.78166517  0.52979500  0.81644482  1
  O  O126  1  0.22048195  0.42508609  0.05916733  1
  O  O127  1  0.15008550  0.49324312  0.55478719  1
  O  O128  1  0.26143148  1.00083305  0.12965964  1
  O  O129  1  0.17582036  1.03545583  0.63536692  1
  O  O130  1  0.75241573  0.48811311  0.13888196  1
  O  O131  1  0.77190371  0.53082160  0.64909783  1
  O  O132  1  0.73331919  0.99311506  0.07716529  1
  O  O133  1  0.75378927  0.99094231  0.60310698  1
  O  O134  1  -0.01141423  0.35516746  0.23874965  1
  O  O135  1  -0.03814036  0.27888965  0.66204294  1
  O  O136  1  -0.01789300  0.88656001  0.27902903  1
  O  O137  1  -0.00822590  0.85826835  0.74919072  1
  O  O138  1  0.54046491  0.33503329  0.24529826  1
  O  O139  1  0.48959541  0.36386588  0.79664225  1
  O  O140  1  0.52095553  0.87847878  0.24871378  1
  O  O141  1  0.50240361  0.86542036  0.79549426  1
  O  O142  1  0.52546018  0.13099514  0.22212091  1
  O  O143  1  0.44624212  0.19572367  0.78724467  1
  O  O144  1  0.52159508  0.60009382  0.27888888  1
  O  O145  1  0.52685963  0.63828141  0.77429497  1
  O  O146  1  0.99329098  0.15620492  0.21239284  1
  O  O147  1  0.88147573  0.06809899  0.67125554  1
  O  O148  1  1.01211135  0.58709896  0.23512364  1
  O  O149  1  1.03414332  0.69648954  0.74163378  1
  O  O150  1  0.30694417  0.21531102  0.07595664  1
  O  O151  1  0.29424462  0.26553883  0.47694496  1
  O  O152  1  0.40135699  0.77663441  -0.01013467  1
  O  O153  1  0.41920206  0.79243797  0.51238951  1
  O  O154  1  0.85898742  0.27680317  0.00483230  1
  O  O155  1  0.88939749  0.19525764  0.49367344  1
  O  O156  1  0.89289836  0.71786674  0.03591697  1
  O  O157  1  0.91242722  0.90190378  0.54868547  1
  O  O158  1  0.19431252  0.23889607  0.58844005  1
  O  O159  1  0.11997137  0.27230229  1.01296391  1
  O  O160  1  0.12735270  0.84973022  0.50817776  1
  O  O161  1  0.13097653  0.72343081  1.02094222  1
  O  O162  1  0.59116329  0.28347731  0.51674792  1
  O  O163  1  0.64522843  0.26303134  1.00735030  1
  O  O164  1  0.60708098  0.74237449  0.50822395  1
  O  O165  1  0.59622066  0.74916828  1.04949989  1
  O  O166  1  0.51849702  0.23769752  0.12515634  1
  O  O167  1  0.45398692  0.29249382  0.65804822  1
  O  O168  1  0.48181578  0.72798911  0.18392741  1
  O  O169  1  0.50364336  0.77073096  0.66876655  1
  O  O170  1  0.97934221  0.28135833  0.10906484  1
  O  O171  1  1.05539950  0.13640796  0.62168590  1
  O  O172  1  1.00119786  0.74067056  0.14606816  1
  O  O173  1  1.00846543  0.77792542  0.60898963  1
  O  O174  1  0.02587113  0.24315495  0.33063713  1
  O  O175  1  0.02070403  0.23782693  0.88985806  1
  O  O176  1  0.00876569  0.72655755  0.30763387  1
  O  O177  1  0.02487008  0.75467595  0.90403945  1
  O  O178  1  0.51860752  0.21516929  0.34544448  1
  O  O179  1  0.53867629  0.28821600  0.91149473  1
  O  O180  1  0.48973794  0.74755998  0.34640634  1
  O  O181  1  0.54436115  0.74685333  0.88278630  1
  O  O182  1  0.13884167  0.26070824  0.53677316  1
  O  O183  1  0.27002400  0.15785097  1.03419766  1
  O  O184  1  0.21478127  0.71439599  0.49777868  1
  O  O185  1  0.30855525  0.62755167  1.03390553  1
  O  O186  1  0.66952478  0.21077447  0.44752837  1
  O  O187  1  0.74233294  0.15393469  0.99939987  1
  O  O188  1  0.76712905  0.59194025  0.47017417  1
  O  O189  1  0.77432545  0.54074462  0.95947130  1
  O  O190  1  0.33920593  0.41279430  0.07824746  1
  O  O191  1  0.28606316  0.30230440  0.41429181  1
  O  O192  1  0.28759392  0.87904233  0.02577925  1
  O  O193  1  0.27934043  0.86842551  0.51552710  1
  O  O194  1  0.74232740  0.37831637  0.02391864  1
  O  O195  1  0.70217222  0.41806274  0.54520350  1
  O  O196  1  0.72242556  0.83802428  -0.00410547  1
  O  O197  1  0.76826984  0.86908386  0.50192741  1
  O  O198  1  0.05458314  0.44220099  0.10634432  1
  O  O199  1  0.07500020  0.54150858  0.72624292  1
  O  O200  1  0.17121160  0.98773820  0.23710009  1
  O  O201  1  0.17505594  1.04938753  0.70288185  1
  O  O202  1  0.65236400  0.46504860  0.27198321  1
  O  O203  1  0.62610258  0.50050368  0.76088013  1
  O  O204  1  0.65645969  1.01340290  0.21332398  1
  O  O205  1  0.67530169  0.94843924  0.73704831  1
  O  O206  1  0.39364880  -0.00857005  0.26044163  1
  O  O207  1  0.37195198  -0.00104625  0.77414049  1
  O  O208  1  0.34560439  0.45090442  0.35522437  1
  O  O209  1  0.38376621  0.59937347  0.64975264  1
  O  O210  1  0.90855455  0.02851654  0.19918952  1
  O  O211  1  0.79678503  -0.10141692  0.72343409  1
  O  O212  1  0.85601862  0.49536989  0.26259825  1
  O  O213  1  0.82931852  0.68131070  0.59450180  1
  O  O214  1  0.17398890  0.19378790  0.37902242  1
  O  O215  1  0.02189853  0.39162633  0.78863586  1
  O  O216  1  0.11814963  0.90122841  0.36012680  1
  O  O217  1  0.12357609  0.84701036  0.91055877  1
  O  O218  1  0.63965172  0.34546185  0.36407652  1
  O  O219  1  0.66474671  0.37845740  0.87601700  1
  O  O220  1  0.59172745  0.85431801  0.39163256  1
  O  O221  1  0.63224123  0.91190287  0.89354566  1
  O  O222  1  0.41379854  0.11135012  0.11188688  1
  O  O223  1  0.42519976  0.10504501  0.67364777  1
  O  O224  1  0.40412952  0.54932678  0.15587890  1
  O  O225  1  0.33633003  0.61950919  0.59897469  1
  O  O226  1  0.88309044  0.15474533  0.09654314  1
  O  O227  1  0.88920773  0.07683995  0.60301992  1
  O  O228  1  0.87645018  0.65340189  0.18428326  1
  O  O229  1  0.84588080  0.72050565  0.53848236  1
  O  O230  1  0.26085623  0.25058692  0.12030840  1
  O  O231  1  0.22032744  0.17289275  0.57747580  1
  O  O232  1  0.26989996  0.75651378  0.13130534  1
  O  O233  1  0.18645089  0.77079126  0.63583252  1
  O  O234  1  0.76379089  0.25278705  0.10998417  1
  O  O235  1  0.72683171  0.26165377  0.64158710  1
  O  O236  1  0.76135570  0.74439013  0.10990051  1
  O  O237  1  0.70559691  0.80633037  0.64197799  1
  O  O238  1  0.22523791  0.14969512  0.39639138  1
  O  O239  1  0.13542541  0.35182584  0.86614933  1
  O  O240  1  0.24452182  0.75173316  0.34373341  1
  O  O241  1  0.23100926  0.74698572  0.89996179  1
  O  O242  1  0.82278244  0.21096396  0.50198704  1
  O  O243  1  0.74702254  0.26309695  0.90028250  1
  O  O244  1  0.72249570  0.72762918  0.39238414  1
  O  O245  1  0.71619336  0.68696881  0.95200831  1
  O  O246  1  -0.02848956  0.04984317  -0.01515185  1
  O  O247  1  0.03897411  0.09788814  0.47028165  1
  O  O248  1  0.09648111  0.54032777  0.02219404  1
  O  O249  1  -0.03978609  0.62890526  0.49230298  1
  O  O250  1  0.52456002  0.14207029  0.00695642  1
  O  O251  1  0.50830974  0.07173848  0.53846910  1
  O  O252  1  0.49631654  0.61485591  -0.02023929  1
  O  O253  1  0.48685752  0.64080133  0.50322832  1
  O  O254  1  0.45131011  0.30965794  0.43919650  1
  O  O255  1  0.52930814  0.40396541  1.00805806  1
  O  O256  1  0.50979955  0.90669814  0.53698961  1
  O  O257  1  0.49444360  0.89324700  0.96727892  1
  O  O258  1  1.01248372  0.31633126  0.47357186  1
  O  O259  1  1.00107825  0.40153608  0.94889181  1
  O  O260  1  0.97858276  0.90952253  0.43481517  1
  O  O261  1  1.00966146  0.86908839  1.01990484  1
  O  O262  1  0.50888499  0.45064471  0.39234116  1
  O  O263  1  0.48717929  0.48127533  0.88729329  1
  O  O264  1  0.49865247  0.97304737  0.37923092  1
  O  O265  1  0.51528711  1.01228670  0.86432321  1
  O  O266  1  1.05654041  0.41519080  0.36004162  1
  O  O267  1  0.96409375  0.52278642  0.84735886  1
  O  O268  1  1.03773408  1.03590366  0.32241866  1
  O  O269  1  1.02275962  0.95710522  0.88836503  1
  O  O270  1  0.05299092  -0.02444690  0.14350483  1
  O  O271  1  0.02882693  0.01943448  0.69423296  1
  O  O272  1  -0.00851664  0.47734342  0.11202391  1
  O  O273  1  -0.03134040  0.51123709  0.61520573  1
  O  O274  1  0.53242062  0.02283845  0.11958198  1
  O  O275  1  0.53594961  0.00251283  0.68166751  1
  O  O276  1  0.58041799  0.52744330  0.09101798  1
  O  O277  1  0.41340666  0.47675286  0.59437425  1
  O  O278  1  0.28464012  0.44015916  0.32288254  1
  O  O279  1  0.19207411  0.44490037  0.75967685  1
  O  O280  1  0.29227186  0.88451992  0.21434840  1
  O  O281  1  0.22794635  0.88920880  0.73528274  1
  O  O282  1  0.75641907  0.37378614  0.25098248  1
  O  O283  1  0.74046461  0.40509291  0.73565028  1
  O  O284  1  0.72875732  0.87650047  0.27137500  1
  O  O285  1  0.72371404  0.91064237  0.77150414  1
  O  O286  1  0.27946899  0.09555936  0.25455077  1
  O  O287  1  0.29585105  0.14571800  0.75275338  1
  O  O288  1  0.27224695  0.61474517  0.27687869  1
  O  O289  1  0.27446172  0.57118201  0.59001618  1
  O  O290  1  0.78405225  0.11392365  0.20186103  1
  O  O291  1  0.74013125  0.14006075  0.78735059  1
  O  O292  1  0.72881945  0.58970500  0.30123336  1
  O  O293  1  0.70460277  0.62691088  0.74261439  1
  O  O294  1  0.38240708  0.08479590  0.37884307  1
  O  O295  1  0.37800898  0.09510993  0.87409690  1
  O  O296  1  0.33732434  0.64351986  0.41352297  1
  O  O297  1  0.24379282  0.53791543  0.89556228  1
  O  O298  1  0.89082091  0.12266434  0.32401981  1
  O  O299  1  0.85859238  0.16169245  0.88576106  1
  O  O300  1  0.85882717  0.66547340  0.35235111  1
  O  O301  1  0.85224505  0.65922706  0.88161949  1
  O  O302  1  0.21034212  0.42002401  0.12761994  1
  O  O303  1  0.08310684  0.40751653  0.65161254  1
  O  O304  1  0.16130889  0.86962672  0.11963125  1
  O  O305  1  0.03744990  1.01566226  0.62572789  1
  O  O306  1  0.65362674  0.36290108  0.15002678  1
  O  O307  1  0.62020996  0.36400201  0.65904120  1
  O  O308  1  0.61698119  0.89461370  0.12338062  1
  O  O309  1  0.65999225  0.85944432  0.61005589  1
  O  O310  1  0.10732905  0.26308078  0.18947613  1
  O  O311  1  0.16259410  0.29286093  0.72944080  1
  O  O312  1  0.13516876  0.69113971  0.21794573  1
  O  O313  1  0.16025439  0.89046448  0.74947985  1
  O  O314  1  0.66046564  0.24585167  0.25596932  1
  O  O315  1  0.62672615  0.26475888  0.78683181  1
  O  O316  1  0.62194453  0.72521134  0.23992278  1
  O  O317  1  0.57453633  0.75975151  0.70957795  1
  O  O318  1  0.40665741  0.23133144  0.24525930  1
  O  O319  1  0.33620434  0.30444025  0.76423164  1
  O  O320  1  0.37960294  0.51387163  0.21115115  1
  O  O321  1  0.40638481  0.73470456  0.81345571  1
  O  O322  1  0.88091982  0.23782868  0.21566586  1
  O  O323  1  0.91863264  0.22288141  0.65542311  1
  O  O324  1  0.85846791  0.80048779  0.20894570  1
  O  O325  1  0.88258342  0.75300377  0.72520993  1
  O  O326  1  0.35759817  0.46437135  0.55448063  1
  O  O327  1  0.44532112  0.56179905  1.01394548  1
  O  O328  1  0.38804120  0.96620251  0.47481489  1
  O  O329  1  0.38166282  0.99740577  0.98017066  1
  O  O330  1  0.95321513  0.56664044  0.45762830  1
  O  O331  1  1.03536905  0.57083565  1.02773335  1
  O  O332  1  0.84142053  0.98547248  0.41181525  1
  O  O333  1  0.91577757  1.01245110  1.00597614  1
  O  O334  1  0.15519323  -0.00662277  0.02009554  1
  O  O335  1  0.12813989  0.00722281  0.48929277  1
  O  O336  1  0.25031059  0.58450939  0.04398954  1
  O  O337  1  0.10543827  0.45535412  0.49930958  1
  O  O338  1  0.62359625  0.03236205  -0.00720798  1
  O  O339  1  0.62331514  -0.00802934  0.47523707  1
  O  O340  1  0.61765260  0.53289266  -0.05941124  1
  O  O341  1  0.47330808  0.47261155  0.44802882  1
  O  O342  1  0.32723162  0.40105148  0.14564014  1
  O  O343  1  0.42809209  0.34662352  0.49189566  1
  O  O344  1  0.41885070  0.89289190  0.10034805  1
  O  O345  1  0.38925110  0.90218141  0.62923269  1
  O  O346  1  0.85315101  0.36755606  0.13683258  1
  O  O347  1  0.82502387  0.37812066  0.62112798  1
  O  O348  1  0.88440944  0.84765767  0.14391206  1
  O  O349  1  0.87187836  0.88171217  0.61429884  1
  O  O350  1  0.11299134  0.08069564  0.46894954  1
  O  O351  1  0.18154806  0.20464903  0.87344365  1
  O  O352  1  -0.00881085  0.56464588  0.38564590  1
  O  O353  1  0.11301056  0.64493353  0.88239670  1
  O  O354  1  0.60881927  0.20868457  0.48432136  1
  O  O355  1  0.63868126  0.16244807  0.89993157  1
  O  O356  1  0.61125227  0.58961526  0.42655330  1
  O  O357  1  0.69061464  0.64409507  0.82032277  1
