# generated using pymatgen
data_V51Zn51O256
_symmetry_space_group_name_H-M   'P 1'
_cell_length_a   17.36658761
_cell_length_b   17.12003380
_cell_length_c   17.18466585
_cell_angle_alpha   90.29581991
_cell_angle_beta   90.42332324
_cell_angle_gamma   89.42927484
_symmetry_Int_Tables_number   1
_chemical_formula_structural   V51Zn51O256
_chemical_formula_sum   'V51 Zn51 O256'
_cell_volume   5108.82675390
_cell_formula_units_Z   1
loop_
 _symmetry_equiv_pos_site_id
 _symmetry_equiv_pos_as_xyz
  1  'x, y, z'
loop_
 _atom_site_type_symbol
 _atom_site_label
 _atom_site_symmetry_multiplicity
 _atom_site_fract_x
 _atom_site_fract_y
 _atom_site_fract_z
 _atom_site_occupancy
  V  V0  1  0.01134683  0.88330077  0.38316145  1
  V  V1  1  0.50352562  0.27393129  0.34104100  1
  V  V2  1  0.88836236  0.86198552  0.00552796  1
  V  V3  1  0.02172498  0.73562089  0.75687145  1
  V  V4  1  0.40124929  0.51938862  0.90149250  1
  V  V5  1  0.87074210  0.59568552  0.27707329  1
  V  V6  1  0.63416615  0.26269381  0.83625821  1
  V  V7  1  0.87954191  0.13818820  0.24353437  1
  V  V8  1  0.51247436  0.88660517  0.87803925  1
  V  V9  1  0.25901771  0.02362190  0.23497594  1
  V  V10  1  0.34912153  0.29996430  0.63589831  1
  V  V11  1  -0.01837996  0.10860676  0.63061126  1
  V  V12  1  0.48039432  0.29837144  0.74745553  1
  V  V13  1  0.63964410  0.63545334  0.03564533  1
  V  V14  1  -0.00562611  0.72668879  0.28815112  1
  V  V15  1  0.76657337  0.74245050  -0.01768335  1
  V  V16  1  0.37217300  0.73026538  0.59143499  1
  V  V17  1  0.91064731  0.76866390  0.62562737  1
  V  V18  1  0.13106530  0.15876443  0.02513810  1
  V  V19  1  0.51171963  0.76298588  0.24204745  1
  V  V20  1  0.14802708  0.87669719  0.76823067  1
  V  V21  1  0.11917613  0.46621870  0.62469431  1
  V  V22  1  0.16176014  0.73929817  0.37892915  1
  V  V23  1  0.49159597  0.11321148  0.10078271  1
  V  V24  1  0.75802844  0.13391007  0.38932841  1
  V  V25  1  0.63742272  0.88804345  0.21790526  1
  V  V26  1  0.13197946  0.62046731  0.50589453  1
  V  V27  1  0.26319783  0.27718414  -0.00277647  1
  V  V28  1  0.52897672  0.48410991  0.51040603  1
  V  V29  1  0.25852679  0.11615189  0.83320265  1
  V  V30  1  -0.02431610  0.53104103  0.51747544  1
  V  V31  1  0.22510446  0.38996464  0.11419607  1
  V  V32  1  0.17838736  -0.04664246  0.59920985  1
  V  V33  1  0.85638650  0.74828260  0.15972058  1
  V  V34  1  0.61322243  0.61954724  0.45106108  1
  V  V35  1  0.35302934  0.66334178  0.24372158  1
  V  V36  1  0.50805115  0.89542262  0.38879419  1
  V  V37  1  0.25524935  0.21514950  0.50330268  1
  V  V38  1  0.66319963  0.76639357  0.38407383  1
  V  V39  1  0.09968276  0.24356790  0.85903504  1
  V  V40  1  0.74284144  0.48063904  0.71805991  1
  V  V41  1  0.75356022  -0.00696740  0.26766554  1
  V  V42  1  0.42566081  0.62821445  0.73813691  1
  V  V43  1  0.65252889  0.01632643  0.65230775  1
  V  V44  1  0.50033391  0.37379711  0.91129180  1
  V  V45  1  -0.00780884  0.63608642  0.10724146  1
  V  V46  1  0.07107168  0.36377077  0.75059420  1
  V  V47  1  0.11054145  0.37774958  0.28101048  1
  V  V48  1  0.13518437  0.54285476  0.07131228  1
  V  V49  1  0.09245851  0.21907216  0.37965876  1
  V  V50  1  0.26778326  0.51568348  0.74634698  1
  Zn  Zn51  1  0.30402562  0.07775224  0.03783633  1
  Zn  Zn52  1  0.58220592  0.29202085  0.15511269  1
  Zn  Zn53  1  0.18205317  0.20283316  0.67242435  1
  Zn  Zn54  1  0.03423299  0.23185915  0.19403134  1
  Zn  Zn55  1  0.43445137  0.53617753  0.37290814  1
  Zn  Zn56  1  0.32292578  0.39740959  0.26004650  1
  Zn  Zn57  1  0.33947453  0.80679994  0.80957894  1
  Zn  Zn58  1  0.04771730  0.04055685  0.26117288  1
  Zn  Zn59  1  0.18148592  0.39874199  0.46306343  1
  Zn  Zn60  1  0.34194302  0.53487604  0.09384178  1
  Zn  Zn61  1  0.43450044  0.14186598  0.54792349  1
  Zn  Zn62  1  0.92159747  0.91871077  0.24568985  1
  Zn  Zn63  1  0.10511005  0.56639209  0.79851976  1
  Zn  Zn64  1  0.79482972  0.16057038  0.59161780  1
  Zn  Zn65  1  0.15938701  0.71444369  0.18708064  1
  Zn  Zn66  1  0.85881891  0.71456119  0.42954927  1
  Zn  Zn67  1  0.44700804  0.16988878  0.89352376  1
  Zn  Zn68  1  0.31541639  0.34829028  0.83198230  1
  Zn  Zn69  1  0.88880413  0.30778046  0.67858260  1
  Zn  Zn70  1  0.05751139  0.55832808  0.35194673  1
  Zn  Zn71  1  0.07490608  0.80299897  0.54874182  1
  Zn  Zn72  1  0.55599120  0.10851123  0.43247082  1
  Zn  Zn73  1  0.68452275  0.67001554  0.23275314  1
  Zn  Zn74  1  0.77487880  0.50308982  0.50075688  1
  Zn  Zn75  1  0.61984808  0.52005378  0.88742729  1
  Zn  Zn76  1  0.53403122  0.28779972  0.56014579  1
  Zn  Zn77  1  0.66092713  0.97593682  0.42749558  1
  Zn  Zn78  1  0.61106542  0.07340031  0.85697817  1
  Zn  Zn79  1  0.65885274  0.39272700  0.39933818  1
  Zn  Zn80  1  0.99072102  0.46277829  0.20010036  1
  Zn  Zn81  1  0.33124532  0.83695577  0.31100086  1
  Zn  Zn82  1  0.92017758  0.16102747  0.43832670  1
  Zn  Zn83  1  0.44302458  0.95014279  0.22140274  1
  Zn  Zn84  1  0.04050857  0.86099988  0.14308196  1
  Zn  Zn85  1  0.82995985  0.02729630  0.10234920  1
  Zn  Zn86  1  0.62514180  0.65493797  0.74655177  1
  Zn  Zn87  1  0.74690587  0.25418942  0.25923301  1
  Zn  Zn88  1  0.20157727  0.68827218  0.68497662  1
  Zn  Zn89  1  0.57378318  0.79310280  0.05650862  1
  Zn  Zn90  1  0.47621897  0.98637250  0.68340402  1
  Zn  Zn91  1  0.14394997  1.03091469  0.41231321  1
  Zn  Zn92  1  0.52320382  0.67193224  0.90080611  1
  Zn  Zn93  1  0.71937281  0.91087694  0.89641589  1
  Zn  Zn94  1  0.44873653  0.70166637  0.40780080  1
  Zn  Zn95  1  0.31169036  0.06726650  0.65221451  1
  Zn  Zn96  1  0.22723712  0.23998929  0.22595719  1
  Zn  Zn97  1  1.00684953  0.76656398  0.95890671  1
  Zn  Zn98  1  0.67890760  0.11801294  0.17472523  1
  Zn  Zn99  1  0.84946038  0.79768662  0.81795315  1
  Zn  Zn100  1  0.78871254  0.57932178  0.11422820  1
  Zn  Zn101  1  0.14870669  0.99758524  0.91356839  1
  O  O102  1  0.09625695  0.17078326  0.11630694  1
  O  O103  1  0.07405550  0.15222765  0.63860500  1
  O  O104  1  0.10975478  0.62926179  0.12424350  1
  O  O105  1  0.15432494  0.62220552  0.60309555  1
  O  O106  1  0.59158907  0.09323918  0.09376804  1
  O  O107  1  0.56053370  0.07384221  0.66072646  1
  O  O108  1  0.64144641  0.62778152  0.13461541  1
  O  O109  1  0.57537117  0.57546984  0.53956241  1
  O  O110  1  0.42470501  0.21432129  0.33953392  1
  O  O111  1  0.39483976  0.41023822  0.88891002  1
  O  O112  1  0.41596113  0.90962343  0.33371708  1
  O  O113  1  0.40927012  0.88429330  0.86822361  1
  O  O114  1  0.89837461  0.38359248  0.36880509  1
  O  O115  1  0.89574485  0.31688699  0.88399888  1
  O  O116  1  0.91700751  0.90402908  0.36020586  1
  O  O117  1  0.90979878  0.84742390  0.90841765  1
  O  O118  1  0.23654644  0.02751727  0.33638616  1
  O  O119  1  0.24512048  0.02152265  0.86134307  1
  O  O120  1  0.24647823  0.48453332  0.40084336  1
  O  O121  1  0.31189497  0.53864510  0.86679279  1
  O  O122  1  0.75571107  -0.00198527  0.37014276  1
  O  O123  1  0.82813306  0.09067171  0.81533794  1
  O  O124  1  0.72116314  0.42754433  0.29706049  1
  O  O125  1  0.70425292  0.47961220  0.82125846  1
  O  O126  1  0.22965198  0.55676656  0.05921297  1
  O  O127  1  0.21850919  0.49070214  0.65686847  1
  O  O128  1  0.26645639  1.02153443  0.13099133  1
  O  O129  1  0.27366005  0.96698397  0.61360831  1
  O  O130  1  0.77055428  0.46393069  0.09948048  1
  O  O131  1  0.75553374  0.49643613  0.61871649  1
  O  O132  1  0.72835758  1.02601318  0.14372346  1
  O  O133  1  0.70972612  1.09673589  0.62884831  1
  O  O134  1  0.02985357  0.34982767  0.21925890  1
  O  O135  1  -0.02328279  0.34935294  0.72954876  1
  O  O136  1  0.01025337  0.83001647  0.27293057  1
  O  O137  1  0.04656195  0.84479818  0.73485318  1
  O  O138  1  0.50288585  0.29548492  0.23963401  1
  O  O139  1  0.50045853  0.39078755  0.75059389  1
  O  O140  1  0.53614936  0.89814311  0.25024587  1
  O  O141  1  0.50589153  0.91461478  0.77743263  1
  O  O142  1  0.48382606  0.12345480  0.20103723  1
  O  O143  1  0.50918019  0.10005258  0.83148681  1
  O  O144  1  0.52408355  0.66844378  0.24378831  1
  O  O145  1  0.52073577  0.62626774  0.71687412  1
  O  O146  1  0.98304209  0.13552432  0.23982250  1
  O  O147  1  0.96102982  0.09544355  0.72690359  1
  O  O148  1  0.98520067  0.61609127  0.28215040  1
  O  O149  1  1.04179119  0.63859408  0.74048129  1
  O  O150  1  0.35512784  0.27721119  0.01120230  1
  O  O151  1  0.35700483  0.22395769  0.55380754  1
  O  O152  1  0.35905557  0.74920919  -0.01712442  1
  O  O153  1  0.38408799  0.73512400  0.49270029  1
  O  O154  1  0.83096880  0.29958073  0.09426331  1
  O  O155  1  0.85270888  0.33602832  0.39268865  1
  O  O156  1  0.85761172  0.75868738  0.04325199  1
  O  O157  1  0.87453214  0.73093496  0.53818329  1
  O  O158  1  0.14419937  0.21975243  0.46536525  1
  O  O159  1  0.10502751  0.24166856  0.97023254  1
  O  O160  1  0.14555093  0.72423006  0.48890158  1
  O  O161  1  0.20604708  0.89344898  0.98873130  1
  O  O162  1  0.70615677  0.26067338  0.54179135  1
  O  O163  1  0.64781068  0.31246575  1.04061176  1
  O  O164  1  0.62689240  0.72167933  0.47495458  1
  O  O165  1  0.66440928  0.74901853  0.99929521  1
  O  O166  1  0.51672784  0.21457670  0.10246816  1
  O  O167  1  0.46481803  0.26608112  0.64546362  1
  O  O168  1  0.50779925  0.78573476  0.14377870  1
  O  O169  1  0.44938338  0.81013400  0.63372931  1
  O  O170  1  0.95192993  0.25642768  0.09978537  1
  O  O171  1  0.95618949  0.21565980  0.63233131  1
  O  O172  1  0.99790379  0.72409611  0.16590841  1
  O  O173  1  1.01201023  0.75048159  0.62419106  1
  O  O174  1  -0.00390903  0.23184556  0.40141240  1
  O  O175  1  0.01664853  0.20191341  0.84811701  1
  O  O176  1  -0.03198050  0.74167439  0.38398628  1
  O  O177  1  0.02589915  0.74039223  0.85603500  1
  O  O178  1  0.55675204  0.18282308  0.34280130  1
  O  O179  1  0.47190606  0.27583052  0.85965250  1
  O  O180  1  0.50708458  0.78461484  0.35584977  1
  O  O181  1  0.50736812  0.78010058  0.86332059  1
  O  O182  1  0.22851247  0.14608967  0.58128279  1
  O  O183  1  0.23690747  0.16573734  1.02117828  1
  O  O184  1  0.25112560  0.57587277  0.49742595  1
  O  O185  1  0.19320468  0.71247965  0.98616001  1
  O  O186  1  0.81291983  0.15286953  0.48301608  1
  O  O187  1  0.80009504  0.08138710  0.98416179  1
  O  O188  1  0.70239465  0.57452806  0.45377444  1
  O  O189  1  0.75350483  0.64120701  1.02404616  1
  O  O190  1  0.23783387  0.38511785  0.01415091  1
  O  O191  1  0.25287751  0.31727705  0.48012873  1
  O  O192  1  0.22456534  0.86864081  0.05354092  1
  O  O193  1  0.30913353  0.90614899  0.46211068  1
  O  O194  1  0.77155397  0.43526482  0.02517196  1
  O  O195  1  0.74074569  0.40406566  0.46728852  1
  O  O196  1  0.77278027  0.85374827  -0.01977244  1
  O  O197  1  0.80539135  0.88465725  0.50882237  1
  O  O198  1  0.08338867  0.47694305  0.27760079  1
  O  O199  1  0.09040686  0.46766378  0.74175115  1
  O  O200  1  0.15727416  1.02108565  0.21966865  1
  O  O201  1  0.14762607  0.95820318  0.70300116  1
  O  O202  1  0.54904146  0.50375635  0.21716683  1
  O  O203  1  0.68306746  0.56619656  0.70580375  1
  O  O204  1  0.64561396  0.99563101  0.24603923  1
  O  O205  1  0.65542614  1.03858421  0.75619834  1
  O  O206  1  0.36063882  0.03199165  0.25421074  1
  O  O207  1  0.39151825  0.02696708  0.73936535  1
  O  O208  1  0.39512476  0.46547753  0.29840731  1
  O  O209  1  0.36506092  0.54005098  0.72380870  1
  O  O210  1  0.85186412  0.00807008  0.23269449  1
  O  O211  1  0.85244238  0.02302483  0.81894983  1
  O  O212  1  0.89813807  0.50000664  0.25399916  1
  O  O213  1  0.81563671  0.40249184  0.71197641  1
  O  O214  1  0.11259924  0.35458420  0.38003244  1
  O  O215  1  0.07358558  0.35059110  0.85317897  1
  O  O216  1  0.11671600  0.82666616  0.38309226  1
  O  O217  1  0.11292232  0.91209338  0.85542951  1
  O  O218  1  0.60053844  0.32076808  0.33254686  1
  O  O219  1  0.60395276  0.34838747  0.88974697  1
  O  O220  1  0.62720332  0.86678824  0.40043631  1
  O  O221  1  0.61272984  0.87483353  0.86122647  1
  O  O222  1  0.38865617  0.12871969  0.09387245  1
  O  O223  1  0.41457999  0.05010583  0.60605106  1
  O  O224  1  0.38567598  0.59905248  0.17481540  1
  O  O225  1  0.40889006  0.64426559  0.62377710  1
  O  O226  1  0.85338838  0.12902592  0.14566848  1
  O  O227  1  0.87960099  0.08235723  0.61638811  1
  O  O228  1  0.88912431  0.63416499  0.13138220  1
  O  O229  1  0.73732036  0.69620239  0.61173537  1
  O  O230  1  0.22403678  0.28649637  0.11781448  1
  O  O231  1  0.25008230  0.29052563  0.64633421  1
  O  O232  1  0.22941403  0.72040842  0.04712838  1
  O  O233  1  0.28027362  0.74016898  0.62421808  1
  O  O234  1  0.69973777  0.26645902  0.02195865  1
  O  O235  1  0.65468362  0.28035791  0.58936326  1
  O  O236  1  0.76106502  0.74245759  0.16831488  1
  O  O237  1  0.78762211  0.70654609  0.66253317  1
  O  O238  1  0.28494543  0.16402832  0.42847918  1
  O  O239  1  0.24978257  0.28531165  0.89720819  1
  O  O240  1  0.25336568  0.76732716  0.35733649  1
  O  O241  1  0.32329975  0.74618368  0.91932735  1
  O  O242  1  0.73902744  0.23072791  0.37045240  1
  O  O243  1  0.72528448  0.26878678  0.81246509  1
  O  O244  1  0.75944097  0.77175057  0.39778447  1
  O  O245  1  0.78771334  0.72452258  0.88778621  1
  O  O246  1  -0.03803490  0.14172707  -0.01281536  1
  O  O247  1  -0.02467445  0.11116292  0.52363667  1
  O  O248  1  -0.00217743  0.66509929  0.01375681  1
  O  O249  1  0.02802010  0.62187712  0.50871541  1
  O  O250  1  0.48074891  0.12185179  -0.00356390  1
  O  O251  1  0.54242191  0.16973142  0.53374621  1
  O  O252  1  0.54478749  0.67686249  0.01118558  1
  O  O253  1  0.52208804  0.61103086  0.39928562  1
  O  O254  1  0.51899663  0.28249566  0.44430994  1
  O  O255  1  0.49780082  0.36215863  1.00482040  1
  O  O256  1  0.47843268  0.88454374  0.47721147  1
  O  O257  1  0.51613548  0.85903120  0.97850071  1
  O  O258  1  0.94549219  0.37338671  0.53378974  1
  O  O259  1  0.91448235  0.31545033  0.95260045  1
  O  O260  1  1.01193027  0.87081147  0.48206612  1
  O  O261  1  0.98887525  0.84288088  1.03911372  1
  O  O262  1  0.44676106  0.35814321  0.35949395  1
  O  O263  1  0.51639170  0.47844979  0.89308835  1
  O  O264  1  0.55182001  0.99534495  0.39574023  1
  O  O265  1  0.51644150  0.98077758  0.91481397  1
  O  O266  1  1.00170546  0.49119840  0.43052913  1
  O  O267  1  0.95502834  0.47806678  0.90611269  1
  O  O268  1  1.05945474  0.97086791  0.35872646  1
  O  O269  1  0.95022644  1.08125711  0.95107869  1
  O  O270  1  0.00897191  -0.03836168  0.18675906  1
  O  O271  1  0.02536712  0.01835610  0.62205133  1
  O  O272  1  0.00523983  0.53097854  0.10979158  1
  O  O273  1  0.01652012  0.49754913  0.60823588  1
  O  O274  1  0.48306845  0.01052121  0.11130624  1
  O  O275  1  0.57804418  -0.06429536  0.64769425  1
  O  O276  1  0.54016806  0.44850034  0.16938247  1
  O  O277  1  0.43545280  0.49731495  0.48084712  1
  O  O278  1  0.20412413  0.38184670  0.24010527  1
  O  O279  1  0.24839536  0.42963847  0.79084825  1
  O  O280  1  0.26706966  0.92081571  0.24455243  1
  O  O281  1  0.24515645  0.85467612  0.78539731  1
  O  O282  1  0.74885157  0.38016742  0.24749240  1
  O  O283  1  0.67582203  0.40509458  0.71202326  1
  O  O284  1  0.74209048  0.89108656  0.25079077  1
  O  O285  1  0.77181678  0.87638072  0.80931093  1
  O  O286  1  0.25776442  0.12811452  0.23069012  1
  O  O287  1  0.25806966  0.12811234  0.73101961  1
  O  O288  1  0.25738739  0.67377775  0.22419701  1
  O  O289  1  0.21032262  0.60200612  0.76539712  1
  O  O290  1  0.74760197  0.11318907  0.27434497  1
  O  O291  1  0.80362299  0.19600213  0.92444802  1
  O  O292  1  0.77705115  0.59511191  0.22974643  1
  O  O293  1  0.82131627  0.52835933  0.76400451  1
  O  O294  1  0.44715461  0.09651455  0.44531666  1
  O  O295  1  0.34051850  0.14710721  0.88190215  1
  O  O296  1  0.37543683  0.63238844  0.33971139  1
  O  O297  1  0.44241424  0.60921655  0.84896293  1
  O  O298  1  0.86571306  0.11260211  0.35251733  1
  O  O299  1  0.79808800  0.15816243  0.98757691  1
  O  O300  1  0.85188822  0.61025923  0.37290177  1
  O  O301  1  0.93082831  0.54558968  0.90564886  1
  O  O302  1  0.13646080  0.44841835  0.11624456  1
  O  O303  1  0.10975469  0.36883747  0.63432412  1
  O  O304  1  0.13885191  0.81473171  0.14679859  1
  O  O305  1  0.16704558  0.85789980  0.57851806  1
  O  O306  1  0.60494083  0.40304176  0.15478879  1
  O  O307  1  0.54303497  0.40168064  0.56604538  1
  O  O308  1  0.63518542  0.87600351  0.12121451  1
  O  O309  1  0.72131567  0.94714130  0.67502197  1
  O  O310  1  0.12544140  0.24704129  0.27602659  1
  O  O311  1  0.12575477  0.26801290  0.75106118  1
  O  O312  1  0.10385995  0.70839716  0.29120070  1
  O  O313  1  0.13524594  0.76428064  0.74186450  1
  O  O314  1  0.66713285  0.22720466  0.18700336  1
  O  O315  1  0.57672514  0.24866280  0.75029456  1
  O  O316  1  0.62943943  0.78468678  0.26025462  1
  O  O317  1  0.63785977  0.75747037  0.72684264  1
  O  O318  1  0.32068129  0.28686550  0.25586392  1
  O  O319  1  0.36994906  0.29651245  0.74643831  1
  O  O320  1  0.39478461  0.76185974  0.24502912  1
  O  O321  1  0.38663155  0.72141785  0.75489241  1
  O  O322  1  0.85796372  0.23608996  0.25229404  1
  O  O323  1  0.81274583  0.23200659  0.67231869  1
  O  O324  1  0.88316895  0.71470779  0.26043657  1
  O  O325  1  0.91500087  0.74734987  0.73904196  1
  O  O326  1  0.27716313  0.54867126  0.43013640  1
  O  O327  1  0.39768490  0.53910801  0.99848033  1
  O  O328  1  0.33727376  0.97022802  0.47298186  1
  O  O329  1  0.34657152  0.99575156  0.98867323  1
  O  O330  1  0.87757070  0.53760134  0.52243578  1
  O  O331  1  0.82902830  0.45312969  0.98326540  1
  O  O332  1  0.84163373  0.94209187  0.48995680  1
  O  O333  1  0.87859954  0.95721204  1.03313314  1
  O  O334  1  0.11291786  0.06549321  -0.00810360  1
  O  O335  1  0.15205173  0.00786568  0.51720829  1
  O  O336  1  0.09713740  0.53455272  -0.03126786  1
  O  O337  1  0.13585180  0.48409526  0.52275981  1
  O  O338  1  0.67354967  0.00759049  -0.08245523  1
  O  O339  1  0.65422621  0.00108046  0.54854920  1
  O  O340  1  0.63880475  0.54335051  -0.00319444  1
  O  O341  1  0.57864930  0.46579764  0.42396626  1
  O  O342  1  0.31117332  0.43449232  0.14516883  1
  O  O343  1  0.36188183  0.38695403  0.60087185  1
  O  O344  1  0.37387197  0.90521535  0.15195851  1
  O  O345  1  0.41882015  0.87886596  0.63767308  1
  O  O346  1  0.90023603  0.31224802  0.11555658  1
  O  O347  1  0.88249036  0.34854370  0.55863110  1
  O  O348  1  0.88113631  0.84457462  0.16641918  1
  O  O349  1  0.89349888  0.86199044  0.62817335  1
  O  O350  1  0.09796744  0.11854769  0.35667762  1
  O  O351  1  0.16832534  0.15904368  0.85869851  1
  O  O352  1  0.14430423  0.61545118  0.39813865  1
  O  O353  1  0.13021898  0.57731822  0.91322311  1
  O  O354  1  0.66832437  0.10195166  0.42926853  1
  O  O355  1  0.63252869  0.17691816  0.89160365  1
  O  O356  1  0.65294210  0.66883625  0.34339647  1
  O  O357  1  0.61741638  0.63027000  0.85420530  1
