# generated using pymatgen
data_V51Zn51O256
_symmetry_space_group_name_H-M   'P 1'
_cell_length_a   17.65496851
_cell_length_b   17.58148601
_cell_length_c   17.40845106
_cell_angle_alpha   89.45797791
_cell_angle_beta   89.15904648
_cell_angle_gamma   89.78669016
_symmetry_Int_Tables_number   1
_chemical_formula_structural   V51Zn51O256
_chemical_formula_sum   'V51 Zn51 O256'
_cell_volume   5402.73483542
_cell_formula_units_Z   1
loop_
 _symmetry_equiv_pos_site_id
 _symmetry_equiv_pos_as_xyz
  1  'x, y, z'
loop_
 _atom_site_type_symbol
 _atom_site_label
 _atom_site_symmetry_multiplicity
 _atom_site_fract_x
 _atom_site_fract_y
 _atom_site_fract_z
 _atom_site_occupancy
  V  V0  1  0.00310668  0.27132815  0.32582632  1
  V  V1  1  -0.01246009  0.50166735  0.50268461  1
  V  V2  1  0.06651877  0.66007727  0.49160013  1
  V  V3  1  0.91014787  0.24920121  0.11942888  1
  V  V4  1  -0.07902559  0.04923662  -0.00901324  1
  V  V5  1  0.63113481  0.84392596  0.22132932  1
  V  V6  1  0.01261418  0.32221474  0.69483699  1
  V  V7  1  0.50293182  0.37358272  0.87323073  1
  V  V8  1  0.00791308  0.47753205  0.03915745  1
  V  V9  1  0.36815771  0.51183171  0.91768220  1
  V  V10  1  0.26667308  0.37109607  0.61182122  1
  V  V11  1  0.89058640  0.50315195  0.88971969  1
  V  V12  1  0.51834488  0.25947415  0.22412245  1
  V  V13  1  0.49075562  0.23582269  0.75397814  1
  V  V14  1  0.73059739  0.25313083  0.49844578  1
  V  V15  1  0.87411224  0.48061938  0.38914936  1
  V  V16  1  0.31132492  0.64192371  0.75900216  1
  V  V17  1  0.38730458  -0.04298075  0.37227113  1
  V  V18  1  0.24059938  0.84971345  0.17232724  1
  V  V19  1  0.63659926  0.36924791  0.25769930  1
  V  V20  1  0.22304099  0.65647114  0.38614497  1
  V  V21  1  0.76947557  0.54462016  0.74435086  1
  V  V22  1  0.63563363  0.47369147  0.11369682  1
  V  V23  1  0.75384747  0.60888998  0.38375512  1
  V  V24  1  0.88924827  0.00505515  0.38204894  1
  V  V25  1  0.67422379  0.13030067  0.01058113  1
  V  V26  1  0.61460620  0.12160242  0.45708434  1
  V  V27  1  0.66414413  0.00920209  0.13867850  1
  V  V28  1  0.03721220  0.15032291  0.17812381  1
  V  V29  1  0.66720930  0.63576577  0.04178255  1
  V  V30  1  0.58230950  0.59608164  0.43476569  1
  V  V31  1  -0.04699854  0.78970586  0.74962747  1
  V  V32  1  0.75544829  0.12212403  0.35709228  1
  V  V33  1  0.11088559  0.11716825  -0.02486942  1
  V  V34  1  0.28175310  0.10338347  0.36761313  1
  V  V35  1  0.78563041  0.35564338  0.12985891  1
  V  V36  1  0.53221815  0.58494829  0.71607480  1
  V  V37  1  0.41230493  0.18821569  0.58033018  1
  V  V38  1  0.26107223  0.75202906  -0.02780685  1
  V  V39  1  0.28579431  0.32187827  0.12411191  1
  V  V40  1  0.82806051  0.87852735  0.47866469  1
  V  V41  1  0.16609353  0.38421508  0.33953586  1
  V  V42  1  0.62793725  0.79047639  0.85504528  1
  V  V43  1  0.72397343  0.02743147  0.72687649  1
  V  V44  1  0.83660074  0.76526214  0.61287673  1
  V  V45  1  0.77167610  0.48936776  0.24844620  1
  V  V46  1  0.27064494  0.23034415  0.49429421  1
  V  V47  1  0.43718152  -0.06669722  0.00753049  1
  V  V48  1  0.10259846  0.62902264  -0.02340730  1
  V  V49  1  -0.00869870  0.10029836  0.63904786  1
  V  V50  1  -0.03105782  0.63721744  0.63660120  1
  Zn  Zn51  1  0.13210197  0.22796422  0.63864877  1
  Zn  Zn52  1  0.18216071  0.21413389  0.25025545  1
  Zn  Zn53  1  0.67057904  0.94581579  0.39633902  1
  Zn  Zn54  1  0.68085821  0.27880532  0.89356454  1
  Zn  Zn55  1  0.08132255  0.31311184  0.49793069  1
  Zn  Zn56  1  0.63881328  0.63244735  0.23483231  1
  Zn  Zn57  1  0.70869275  0.19292978  0.19870042  1
  Zn  Zn58  1  0.11107424  0.27486754  0.07293922  1
  Zn  Zn59  1  0.80267581  0.72243178  0.82743828  1
  Zn  Zn60  1  0.85706570  1.07193395  0.18645900  1
  Zn  Zn61  1  0.39605788  0.45521274  0.74211652  1
  Zn  Zn62  1  0.61786374  0.54065745  0.87004191  1
  Zn  Zn63  1  0.06099505  0.54437906  0.32833916  1
  Zn  Zn64  1  0.67908538  0.70002145  0.69785881  1
  Zn  Zn65  1  0.12503147  0.70196724  0.79781979  1
  Zn  Zn66  1  0.83768914  0.32186618  0.79523722  1
  Zn  Zn67  1  0.78964041  0.94670692  0.26604484  1
  Zn  Zn68  1  0.46570569  0.68119782  0.86275573  1
  Zn  Zn69  1  0.32936772  0.29663177  0.30338499  1
  Zn  Zn70  1  0.44449965  0.89559506  0.18500490  1
  Zn  Zn71  1  0.68145061  0.43583015  0.43505330  1
  Zn  Zn72  1  0.58844380  0.21301875  0.59500955  1
  Zn  Zn73  1  0.51099640  0.22515300  0.92964967  1
  Zn  Zn74  1  0.90106628  0.94045312  0.66011184  1
  Zn  Zn75  1  0.81155139  0.57011012  0.55962846  1
  Zn  Zn76  1  0.25639530  -0.01712107  0.01618703  1
  Zn  Zn77  1  0.81060549  0.30785715  0.32927479  1
  Zn  Zn78  1  0.44987479  0.39447948  0.06009116  1
  Zn  Zn79  1  0.61128751  0.29332650  0.07622823  1
  Zn  Zn80  1  0.75341798  0.77032326  0.29204328  1
  Zn  Zn81  1  0.55441998  0.07845265  0.29843698  1
  Zn  Zn82  1  0.44135587  0.19664834  0.38083257  1
  Zn  Zn83  1  0.91009909  0.20273815  0.44254820  1
  Zn  Zn84  1  0.02979099  0.80545538  0.56982509  1
  Zn  Zn85  1  0.17800869  0.48609396  0.49073470  1
  Zn  Zn86  1  0.80208698  0.07038836  0.53458318  1
  Zn  Zn87  1  0.54165862  0.78174295  0.07395221  1
  Zn  Zn88  1  0.50440050  1.02819414  0.50652192  1
  Zn  Zn89  1  0.88851146  0.69838128  0.42072549  1
  Zn  Zn90  1  0.94918759  0.42294477  0.21102232  1
  Zn  Zn91  1  0.59955968  0.96597919  0.95103785  1
  Zn  Zn92  1  0.19743020  0.46219039  0.98732977  1
  Zn  Zn93  1  0.69640810  0.23115081  0.71535378  1
  Zn  Zn94  1  0.42809421  0.68486765  0.39786354  1
  Zn  Zn95  1  0.96781990  0.49608443  0.73763468  1
  Zn  Zn96  1  0.96116439  0.65028815  0.85276538  1
  Zn  Zn97  1  0.33879555  0.81739385  0.81017908  1
  Zn  Zn98  1  -0.01129510  0.12831117  0.83165508  1
  Zn  Zn99  1  0.80567234  0.52411048  0.04579031  1
  Zn  Zn100  1  0.33486243  0.04458661  0.53241138  1
  Zn  Zn101  1  0.53492512  0.67304832  0.59124426  1
  O  O102  1  0.13031752  0.18848921  0.15461597  1
  O  O103  1  0.08432121  0.12905154  0.63360932  1
  O  O104  1  0.04409085  0.66782473  0.03719038  1
  O  O105  1  0.06213848  0.66026898  0.59683389  1
  O  O106  1  0.67544581  0.12933728  0.11537519  1
  O  O107  1  0.58070858  0.10721004  0.55256452  1
  O  O108  1  0.63156843  0.58196713  0.12954691  1
  O  O109  1  0.61615398  0.61421714  0.66381433  1
  O  O110  1  0.46194118  0.42593910  0.38663173  1
  O  O111  1  0.41275211  0.43519126  0.85595609  1
  O  O112  1  0.38027538  0.86487864  0.37396332  1
  O  O113  1  0.41709673  0.89992152  0.81059724  1
  O  O114  1  0.85998815  0.38638827  0.39756478  1
  O  O115  1  0.86040577  0.39196441  0.88605823  1
  O  O116  1  0.87235501  0.89192368  0.38790946  1
  O  O117  1  0.80365118  0.87881225  0.91291166  1
  O  O118  1  0.29350338  -0.00122038  0.36373490  1
  O  O119  1  0.26562807  0.04822676  0.79590802  1
  O  O120  1  0.23686482  0.55971515  0.42227642  1
  O  O121  1  0.26914414  0.51819627  0.92912635  1
  O  O122  1  0.75831579  0.00941504  0.35850600  1
  O  O123  1  0.73440374  0.04531987  0.82414597  1
  O  O124  1  0.75833863  0.49391236  0.36798993  1
  O  O125  1  0.80011603  0.44286146  0.90467664  1
  O  O126  1  0.22407265  0.40985492  0.08610334  1
  O  O127  1  0.21835990  0.45182077  0.58454883  1
  O  O128  1  0.25139796  0.94089753  0.12257354  1
  O  O129  1  0.28424236  0.98110613  0.61888742  1
  O  O130  1  0.79569242  0.47141160  0.14824438  1
  O  O131  1  0.76485321  0.52507665  0.64855145  1
  O  O132  1  0.75447126  1.01226904  0.17692200  1
  O  O133  1  0.74096160  1.03131565  0.62183837  1
  O  O134  1  -0.00218550  0.36077433  0.28660670  1
  O  O135  1  0.03301196  0.41809403  0.70628123  1
  O  O136  1  -0.01823275  0.90096878  0.10161514  1
  O  O137  1  -0.05169130  0.88456846  0.74836436  1
  O  O138  1  0.54120979  0.37319203  0.23981601  1
  O  O139  1  0.47042624  0.33358418  0.77709474  1
  O  O140  1  0.53492399  0.83146196  0.18365021  1
  O  O141  1  0.45737424  0.89709083  0.74194784  1
  O  O142  1  0.51896981  0.16419549  0.23271275  1
  O  O143  1  0.58269014  0.22080758  0.71189637  1
  O  O144  1  0.52025548  0.60290740  0.23006798  1
  O  O145  1  0.54093330  0.60416336  0.81360082  1
  O  O146  1  1.03623905  0.18756079  0.27627330  1
  O  O147  1  0.95916626  0.12595924  0.72966616  1
  O  O148  1  0.99086862  0.61928322  0.27720279  1
  O  O149  1  0.97488499  0.61785363  0.73478276  1
  O  O150  1  0.38582305  0.14184459  -0.02271444  1
  O  O151  1  0.38993580  0.20936647  0.47923206  1
  O  O152  1  0.34427194  0.71965247  -0.01021933  1
  O  O153  1  0.43605821  0.76854067  0.47862781  1
  O  O154  1  0.89150895  0.23141650  0.03078069  1
  O  O155  1  0.82675165  0.23797089  0.50965630  1
  O  O156  1  0.89708131  0.78922190  0.01898327  1
  O  O157  1  0.86472247  0.77605999  0.49711835  1
  O  O158  1  0.17411927  0.23519661  0.51561265  1
  O  O159  1  0.13542131  0.21146139  0.98564137  1
  O  O160  1  0.06508435  0.75729859  0.47635100  1
  O  O161  1  0.10387529  0.90628320  0.97498690  1
  O  O162  1  0.62863301  0.22271846  0.46629833  1
  O  O163  1  0.66188241  0.24054846  0.99627954  1
  O  O164  1  0.58916562  0.66944279  0.50042994  1
  O  O165  1  0.63496619  0.72658430  1.06041986  1
  O  O166  1  0.51243632  0.27702420  0.12467495  1
  O  O167  1  0.48992636  0.24909902  0.56965436  1
  O  O168  1  0.45470500  0.70436834  0.11698977  1
  O  O169  1  0.46861162  0.64834599  0.67526107  1
  O  O170  1  1.00966407  0.26248450  0.12016448  1
  O  O171  1  1.03818888  0.29018865  0.60040466  1
  O  O172  1  0.99764470  0.79706268  0.17182160  1
  O  O173  1  0.96175348  0.75889916  0.64195940  1
  O  O174  1  0.01242910  0.26089104  0.42726436  1
  O  O175  1  0.04358111  0.30611896  0.89239199  1
  O  O176  1  -0.05553106  0.73366890  0.32088935  1
  O  O177  1  -0.08914823  0.74852740  0.83778442  1
  O  O178  1  0.48800231  0.37059693  0.41996752  1
  O  O179  1  0.47577174  0.18046031  0.83352084  1
  O  O180  1  0.47321870  0.70709946  0.29408973  1
  O  O181  1  0.54772718  0.74592048  0.89157836  1
  O  O182  1  0.26762239  0.10880170  0.47226589  1
  O  O183  1  0.18796277  0.05889976  0.99189769  1
  O  O184  1  0.19378615  0.67218758  0.48552243  1
  O  O185  1  0.19102604  0.67645048  0.98157156  1
  O  O186  1  0.72228002  0.11570590  0.47509551  1
  O  O187  1  0.75786993  0.12079384  0.97252187  1
  O  O188  1  0.73958357  0.60071961  0.48005605  1
  O  O189  1  0.76530787  0.62752705  1.04383360  1
  O  O190  1  0.29092496  0.26573230  0.05011812  1
  O  O191  1  0.29635364  0.32750009  0.52023087  1
  O  O192  1  0.23824926  0.81390174  0.07311064  1
  O  O193  1  0.30156478  0.83707681  0.53340182  1
  O  O194  1  0.78493427  0.36065293  0.03648416  1
  O  O195  1  0.72190379  0.34953091  0.48902340  1
  O  O196  1  0.77082938  0.90484566  -0.03105839  1
  O  O197  1  0.73379901  0.87520165  0.46220412  1
  O  O198  1  0.12852972  0.46672010  0.29754900  1
  O  O199  1  0.15702632  0.39592439  0.85380737  1
  O  O200  1  0.03770665  0.90744061  0.29669669  1
  O  O201  1  0.12284974  0.97535465  0.74036814  1
  O  O202  1  0.65929159  0.47352991  0.22625235  1
  O  O203  1  0.69388287  0.50661475  0.79354549  1
  O  O204  1  0.59677917  1.02715548  0.20666941  1
  O  O205  1  0.62874347  1.04622888  0.71226465  1
  O  O206  1  0.42724159  -0.02403678  0.26767443  1
  O  O207  1  0.32717254  -0.05841504  0.66986148  1
  O  O208  1  0.34124355  0.51964418  0.21667907  1
  O  O209  1  0.34179394  0.54861982  0.78050163  1
  O  O210  1  0.88783863  0.00287960  0.27728042  1
  O  O211  1  0.82119366  -0.00658968  0.71514189  1
  O  O212  1  0.87314633  0.48213210  0.27607835  1
  O  O213  1  0.85803838  0.50145164  0.77332278  1
  O  O214  1  0.14458241  0.39124160  0.43992451  1
  O  O215  1  0.18519779  0.36749307  0.92346082  1
  O  O216  1  0.11028907  0.94142661  0.51672735  1
  O  O217  1  0.14942473  0.93038314  0.78667400  1
  O  O218  1  0.63711590  0.37509417  0.35378575  1
  O  O219  1  0.57654231  0.29702268  0.86275996  1
  O  O220  1  0.62123838  0.88789727  0.30742197  1
  O  O221  1  0.62666016  0.88545568  0.88630182  1
  O  O222  1  0.37340803  0.13213163  0.04612909  1
  O  O223  1  0.43006730  0.08901527  0.57670961  1
  O  O224  1  0.44838561  0.63738430  0.08264553  1
  O  O225  1  0.30658736  0.65358737  0.66610661  1
  O  O226  1  0.92580801  0.16143394  0.17536760  1
  O  O227  1  0.88891544  0.12430555  0.58977261  1
  O  O228  1  0.92442537  0.67195029  0.13662113  1
  O  O229  1  0.87292419  0.65740605  0.60163516  1
  O  O230  1  0.27582466  0.26462440  0.21115747  1
  O  O231  1  0.30939558  0.19451580  0.59120538  1
  O  O232  1  0.21955116  0.75527741  0.19348161  1
  O  O233  1  0.29809212  0.78878838  0.58454303  1
  O  O234  1  0.79075481  0.25572581  0.15158821  1
  O  O235  1  0.69774072  0.23836254  0.59973562  1
  O  O236  1  0.86754712  0.70257159  0.16312878  1
  O  O237  1  0.74362908  0.74430434  0.61090762  1
  O  O238  1  0.27772024  0.23318093  0.39197644  1
  O  O239  1  0.22492537  0.21608443  0.82677953  1
  O  O240  1  0.20927332  0.75269608  0.36636739  1
  O  O241  1  0.25973518  0.80639258  0.89012365  1
  O  O242  1  0.75420175  0.22611749  0.38304208  1
  O  O243  1  0.74013334  0.28094852  0.80304020  1
  O  O244  1  0.77569187  0.70894222  0.37266425  1
  O  O245  1  0.71467069  0.75097849  0.88466825  1
  O  O246  1  0.03261889  0.12783210  0.05324292  1
  O  O247  1  -0.04674294  0.14128870  0.54242504  1
  O  O248  1  0.06600290  0.64552002  -0.11702825  1
  O  O249  1  -0.02590094  0.63813983  0.47062904  1
  O  O250  1  0.55642448  0.13460096  -0.02256119  1
  O  O251  1  0.52414796  0.12756029  0.40210188  1
  O  O252  1  0.49775434  0.62259367  0.03083836  1
  O  O253  1  0.48732394  0.59482204  0.41403229  1
  O  O254  1  0.46642188  0.40632360  0.55200012  1
  O  O255  1  0.47315432  0.32976161  0.96342433  1
  O  O256  1  0.44198319  0.74892365  0.54923283  1
  O  O257  1  0.47678369  0.84295948  1.01270305  1
  O  O258  1  1.00650620  0.41316125  0.52182760  1
  O  O259  1  1.02933325  0.38839429  1.02357757  1
  O  O260  1  1.04586846  0.91229229  0.51954782  1
  O  O261  1  0.92288071  0.96174475  0.95826903  1
  O  O262  1  0.36947565  0.50466394  0.27905362  1
  O  O263  1  0.56168338  0.44650722  0.88909622  1
  O  O264  1  0.48450235  0.98088168  0.32653994  1
  O  O265  1  0.49458339  0.99044168  0.95151245  1
  O  O266  1  0.97845598  0.49666777  0.39254092  1
  O  O267  1  0.98203757  0.49499968  0.85722403  1
  O  O268  1  0.97779848  1.01318842  0.40404240  1
  O  O269  1  0.91775017  1.11392851  0.91406758  1
  O  O270  1  0.04677241  0.05912729  0.19008221  1
  O  O271  1  -0.01315867  0.00221460  0.63337586  1
  O  O272  1  -0.00208029  0.48872127  0.13526078  1
  O  O273  1  -0.03127137  0.54221055  0.60576257  1
  O  O274  1  0.43778869  -0.03233000  0.10009108  1
  O  O275  1  0.54374077  -0.07970805  0.59613943  1
  O  O276  1  0.54840217  0.44606475  0.08723642  1
  O  O277  1  0.49757587  0.49458892  0.70379810  1
  O  O278  1  0.26247728  0.38443797  0.32551654  1
  O  O279  1  0.18933030  0.37241489  0.79409890  1
  O  O280  1  0.26069510  0.87572620  0.26565940  1
  O  O281  1  0.28693219  0.89391454  0.71263804  1
  O  O282  1  0.75834635  0.37385322  0.25530161  1
  O  O283  1  0.79427223  0.36519477  0.63990484  1
  O  O284  1  0.75196455  0.85426513  0.23052163  1
  O  O285  1  0.69441416  0.93450512  0.74080296  1
  O  O286  1  0.20888324  0.12193691  0.30688464  1
  O  O287  1  0.23449707  0.07410469  0.73896548  1
  O  O288  1  0.24160685  0.62816343  0.29328611  1
  O  O289  1  0.21996280  0.66268578  0.79817966  1
  O  O290  1  0.78360601  0.13705568  0.26148876  1
  O  O291  1  0.74485163  0.13004374  0.72247488  1
  O  O292  1  0.75283769  0.58637825  0.25166735  1
  O  O293  1  0.76374807  0.64408575  0.75468456  1
  O  O294  1  0.36895811  0.12568582  0.33119397  1
  O  O295  1  0.27157991  0.18409128  0.86690782  1
  O  O296  1  0.31920951  0.67397993  0.40178149  1
  O  O297  1  0.40783278  0.60021534  0.91327246  1
  O  O298  1  0.85768884  0.10620691  0.40219207  1
  O  O299  1  0.98765615  0.26545326  0.89704757  1
  O  O300  1  0.85499052  0.59379225  0.37777379  1
  O  O301  1  0.86746948  0.59950691  0.88959209  1
  O  O302  1  0.17490251  0.35472596  0.12480381  1
  O  O303  1  0.20816277  0.30610935  0.65666651  1
  O  O304  1  0.14839755  0.87926577  0.18553317  1
  O  O305  1  0.12370301  0.84408323  0.63130717  1
  O  O306  1  0.67088449  0.36738272  0.13533421  1
  O  O307  1  0.62938010  0.44167396  0.61548154  1
  O  O308  1  0.65347536  0.90674745  0.13785621  1
  O  O309  1  0.57129287  0.85907702  0.57508384  1
  O  O310  1  0.12958747  0.29627440  0.31096841  1
  O  O311  1  0.07106491  0.26603205  0.74743866  1
  O  O312  1  0.00239289  0.69361057  0.29426771  1
  O  O313  1  0.04869288  0.76738361  0.76609183  1
  O  O314  1  0.62786116  0.26197534  0.23961855  1
  O  O315  1  0.62364302  0.38905044  0.66145208  1
  O  O316  1  0.65369359  0.74429944  0.23483103  1
  O  O317  1  0.62837401  0.77840746  0.75514440  1
  O  O318  1  0.43955108  0.27512210  0.29468543  1
  O  O319  1  0.42328662  0.20245965  0.69077751  1
  O  O320  1  0.46183959  0.63746809  0.25890810  1
  O  O321  1  0.37679235  0.71468710  0.79842078  1
  O  O322  1  0.90589658  0.24764188  0.32745308  1
  O  O323  1  0.91939618  0.30789141  0.72889999  1
  O  O324  1  0.96747344  0.86320901  0.16336178  1
  O  O325  1  0.84454030  0.77400244  0.71501386  1
  O  O326  1  0.44464990  0.47128166  0.54085113  1
  O  O327  1  0.39878551  0.47607543  1.00277011  1
  O  O328  1  0.41070985  0.98254916  0.46995595  1
  O  O329  1  0.34209053  0.93698878  0.97471205  1
  O  O330  1  0.87720677  0.50333563  0.49556995  1
  O  O331  1  0.91143944  0.50033310  0.99992451  1
  O  O332  1  0.85012053  0.97952776  0.49326785  1
  O  O333  1  0.86965602  1.05648304  1.07543956  1
  O  O334  1  0.02643537  0.05128128  0.02511158  1
  O  O335  1  0.16651425  -0.10698668  0.60082298  1
  O  O336  1  0.10000189  0.52574074  0.00261075  1
  O  O337  1  0.08219608  0.54577642  0.49403018  1
  O  O338  1  0.65117179  0.01938203  0.03200151  1
  O  O339  1  0.60059991  0.00904154  0.44949413  1
  O  O340  1  0.69186079  0.48331748  0.03477480  1
  O  O341  1  0.60536739  0.50716721  0.46951580  1
  O  O342  1  0.37150804  0.36863050  0.13335507  1
  O  O343  1  0.34132386  0.39672886  0.66891879  1
  O  O344  1  0.34557334  0.84279071  0.17168964  1
  O  O345  1  0.44345095  0.84054866  0.69933264  1
  O  O346  1  0.89109367  0.35278690  0.14761370  1
  O  O347  1  0.84720152  0.37400920  0.59463944  1
  O  O348  1  0.84623722  0.80086048  0.06580849  1
  O  O349  1  0.84697439  0.87019706  0.59347346  1
  O  O350  1  0.08527403  -0.05293285  0.32716681  1
  O  O351  1  0.08413955  0.11049513  0.88092763  1
  O  O352  1  0.12348683  0.63698355  0.37032920  1
  O  O353  1  0.07353155  0.84393224  0.96724212  1
  O  O354  1  0.65597557  0.11468819  0.34482499  1
  O  O355  1  0.61077427  0.10926684  0.92252517  1
  O  O356  1  0.64651084  0.61475529  0.35273630  1
  O  O357  1  0.63495515  0.60426383  0.95636560  1
