# generated using pymatgen
data_V51Zn51O256
_symmetry_space_group_name_H-M   'P 1'
_cell_length_a   17.78291302
_cell_length_b   17.71174618
_cell_length_c   17.61258218
_cell_angle_alpha   89.88490232
_cell_angle_beta   90.04629086
_cell_angle_gamma   89.79196483
_symmetry_Int_Tables_number   1
_chemical_formula_structural   V51Zn51O256
_chemical_formula_sum   'V51 Zn51 O256'
_cell_volume   5547.32273647
_cell_formula_units_Z   1
loop_
 _symmetry_equiv_pos_site_id
 _symmetry_equiv_pos_as_xyz
  1  'x, y, z'
loop_
 _atom_site_type_symbol
 _atom_site_label
 _atom_site_symmetry_multiplicity
 _atom_site_fract_x
 _atom_site_fract_y
 _atom_site_fract_z
 _atom_site_occupancy
  V  V0  1  0.22704906  0.89098032  0.10926906  1
  V  V1  1  0.05974006  0.39590377  0.37129866  1
  V  V2  1  -0.01711990  0.06645521  0.49272089  1
  V  V3  1  0.75463123  0.02740773  0.22528766  1
  V  V4  1  0.88156629  0.67169246  0.74258979  1
  V  V5  1  0.13173267  0.78282518  0.87409423  1
  V  V6  1  0.40286849  0.74612495  0.61571348  1
  V  V7  1  0.26950382  0.41602935  0.64399791  1
  V  V8  1  0.22569432  0.51591288  0.76546650  1
  V  V9  1  0.39563292  -0.02773189  0.88808917  1
  V  V10  1  0.26875883  0.77412435  -0.00861037  1
  V  V11  1  0.71610597  0.51272106  0.19430474  1
  V  V12  1  0.13644816  0.64626120  -0.00008718  1
  V  V13  1  0.89148340  0.84993763  0.42883135  1
  V  V14  1  0.23688445  0.83471537  0.64283154  1
  V  V15  1  0.77848038  0.86834864  0.11247570  1
  V  V16  1  0.75807776  0.22215917  0.02927648  1
  V  V17  1  0.92439045  0.59940845  0.22333353  1
  V  V18  1  0.36531679  0.76983339  0.14636104  1
  V  V19  1  0.40366325  0.63672015  0.74582177  1
  V  V20  1  0.00249719  0.03396481  -0.03149379  1
  V  V21  1  0.63181311  0.26246408  0.73570536  1
  V  V22  1  0.71991362  0.72961786  0.00361030  1
  V  V23  1  0.25770113  0.64235717  0.86884911  1
  V  V24  1  0.77084364  0.36200161  0.12332752  1
  V  V25  1  0.92208338  0.79792314  0.60464466  1
  V  V26  1  0.68943041  0.11395986  0.48709118  1
  V  V27  1  0.45349014  0.06236498  0.75078504  1
  V  V28  1  0.65867427  -0.05368854  0.57019047  1
  V  V29  1  0.25661325  0.26950956  0.55887629  1
  V  V30  1  0.08331079  0.89492146  0.20474939  1
  V  V31  1  0.39780167  0.41846816  0.03445115  1
  V  V32  1  0.53768890  0.48308862  0.13441915  1
  V  V33  1  0.51240468  0.85217883  0.85586204  1
  V  V34  1  0.90067033  0.70542026  0.05632326  1
  V  V35  1  0.50257765  0.21196566  0.27665709  1
  V  V36  1  0.49530069  0.01211458  0.51177945  1
  V  V37  1  0.60683450  0.19936411  0.96011492  1
  V  V38  1  0.60903024  0.44395618  0.67304864  1
  V  V39  1  0.84226997  0.50076119  0.34011779  1
  V  V40  1  0.16232519  0.31666984  -0.08210020  1
  V  V41  1  0.18633862  0.55589557  0.12399333  1
  V  V42  1  0.63737862  0.63683174  0.48729855  1
  V  V43  1  0.57103845  0.62592048  0.00147622  1
  V  V44  1  0.41083972  0.49806968  0.40552028  1
  V  V45  1  0.61071205  -0.05469136  0.15228656  1
  V  V46  1  0.45907087  0.12418983  0.13011044  1
  V  V47  1  0.10420574  0.77143604  0.36391847  1
  V  V48  1  0.72508759  -0.00647114  0.77091686  1
  V  V49  1  -0.00655308  0.21770772  0.74252432  1
  V  V50  1  0.75426484  0.84968001  0.65494098  1
  Zn  Zn51  1  0.42620014  0.52420727  0.62740913  1
  Zn  Zn52  1  0.17744457  0.13241480  -0.02236617  1
  Zn  Zn53  1  0.57912291  0.67291866  0.81647208  1
  Zn  Zn54  1  0.11091349  0.82742866  0.55775923  1
  Zn  Zn55  1  0.05830101  0.25077557  0.53840447  1
  Zn  Zn56  1  0.73144243  0.76247504  0.80078554  1
  Zn  Zn57  1  0.05323482  0.82302850  0.02244508  1
  Zn  Zn58  1  0.69404208  0.47504262  0.39680408  1
  Zn  Zn59  1  0.41820916  0.29084646  0.44790073  1
  Zn  Zn60  1  0.91261757  0.80658436  0.23909461  1
  Zn  Zn61  1  0.07647158  0.93301687  0.40572630  1
  Zn  Zn62  1  0.13732189  0.08225043  0.81289280  1
  Zn  Zn63  1  0.83047908  0.03422503  0.40721848  1
  Zn  Zn64  1  0.55393182  0.79786862  0.08623160  1
  Zn  Zn65  1  0.74053038  0.17746292  0.83513693  1
  Zn  Zn66  1  0.80305458  0.57475748  0.07472741  1
  Zn  Zn67  1  0.34339774  0.60170312  0.05216948  1
  Zn  Zn68  1  0.92178986  0.96781007  0.14913796  1
  Zn  Zn69  1  0.77978918  0.70873858  0.20243074  1
  Zn  Zn70  1  0.32583597  0.04049329  0.06560514  1
  Zn  Zn71  1  0.46359061  0.67741846  0.45106693  1
  Zn  Zn72  1  0.63163391  0.09514008  0.67945443  1
  Zn  Zn73  1  0.98093637  0.23036174  0.39828673  1
  Zn  Zn74  1  0.22055907  0.94887357  0.91007049  1
  Zn  Zn75  1  0.92826753  0.40095483  0.23098284  1
  Zn  Zn76  1  0.50817963  0.89770463  0.66939092  1
  Zn  Zn77  1  0.41216074  0.93738794  0.17987784  1
  Zn  Zn78  1  0.41353283  0.16781560  0.58519383  1
  Zn  Zn79  1  0.67135465  0.92926018  0.97129988  1
  Zn  Zn80  1  0.24578814  0.48479147  0.96541680  1
  Zn  Zn81  1  0.90491276  0.20076989  0.91909333  1
  Zn  Zn82  1  0.58997882  0.02768335  0.85794012  1
  Zn  Zn83  1  0.56202129  0.21237188  0.54581246  1
  Zn  Zn84  1  0.58043606  0.03473915  0.33116083  1
  Zn  Zn85  1  0.23950961  0.39149250  0.44289453  1
  Zn  Zn86  1  0.85888751  0.98561870  0.63002545  1
  Zn  Zn87  1  0.98297719  0.68753418  0.89157547  1
  Zn  Zn88  1  0.70791451  0.61568981  0.69140423  1
  Zn  Zn89  1  0.36105635  0.49033409  0.19692937  1
  Zn  Zn90  1  0.81926435  0.31056427  0.71456714  1
  Zn  Zn91  1  0.01799357  0.58936303  0.36558221  1
  Zn  Zn92  1  0.61965136  0.35885746  0.25913084  1
  Zn  Zn93  1  0.32551991  0.80961645  0.79881722  1
  Zn  Zn94  1  0.71948163  0.92067519  0.38351412  1
  Zn  Zn95  1  0.64629944  0.18664978  0.16569828  1
  Zn  Zn96  1  0.25850546  0.81604481  0.27859995  1
  Zn  Zn97  1  0.19281346  0.24990449  0.73413410  1
  Zn  Zn98  1  0.15141955  0.68596121  0.70742924  1
  Zn  Zn99  1  0.29833839  0.36373612  0.85314706  1
  Zn  Zn100  1  0.46671941  0.14272493  0.93177866  1
  Zn  Zn101  1  0.43013582  0.70731227  0.92348780  1
  O  O102  1  0.23749415  0.16023144  0.16934000  1
  O  O103  1  0.19094011  0.14372583  0.74496727  1
  O  O104  1  0.15032037  0.64953695  0.10672523  1
  O  O105  1  0.05547634  0.61595769  0.59771665  1
  O  O106  1  0.55112005  0.10962287  0.14281429  1
  O  O107  1  0.66158681  0.05797488  0.57171462  1
  O  O108  1  0.54484021  0.66862187  0.21570155  1
  O  O109  1  0.66470365  0.62664615  0.58445556  1
  O  O110  1  0.43014572  0.40128808  0.41999043  1
  O  O111  1  0.39050765  0.37450957  0.92264636  1
  O  O112  1  0.38369161  0.89250817  0.34769882  1
  O  O113  1  0.40740747  0.86517992  0.85529867  1
  O  O114  1  0.87799698  0.41178548  0.33301430  1
  O  O115  1  0.85827082  0.35417117  0.88352634  1
  O  O116  1  0.88586202  0.80185100  0.34579259  1
  O  O117  1  0.92119119  0.87713278  0.80952424  1
  O  O118  1  0.15828934  0.00432351  0.34873053  1
  O  O119  1  0.30954313  -0.03158505  0.84515318  1
  O  O120  1  0.31379965  0.47295586  0.42563112  1
  O  O121  1  0.26465155  0.54009323  0.86962781  1
  O  O122  1  0.76304893  0.00451885  0.32464940  1
  O  O123  1  0.68782425  -0.02936944  0.86855336  1
  O  O124  1  0.74818633  0.51248337  0.29335245  1
  O  O125  1  0.82861050  0.37835193  0.82405724  1
  O  O126  1  0.28311958  0.55035618  0.14741407  1
  O  O127  1  0.22534863  0.50632057  0.66058510  1
  O  O128  1  0.23150120  0.98515657  0.09628416  1
  O  O129  1  0.24618344  1.05629286  0.49576019  1
  O  O130  1  0.76171856  0.47979948  0.10804759  1
  O  O131  1  0.66800608  0.40581676  0.59470978  1
  O  O132  1  0.73529647  0.95357079  0.14982107  1
  O  O133  1  0.76233583  0.93937410  0.59117950  1
  O  O134  1  0.02424507  0.37783326  0.28070366  1
  O  O135  1  -0.07326378  0.29320728  0.72975110  1
  O  O136  1  -0.02033112  0.88278731  0.19410002  1
  O  O137  1  -0.02061378  0.89063258  0.77482033  1
  O  O138  1  0.31724736  0.30653095  0.24656683  1
  O  O139  1  0.50613154  0.47423348  0.84806875  1
  O  O140  1  0.43329814  0.91247920  0.29712254  1
  O  O141  1  0.55111207  0.86491902  0.76985819  1
  O  O142  1  0.51660530  0.12281727  0.30624079  1
  O  O143  1  0.55031775  0.07274217  0.75809952  1
  O  O144  1  0.47998416  0.66707940  0.23796959  1
  O  O145  1  0.49433212  0.62052742  0.77133144  1
  O  O146  1  1.07176308  0.15240181  0.19585455  1
  O  O147  1  1.05033386  0.13896497  0.77365821  1
  O  O148  1  1.01657093  0.59584886  0.23493196  1
  O  O149  1  0.98617585  0.49812362  0.71590708  1
  O  O150  1  0.38356925  0.32590681  -0.01416579  1
  O  O151  1  0.46486873  0.25754899  0.53927375  1
  O  O152  1  0.36315881  0.77724289  -0.02217140  1
  O  O153  1  0.39999762  0.72646738  0.51909647  1
  O  O154  1  0.84950248  0.24310039  -0.00191594  1
  O  O155  1  0.79335212  0.27787523  0.40675332  1
  O  O156  1  0.89748726  0.68994619  -0.03733703  1
  O  O157  1  0.88669245  0.78472055  0.51102997  1
  O  O158  1  0.16563920  0.24531468  0.54011715  1
  O  O159  1  0.14448169  0.23293029  0.96683777  1
  O  O160  1  0.11444546  0.82483302  0.44857869  1
  O  O161  1  0.15219109  0.75151027  0.98968093  1
  O  O162  1  0.66045084  0.20594137  0.50309500  1
  O  O163  1  0.62976048  0.21108153  1.05478591  1
  O  O164  1  0.60214316  0.72972457  0.48168275  1
  O  O165  1  0.62020247  0.71440853  1.03851841  1
  O  O166  1  0.43889365  0.20202070  0.19461200  1
  O  O167  1  0.43521243  0.34993975  0.76608922  1
  O  O168  1  0.45653940  0.80321228  0.13284666  1
  O  O169  1  0.48149660  0.79773631  0.63070991  1
  O  O170  1  1.04884363  0.19115717  0.14234046  1
  O  O171  1  1.01931496  0.22034650  0.64359195  1
  O  O172  1  0.97110701  0.76722239  0.07506052  1
  O  O173  1  1.01107458  0.82941143  0.59803184  1
  O  O174  1  0.02599295  0.32019600  0.43466975  1
  O  O175  1  -0.02467736  0.23745739  0.84130170  1
  O  O176  1  0.04939958  0.73942841  0.25182448  1
  O  O177  1  0.03675292  0.78149423  0.91469623  1
  O  O178  1  0.45886610  0.26209021  0.34731815  1
  O  O179  1  0.52436687  0.24526238  0.94300541  1
  O  O180  1  0.48940107  0.72439405  0.36351574  1
  O  O181  1  0.50720272  0.75018862  0.85871613  1
  O  O182  1  0.30644487  0.18906490  0.57537041  1
  O  O183  1  0.26778576  0.13400575  1.04057702  1
  O  O184  1  0.08876014  0.60048410  0.66748322  1
  O  O185  1  0.27009537  0.65777651  0.97942982  1
  O  O186  1  0.78554570  0.10736342  0.47648538  1
  O  O187  1  0.76394630  0.13064679  1.04061452  1
  O  O188  1  0.72579431  0.67289986  0.47339722  1
  O  O189  1  0.74521451  0.63579329  1.00339439  1
  O  O190  1  0.23325966  0.37992663  -0.04749108  1
  O  O191  1  0.22746488  0.39789499  0.55511830  1
  O  O192  1  0.24018926  0.87496052  -0.00424819  1
  O  O193  1  0.25548993  0.99674064  0.46251689  1
  O  O194  1  0.75566105  0.35625629  0.02889002  1
  O  O195  1  0.74962758  0.40598548  0.59810263  1
  O  O196  1  0.72189569  0.84330728  0.02805397  1
  O  O197  1  0.81948664  0.91827048  0.43398617  1
  O  O198  1  0.18455239  0.57143846  0.35535595  1
  O  O199  1  0.13977496  0.49574925  0.78707736  1
  O  O200  1  0.08586246  0.98646633  0.20954991  1
  O  O201  1  0.11786774  0.98605402  0.73952797  1
  O  O202  1  0.62025567  0.52473469  0.19368366  1
  O  O203  1  0.65938523  0.51542033  0.70889687  1
  O  O204  1  0.63814952  0.99183496  0.24415842  1
  O  O205  1  0.66122903  0.98060867  0.69798855  1
  O  O206  1  0.31135438  -0.09296041  0.32988248  1
  O  O207  1  0.43776799  -0.02617194  0.71675150  1
  O  O208  1  0.37961781  0.49133800  0.30819782  1
  O  O209  1  0.36449267  0.54999676  0.73399541  1
  O  O210  1  0.84939694  0.02812384  0.20226906  1
  O  O211  1  0.81474807  -0.00298126  0.73504531  1
  O  O212  1  0.88408327  0.50892100  0.21552089  1
  O  O213  1  0.92895228  0.47586133  0.74733090  1
  O  O214  1  0.15720817  0.38833854  0.37469116  1
  O  O215  1  0.08185084  0.35999783  0.90337659  1
  O  O216  1  0.08178396  0.86304634  0.31026210  1
  O  O217  1  0.14678842  0.87727105  0.87035990  1
  O  O218  1  0.63337486  0.39982315  0.35869603  1
  O  O219  1  0.59771011  0.22367628  0.81335265  1
  O  O220  1  0.66246442  0.83753849  0.33375145  1
  O  O221  1  0.59227146  0.85043388  0.93106008  1
  O  O222  1  0.39570639  0.04728646  0.15230121  1
  O  O223  1  0.42124562  0.12898794  0.68974268  1
  O  O224  1  0.37489509  0.67807947  0.11798940  1
  O  O225  1  0.42118148  0.64132210  0.63762627  1
  O  O226  1  0.88348506  0.19959833  0.19911841  1
  O  O227  1  0.86418578  0.26922972  0.55356835  1
  O  O228  1  0.90489214  0.61306447  0.10363774  1
  O  O229  1  0.92655042  0.71371029  0.65784882  1
  O  O230  1  0.26096047  0.18951470  0.10972067  1
  O  O231  1  0.25503670  0.30752107  0.66065059  1
  O  O232  1  0.26365508  0.77286504  0.09304795  1
  O  O233  1  0.17650066  0.75445983  0.62570317  1
  O  O234  1  0.74729142  0.25905870  0.13161611  1
  O  O235  1  0.82033167  0.24668929  0.60456665  1
  O  O236  1  0.80599379  0.74575948  0.07511809  1
  O  O237  1  0.77372123  0.76007561  0.63595733  1
  O  O238  1  0.30602671  0.30281931  0.47343864  1
  O  O239  1  0.21153591  0.29385865  0.83232783  1
  O  O240  1  0.19255685  0.74988893  0.33502061  1
  O  O241  1  0.24572350  0.75992754  0.87681945  1
  O  O242  1  0.75928527  0.25271460  0.35201265  1
  O  O243  1  0.70325901  0.22492995  0.92995321  1
  O  O244  1  0.71209063  0.78193862  0.32009070  1
  O  O245  1  0.71758985  0.75245217  0.91171594  1
  O  O246  1  -0.02450350  0.13430553  -0.03081689  1
  O  O247  1  0.00389092  0.16844474  0.48872785  1
  O  O248  1  0.04443296  0.63571974  -0.01151299  1
  O  O249  1  0.07946261  0.57793667  0.54184288  1
  O  O250  1  0.43547098  0.14272494  0.03682194  1
  O  O251  1  0.49990030  0.10868528  0.54106718  1
  O  O252  1  0.47528577  0.64235929  0.00034780  1
  O  O253  1  0.53670294  0.62416826  0.51586381  1
  O  O254  1  0.43915315  0.31385857  0.70678065  1
  O  O255  1  0.49267220  0.43773082  1.04624201  1
  O  O256  1  0.40774883  0.98637132  0.52155646  1
  O  O257  1  0.52852604  0.84386626  0.97962492  1
  O  O258  1  0.88787694  0.47579493  0.58261154  1
  O  O259  1  1.07609154  0.35015447  1.06928427  1
  O  O260  1  0.97333706  0.89520802  0.43101378  1
  O  O261  1  1.02228279  0.93695016  0.98159546  1
  O  O262  1  0.50280205  0.50537380  0.36946155  1
  O  O263  1  0.54858991  0.43345744  0.88450896  1
  O  O264  1  0.52056193  0.99720021  0.41808741  1
  O  O265  1  0.50332603  0.95941614  0.88012576  1
  O  O266  1  1.03509654  0.48674427  0.39794788  1
  O  O267  1  0.99019160  0.46277379  0.97745502  1
  O  O268  1  0.93505672  1.05429098  0.40941164  1
  O  O269  1  1.05221842  1.03115643  0.87963692  1
  O  O270  1  -0.03605884  0.02466074  0.06181594  1
  O  O271  1  0.07378384  -0.00748041  0.68477402  1
  O  O272  1  0.01362443  0.33144429  0.09121678  1
  O  O273  1  -0.06022413  0.52055590  0.57498017  1
  O  O274  1  0.51612231  -0.05274010  0.16458623  1
  O  O275  1  0.55152248  -0.04558147  0.58327199  1
  O  O276  1  0.46157342  0.52987179  0.16770667  1
  O  O277  1  0.52463000  0.47410949  0.63980361  1
  O  O278  1  0.16989852  0.31165326  0.17521226  1
  O  O279  1  0.27573395  0.42402221  0.76248831  1
  O  O280  1  0.19623810  0.87562451  0.20879080  1
  O  O281  1  0.24746192  0.85646853  0.73700519  1
  O  O282  1  0.70718503  0.39739061  0.19980023  1
  O  O283  1  0.73202271  0.25747098  0.75082149  1
  O  O284  1  0.80372272  0.82151501  0.19880778  1
  O  O285  1  0.74002444  0.86374433  0.75258047  1
  O  O286  1  0.17285816  0.12663169  0.31962488  1
  O  O287  1  0.33679059  0.19915717  0.79729797  1
  O  O288  1  0.22612023  0.58823688  0.30189571  1
  O  O289  1  0.22911060  0.62883645  0.76606205  1
  O  O290  1  0.72075111  0.11523994  0.20679740  1
  O  O291  1  0.70212956  0.09295784  0.77731050  1
  O  O292  1  0.74712140  0.60793332  0.17422948  1
  O  O293  1  0.81629547  0.60687331  0.71185161  1
  O  O294  1  0.32642411  0.10836443  0.29489508  1
  O  O295  1  0.41944155  0.07545460  0.85246306  1
  O  O296  1  0.39471967  0.59784122  0.40529997  1
  O  O297  1  0.35833417  0.65970783  0.85023670  1
  O  O298  1  0.93637229  0.18064275  0.31513327  1
  O  O299  1  0.84231071  0.15438854  0.85027654  1
  O  O300  1  0.90628196  0.58216680  0.33651670  1
  O  O301  1  0.95135004  0.63604734  0.80263852  1
  O  O302  1  0.13567010  0.50125649  0.17777877  1
  O  O303  1  0.02539363  0.37331041  0.57896465  1
  O  O304  1  0.11494129  0.87553263  0.09981932  1
  O  O305  1  0.18811000  0.90229295  0.59301879  1
  O  O306  1  0.54414058  0.40182694  0.18436088  1
  O  O307  1  0.60095169  0.35955939  0.73136505  1
  O  O308  1  0.62810685  0.84741468  0.15067921  1
  O  O309  1  0.65703375  0.85464650  0.61587544  1
  O  O310  1  0.14973864  0.28684132  0.23666920  1
  O  O311  1  0.08007735  0.27477060  0.74226262  1
  O  O312  1  0.08526671  0.76419263  0.19475405  1
  O  O313  1  0.11137260  0.75175087  0.78533791  1
  O  O314  1  0.59075514  0.25070324  0.24417829  1
  O  O315  1  0.60631829  0.20417152  0.65788570  1
  O  O316  1  0.68899751  0.73108968  0.27011923  1
  O  O317  1  0.66415653  0.69142715  0.75563861  1
  O  O318  1  0.28634440  0.27827771  0.30231799  1
  O  O319  1  0.36031047  0.23627621  0.85210564  1
  O  O320  1  0.34621566  0.76365997  0.24161386  1
  O  O321  1  0.36842133  0.73517463  0.72503851  1
  O  O322  1  0.91784067  0.23197496  0.25178538  1
  O  O323  1  0.92924726  0.14806969  0.72206286  1
  O  O324  1  0.88848110  0.69520396  0.22692829  1
  O  O325  1  0.83921215  0.73950321  0.79453700  1
  O  O326  1  0.43123783  0.51391257  0.50354615  1
  O  O327  1  0.35065127  0.50352996  1.00397365  1
  O  O328  1  0.32802819  1.09066996  0.36201008  1
  O  O329  1  0.37513265  0.98626801  0.98107695  1
  O  O330  1  0.80091357  0.49736128  0.42793179  1
  O  O331  1  0.92851339  0.43677005  0.99324874  1
  O  O332  1  0.93011578  1.03857819  0.57133330  1
  O  O333  1  0.92071570  1.02193644  0.91637594  1
  O  O334  1  0.08952963  0.06908057  0.00666320  1
  O  O335  1  0.06305370  0.01361568  0.48219722  1
  O  O336  1  0.17057098  0.53998140  0.02140223  1
  O  O337  1  0.06491474  0.41663431  0.61733586  1
  O  O338  1  0.62256502  -0.02356201  0.05782865  1
  O  O339  1  0.66020110  -0.07066046  0.47620563  1
  O  O340  1  0.58741258  0.54630291  0.05543709  1
  O  O341  1  0.65038634  0.53430479  0.48205197  1
  O  O342  1  0.36340462  0.40446950  0.12356111  1
  O  O343  1  0.36028000  0.43368258  0.62279179  1
  O  O344  1  0.32883361  0.88129452  0.13897091  1
  O  O345  1  0.32653576  0.81677158  0.60486239  1
  O  O346  1  0.86519276  0.36283691  0.15078322  1
  O  O347  1  0.77905503  0.40732557  0.66753391  1
  O  O348  1  0.85836442  0.90428942  0.07828115  1
  O  O349  1  0.87076052  0.87078668  0.64858708  1
  O  O350  1  0.13468803  0.07690490  0.35451493  1
  O  O351  1  0.19704001  0.05737572  0.89979622  1
  O  O352  1  0.05716083  0.68838720  0.38624297  1
  O  O353  1  0.15621337  0.64407423  0.89460756  1
  O  O354  1  0.65044021  0.08145965  0.40606424  1
  O  O355  1  0.58028166  0.10613027  0.93618930  1
  O  O356  1  0.62537853  0.62033749  0.38910475  1
  O  O357  1  0.60047816  0.61350779  0.91149289  1
