# generated using pymatgen
data_V51Zn51O256
_symmetry_space_group_name_H-M   'P 1'
_cell_length_a   17.74047049
_cell_length_b   17.93614928
_cell_length_c   17.53760737
_cell_angle_alpha   90.53563647
_cell_angle_beta   89.45530512
_cell_angle_gamma   92.85845505
_symmetry_Int_Tables_number   1
_chemical_formula_structural   V51Zn51O256
_chemical_formula_sum   'V51 Zn51 O256'
_cell_volume   5572.97660175
_cell_formula_units_Z   1
loop_
 _symmetry_equiv_pos_site_id
 _symmetry_equiv_pos_as_xyz
  1  'x, y, z'
loop_
 _atom_site_type_symbol
 _atom_site_label
 _atom_site_symmetry_multiplicity
 _atom_site_fract_x
 _atom_site_fract_y
 _atom_site_fract_z
 _atom_site_occupancy
  V  V0  1  0.29291373  0.52027987  0.41354112  1
  V  V1  1  0.85371987  0.50677298  0.90853228  1
  V  V2  1  -0.00088640  0.01543074  0.62886125  1
  V  V3  1  0.31713646  0.66650649  0.31066882  1
  V  V4  1  0.50312885  0.33490631  0.36418822  1
  V  V5  1  0.44083704  0.60742210  0.17095829  1
  V  V6  1  0.43910280  0.22373117  0.59831976  1
  V  V7  1  0.14551117  0.62711235  0.00400913  1
  V  V8  1  0.64942717  -0.03557065  0.62081235  1
  V  V9  1  0.24708813  0.17454694  0.79226596  1
  V  V10  1  0.12384379  0.49359523  0.13488737  1
  V  V11  1  0.25888142  0.26663168  0.58469622  1
  V  V12  1  0.10920763  0.76141561  0.39824413  1
  V  V13  1  0.27478001  0.13081231  0.34918780  1
  V  V14  1  0.60021518  0.72915157  0.88552064  1
  V  V15  1  0.12998678  0.38223706  0.27080768  1
  V  V16  1  0.02120112  0.06973059  -0.02114399  1
  V  V17  1  0.37176557  0.76158200  0.07587102  1
  V  V18  1  0.73012189  0.75539295  0.15440491  1
  V  V19  1  0.02296734  0.49863251  -0.02083897  1
  V  V20  1  0.85892716  0.01263824  0.87338151  1
  V  V21  1  0.26351228  -0.00479627  0.19852669  1
  V  V22  1  0.70833434  0.68631043  0.54064586  1
  V  V23  1  0.89637692  0.25530914  0.60812690  1
  V  V24  1  -0.02227547  0.29935091  0.23707766  1
  V  V25  1  0.29571129  0.91935211  0.60772196  1
  V  V26  1  0.71322697  0.48683773  0.30696644  1
  V  V27  1  0.51804703  0.39635424  0.82762885  1
  V  V28  1  0.38063254  0.25602635  0.08189881  1
  V  V29  1  0.90955766  0.83985386  0.00246148  1
  V  V30  1  0.88734506  0.38115668  0.02500877  1
  V  V31  1  0.01334452  0.25528225  0.76319379  1
  V  V32  1  0.03111757  0.36286206  0.88082168  1
  V  V33  1  0.62592758  -0.03632586  0.09153293  1
  V  V34  1  0.37307136  0.00024160  0.89636979  1
  V  V35  1  0.50347751  0.79910296  0.75627992  1
  V  V36  1  0.32537161  0.58846368  0.74208755  1
  V  V37  1  0.87020234  0.62524263  0.80466791  1
  V  V38  1  0.79004264  0.21959496  0.47821791  1
  V  V39  1  0.82323405  0.17065437  0.75974395  1
  V  V40  1  0.44002102  0.14186278  0.77535139  1
  V  V41  1  0.76675084  0.35482030  0.63909542  1
  V  V42  1  0.11129413  0.07526311  0.12699609  1
  V  V43  1  0.83793199  0.81211145  0.46862130  1
  V  V44  1  0.47743532  0.57857869  0.64073207  1
  V  V45  1  0.27289458  0.40401870  0.14164090  1
  V  V46  1  0.59530002  0.52604781  0.15898951  1
  V  V47  1  0.02026652  0.69040507  0.26092972  1
  V  V48  1  0.24519780  0.57626751  0.88250120  1
  V  V49  1  0.81459943  0.03904000  0.27439215  1
  V  V50  1  0.54002898  0.09711249  0.59313494  1
  Zn  Zn51  1  0.79027402  0.79761395  0.83412260  1
  Zn  Zn52  1  0.70990320  0.45810833  1.02622476  1
  Zn  Zn53  1  0.16930775  0.27068065  0.41799187  1
  Zn  Zn54  1  0.29883724  0.81115335  0.22523446  1
  Zn  Zn55  1  0.60888290  0.56605241  0.76904583  1
  Zn  Zn56  1  0.98711254  0.50071126  0.23980135  1
  Zn  Zn57  1  0.82781224  0.63867944  0.39375790  1
  Zn  Zn58  1  0.83985810  0.42309843  0.17557303  1
  Zn  Zn59  1  -0.02043606  0.12653099  0.26188128  1
  Zn  Zn60  1  0.14284887  0.57926929  0.32458061  1
  Zn  Zn61  1  0.37635900  0.41083216  0.57921297  1
  Zn  Zn62  1  0.82059817  0.07533869  0.60066571  1
  Zn  Zn63  1  0.94797592  0.98647902  0.13467583  1
  Zn  Zn64  1  0.97098636  0.67560643  0.96093893  1
  Zn  Zn65  1  0.72748137  0.85958005  0.97199335  1
  Zn  Zn66  1  0.19802181  0.23786971  0.22789475  1
  Zn  Zn67  1  0.85820607  0.77234334  0.27816084  1
  Zn  Zn68  1  0.68732855  0.12151829  0.16990915  1
  Zn  Zn69  1  0.65792631  0.51146452  0.60912359  1
  Zn  Zn70  1  0.19187923  1.08516987  0.93558249  1
  Zn  Zn71  1  0.46275407  0.98742171  0.70810394  1
  Zn  Zn72  1  0.33509690  0.09819008  0.52402358  1
  Zn  Zn73  1  0.98441378  0.21992316  0.42150690  1
  Zn  Zn74  1  0.07155714  0.08846492  0.78543243  1
  Zn  Zn75  1  0.56009600  0.71458572  0.08870410  1
  Zn  Zn76  1  0.39505051  0.71242245  0.87623304  1
  Zn  Zn77  1  0.63874656  0.09926989  0.73778947  1
  Zn  Zn78  1  0.74735999  1.02010268  0.45731896  1
  Zn  Zn79  1  0.34501019  0.58518706  0.56343287  1
  Zn  Zn80  1  0.67442259  0.38281727  0.48263007  1
  Zn  Zn81  1  0.19814215  0.67834792  0.16950032  1
  Zn  Zn82  1  0.35587210  0.31048691  0.73284921  1
  Zn  Zn83  1  0.52433053  0.39416262  0.02743500  1
  Zn  Zn84  1  0.65821791  0.22055583  0.62144088  1
  Zn  Zn85  1  0.80960989  0.22470011  0.26953324  1
  Zn  Zn86  1  0.01779951  0.84918432  0.53413696  1
  Zn  Zn87  1  0.07622629  0.19792649  0.57522461  1
  Zn  Zn88  1  0.56159700  0.78044476  0.58347588  1
  Zn  Zn89  1  0.40808980  0.44039570  0.26927048  1
  Zn  Zn90  1  0.83473509  0.60612758  0.22804577  1
  Zn  Zn91  1  0.05605805  0.31639158  0.06957006  1
  Zn  Zn92  1  0.79296134  -0.09776343  0.14929563  1
  Zn  Zn93  1  0.42707208  0.96209905  0.08030875  1
  Zn  Zn94  1  0.29430563  0.53127582  0.05315569  1
  Zn  Zn95  1  0.08423342  0.80988378  -0.02911243  1
  Zn  Zn96  1  0.37219895  0.73495070  0.66092446  1
  Zn  Zn97  1  0.19159080  0.40376478  0.96551474  1
  Zn  Zn98  1  0.83129606  0.93920710  0.70457873  1
  Zn  Zn99  1  0.33497064  0.85747600  0.78872632  1
  Zn  Zn100  1  0.87039792  0.36827514  0.79478735  1
  Zn  Zn101  1  0.69472675  0.80505278  0.69301217  1
  O  O102  1  0.14971160  0.14963560  0.17535829  1
  O  O103  1  0.02933049  0.09936030  0.58948506  1
  O  O104  1  0.15691539  0.59866853  0.10549525  1
  O  O105  1  0.12032836  0.68566534  0.64237882  1
  O  O106  1  0.64497478  0.06219342  0.09341434  1
  O  O107  1  0.64123142  0.11579424  0.62117921  1
  O  O108  1  0.54225135  0.61103038  0.13913802  1
  O  O109  1  0.57432500  0.58399282  0.65757428  1
  O  O110  1  0.41404679  0.33008391  0.30992292  1
  O  O111  1  0.42033740  0.37848270  0.79677284  1
  O  O112  1  0.44661690  0.86472456  0.27582701  1
  O  O113  1  0.35489309  0.90589765  0.88168900  1
  O  O114  1  0.92524865  0.43494306  0.47352564  1
  O  O115  1  0.86559906  0.40840496  0.90210872  1
  O  O116  1  0.85808873  0.82691369  0.37570774  1
  O  O117  1  0.83695942  0.83597240  0.93222234  1
  O  O118  1  0.14345444  -0.02734409  0.43098456  1
  O  O119  1  0.28676413  0.03533411  0.91058832  1
  O  O120  1  0.19856539  0.52319840  0.40120602  1
  O  O121  1  0.24509163  0.48346760  0.89309641  1
  O  O122  1  0.80753224  0.01031662  0.36912743  1
  O  O123  1  0.78223440  -0.02437360  0.91681566  1
  O  O124  1  0.69553776  0.44360931  0.39148476  1
  O  O125  1  0.76596152  0.51431292  0.94230153  1
  O  O126  1  0.24038313  0.49589337  0.15361497  1
  O  O127  1  0.17708738  0.48157142  0.63950734  1
  O  O128  1  0.17634893  1.00365975  0.14488207  1
  O  O129  1  0.28486840  1.01447501  0.59156886  1
  O  O130  1  0.67155730  0.52974592  0.10180837  1
  O  O131  1  0.75040446  0.42086356  0.57070152  1
  O  O132  1  0.68620243  0.92492677  0.15503914  1
  O  O133  1  0.75319462  0.99454644  0.64692236  1
  O  O134  1  0.01438661  0.39363184  0.26556454  1
  O  O135  1  -0.01692209  0.36274457  0.78600365  1
  O  O136  1  -0.04235387  0.75976848  0.20148939  1
  O  O137  1  0.01312801  0.78287542  0.82490411  1
  O  O138  1  0.51099028  0.42776409  0.31420638  1
  O  O139  1  0.52637941  0.35750236  0.73598391  1
  O  O140  1  0.46806295  0.98576631  0.34133223  1
  O  O141  1  0.49198071  0.89234083  0.75975841  1
  O  O142  1  0.51341131  0.20153659  0.14842209  1
  O  O143  1  0.53998324  0.13112008  0.76505242  1
  O  O144  1  0.39347473  0.66193573  0.24758761  1
  O  O145  1  0.43344513  0.60745292  0.72668696  1
  O  O146  1  0.98158169  0.22581033  0.30977140  1
  O  O147  1  0.99239827  0.16153832  0.77371076  1
  O  O148  1  1.03285532  0.59618632  0.28880659  1
  O  O149  1  0.93973451  0.64592688  0.74501131  1
  O  O150  1  0.37561101  0.20005176  0.00947212  1
  O  O151  1  0.42209335  0.16861044  0.51300171  1
  O  O152  1  0.36677249  0.73549025  -0.01763186  1
  O  O153  1  0.44499908  0.81439817  0.45667047  1
  O  O154  1  0.86925812  0.29294630  0.00455138  1
  O  O155  1  0.89989749  0.24241817  0.50496725  1
  O  O156  1  0.92743499  0.74939682  0.02660359  1
  O  O157  1  0.78553946  0.71562847  0.46711279  1
  O  O158  1  0.07710904  0.23745587  0.47140837  1
  O  O159  1  0.14346601  0.31201435  1.00735059  1
  O  O160  1  0.08764383  0.78457217  0.49080919  1
  O  O161  1  0.13668160  0.71931735  1.01569269  1
  O  O162  1  0.61856035  0.14814817  0.37328346  1
  O  O163  1  0.62528495  0.39698981  0.99668284  1
  O  O164  1  0.61986156  0.71916219  0.52005769  1
  O  O165  1  0.57929963  0.71428678  0.98012442  1
  O  O166  1  0.44886978  0.32524248  0.06512090  1
  O  O167  1  0.53918893  0.20621327  0.59724889  1
  O  O168  1  0.45080477  0.71934690  0.11772077  1
  O  O169  1  0.48114132  0.76996997  0.65769834  1
  O  O170  1  0.99625883  0.26456377  0.14703855  1
  O  O171  1  0.98764896  0.25043649  0.64828314  1
  O  O172  1  0.95864972  0.68641473  0.17252090  1
  O  O173  1  1.03557710  0.76662261  0.76034436  1
  O  O174  1  -0.13475509  0.43812935  0.43990804  1
  O  O175  1  0.01780477  0.26759177  0.87750715  1
  O  O176  1  0.02023847  0.74594581  0.34836289  1
  O  O177  1  0.04681580  0.73619171  0.89005740  1
  O  O178  1  0.56567396  0.30994901  0.29244478  1
  O  O179  1  0.54528766  0.31601650  0.87206297  1
  O  O180  1  0.50402265  0.83389660  0.29352481  1
  O  O181  1  0.50240635  0.75389870  0.85503608  1
  O  O182  1  0.26177217  0.10532687  0.44341731  1
  O  O183  1  0.23160646  0.17554563  0.88921515  1
  O  O184  1  0.14469481  0.64767438  0.58997398  1
  O  O185  1  0.25203699  0.60622525  0.98883140  1
  O  O186  1  0.77652699  0.12218963  0.50790131  1
  O  O187  1  0.68844701  0.10534827  0.93873528  1
  O  O188  1  0.70565601  0.59173835  0.54363329  1
  O  O189  1  0.79797919  0.65681554  1.01255883  1
  O  O190  1  0.27909506  0.42061967  0.03694916  1
  O  O191  1  0.25233629  0.28965685  0.49088707  1
  O  O192  1  0.20206926  0.92086056  -0.01880463  1
  O  O193  1  0.30560915  0.89116115  0.51517836  1
  O  O194  1  0.79859641  0.41379109  0.06517756  1
  O  O195  1  0.71442149  0.27655559  0.47864488  1
  O  O196  1  0.75553143  0.80023242  0.06920359  1
  O  O197  1  0.62025561  0.83228261  0.39677205  1
  O  O198  1  0.12833167  0.48806646  0.24595272  1
  O  O199  1  0.16086963  0.44432167  0.69565258  1
  O  O200  1  0.02131623  1.06403604  0.18708585  1
  O  O201  1  0.03311218  1.00850170  0.71888518  1
  O  O202  1  0.62980593  0.51574138  0.25486298  1
  O  O203  1  0.68531205  0.51694848  0.71466225  1
  O  O204  1  0.72557256  1.05207669  0.24754613  1
  O  O205  1  0.66445143  0.99414617  0.72600901  1
  O  O206  1  0.34218241  0.01013246  0.14427898  1
  O  O207  1  0.42474950  0.03547812  0.80819291  1
  O  O208  1  0.33077816  0.46844146  0.34381078  1
  O  O209  1  0.32110554  0.49968462  0.72154632  1
  O  O210  1  0.86006308  -0.02272183  0.20833144  1
  O  O211  1  0.88572441  -0.04344476  0.80068306  1
  O  O212  1  0.88656617  0.51692088  0.21158896  1
  O  O213  1  0.84341568  0.52423992  0.80679780  1
  O  O214  1  0.14693110  0.37114780  0.36395218  1
  O  O215  1  0.12410562  0.37907729  0.87226920  1
  O  O216  1  0.13028275  0.85154197  0.33733264  1
  O  O217  1  0.15019815  0.94988082  0.94175327  1
  O  O218  1  0.58160549  0.33210469  0.42522954  1
  O  O219  1  0.61447787  0.42799498  0.83100319  1
  O  O220  1  0.59096324  0.97213229  0.32871971  1
  O  O221  1  0.59260361  0.97557454  0.86871532  1
  O  O222  1  0.44272768  0.19534464  0.15676844  1
  O  O223  1  0.45165550  0.09066422  0.64715253  1
  O  O224  1  0.38374326  0.57513580  0.10072422  1
  O  O225  1  0.31010786  0.64166273  0.65163546  1
  O  O226  1  0.71777927  0.25303959  0.06577392  1
  O  O227  1  0.86366503  0.16019386  0.66478941  1
  O  O228  1  0.82780912  0.60820481  0.05469466  1
  O  O229  1  0.85220621  0.56338212  0.63668223  1
  O  O230  1  0.28103682  0.29708111  0.09579170  1
  O  O231  1  0.32048268  0.19018655  0.59502039  1
  O  O232  1  0.28711053  0.74224635  0.13837640  1
  O  O233  1  0.31503385  0.81978486  0.62582308  1
  O  O234  1  0.67938234  0.30401279  0.08683891  1
  O  O235  1  0.78682835  0.25366111  0.59654105  1
  O  O236  1  0.76774672  0.67022399  0.17147644  1
  O  O237  1  0.73004311  0.72120947  0.62812279  1
  O  O238  1  0.21973580  0.21205709  0.33365206  1
  O  O239  1  0.26282451  0.26818555  0.76880062  1
  O  O240  1  0.19235022  0.83199320  0.37521327  1
  O  O241  1  0.20489083  0.83175668  0.81903384  1
  O  O242  1  0.81170189  0.21794992  0.38400441  1
  O  O243  1  0.74110514  0.12780181  0.97840358  1
  O  O244  1  0.64895639  0.80237310  0.34129500  1
  O  O245  1  0.68359249  0.78975134  0.88877685  1
  O  O246  1  -0.00681487  0.15009536  0.00838353  1
  O  O247  1  -0.06045878  0.11153488  0.44139599  1
  O  O248  1  0.03948764  0.60155276  -0.00243945  1
  O  O249  1  -0.00228391  0.63419789  0.53767359  1
  O  O250  1  0.57861423  0.21257654  0.00237847  1
  O  O251  1  0.53350034  0.07646585  0.50256751  1
  O  O252  1  0.52692371  0.56146134  -0.01805388  1
  O  O253  1  0.44693106  0.63437993  0.56754347  1
  O  O254  1  0.46805541  0.24920298  0.39054655  1
  O  O255  1  0.47831895  0.41388955  0.92143444  1
  O  O256  1  0.49932736  0.84399528  0.49276582  1
  O  O257  1  0.56190614  1.02480991  0.90367610  1
  O  O258  1  1.03645195  0.54479790  0.65809215  1
  O  O259  1  1.00310718  0.38501059  0.98419517  1
  O  O260  1  0.91896797  0.80399118  0.51805238  1
  O  O261  1  0.99654190  0.87103590  0.96731207  1
  O  O262  1  0.47055198  0.39210536  0.43938031  1
  O  O263  1  0.51877861  0.49735398  0.80809911  1
  O  O264  1  0.53158514  0.97349151  0.37229907  1
  O  O265  1  0.54627152  1.16568256  0.96177928  1
  O  O266  1  1.06053965  0.50224792  0.52238902  1
  O  O267  1  1.02512557  0.48814963  0.88480305  1
  O  O268  1  0.97106866  1.05052676  0.41559765  1
  O  O269  1  1.08240024  1.07050691  0.89515936  1
  O  O270  1  0.02884078  0.00768609  0.06053871  1
  O  O271  1  -0.10326270  0.00222412  0.63060595  1
  O  O272  1  0.03176035  0.51329151  0.13307836  1
  O  O273  1  0.01462763  0.48958266  0.69368253  1
  O  O274  1  0.53011371  -0.05240036  0.11252609  1
  O  O275  1  0.55397080  -0.00420404  0.63228509  1
  O  O276  1  0.45177009  0.53489136  0.23015613  1
  O  O277  1  0.44346953  0.48970542  0.61667322  1
  O  O278  1  0.22448587  0.36112623  0.22753663  1
  O  O279  1  0.30438317  0.34598828  0.63615762  1
  O  O280  1  0.26335944  0.90604862  0.23134320  1
  O  O281  1  0.30131809  0.92760828  0.71607171  1
  O  O282  1  0.75503005  0.42583756  0.24746036  1
  O  O283  1  0.79286959  0.39390197  0.72532219  1
  O  O284  1  0.77813380  0.81549984  0.22369334  1
  O  O285  1  0.78243116  0.84784881  0.73843296  1
  O  O286  1  0.25377433  0.05453621  0.27848306  1
  O  O287  1  0.33045372  0.12925396  0.76226401  1
  O  O288  1  0.23688830  0.62983329  0.26478517  1
  O  O289  1  0.22887607  0.59445110  0.78037723  1
  O  O290  1  0.86593396  0.12488481  0.26184219  1
  O  O291  1  0.72752791  0.17058471  0.74961032  1
  O  O292  1  0.76921089  0.56806520  0.32661150  1
  O  O293  1  0.88272375  0.51260427  0.60356831  1
  O  O294  1  0.36475001  0.14706225  0.33476842  1
  O  O295  1  0.43573296  0.18567994  0.85669547  1
  O  O296  1  0.32983325  0.61730334  0.39854602  1
  O  O297  1  0.34425301  0.61251910  0.85239582  1
  O  O298  1  1.01234275  0.05725412  0.35227593  1
  O  O299  1  0.83650970  0.10080710  0.82727804  1
  O  O300  1  0.90514852  0.58895059  0.45999743  1
  O  O301  1  0.90296742  0.61108161  0.90189370  1
  O  O302  1  0.12508663  0.39664144  0.12898298  1
  O  O303  1  0.17117113  0.23675383  0.61458524  1
  O  O304  1  0.18738699  0.84806263  0.00024757  1
  O  O305  1  0.20017044  0.90519095  0.61926773  1
  O  O306  1  0.54226867  0.45138056  0.12623768  1
  O  O307  1  0.67665100  0.31645608  0.65925624  1
  O  O308  1  0.63307848  0.75024260  0.16214863  1
  O  O309  1  0.63259320  0.86685789  0.62127457  1
  O  O310  1  0.09925487  0.29061729  0.24501757  1
  O  O311  1  0.10272811  0.26707491  0.74926663  1
  O  O312  1  0.10653331  0.71539156  0.22230407  1
  O  O313  1  0.18455124  0.77670583  0.77829032  1
  O  O314  1  0.72114913  0.21058704  0.21159412  1
  O  O315  1  0.73449056  0.30689910  0.90521839  1
  O  O316  1  0.50579314  0.69093696  0.38529151  1
  O  O317  1  0.59961261  0.78290531  0.75390267  1
  O  O318  1  0.29411605  0.24239571  0.15388171  1
  O  O319  1  0.42492905  0.22800599  0.70564016  1
  O  O320  1  0.31069699  0.76071579  0.32105942  1
  O  O321  1  0.38300307  0.76595477  0.77325560  1
  O  O322  1  0.88043291  0.30994240  0.24143821  1
  O  O323  1  0.85888593  0.25645434  0.78743900  1
  O  O324  1  0.88630577  0.67443129  0.30482735  1
  O  O325  1  0.80589550  0.69279647  0.81029234  1
  O  O326  1  0.32058150  0.49440969  0.50857721  1
  O  O327  1  0.46949688  0.58308590  0.95166499  1
  O  O328  1  0.38784771  1.01225523  0.49219911  1
  O  O329  1  0.42387538  1.00651089  0.97959060  1
  O  O330  1  0.93299353  0.64286670  0.51060033  1
  O  O331  1  0.92069559  0.50080591  0.99755165  1
  O  O332  1  0.80848291  0.91143293  0.49473607  1
  O  O333  1  0.93311391  1.02597326  0.94021704  1
  O  O334  1  0.13271703  0.10057686  0.03245972  1
  O  O335  1  0.03405431  -0.05751514  0.57469757  1
  O  O336  1  0.12063424  0.48856124  0.01546739  1
  O  O337  1  0.07075591  0.43534490  0.52274436  1
  O  O338  1  0.65017812  -0.07456274  0.00366858  1
  O  O339  1  0.66877682  -0.01380057  0.52600388  1
  O  O340  1  0.72648296  0.65272141  0.00087011  1
  O  O341  1  0.60708288  0.43574001  0.54921348  1
  O  O342  1  0.36198388  0.40948318  0.17395376  1
  O  O343  1  0.43553407  0.31456921  0.57421382  1
  O  O344  1  0.38657915  0.85492078  0.08628295  1
  O  O345  1  0.39724922  0.94054972  0.62818570  1
  O  O346  1  0.93062594  0.38766450  0.11344874  1
  O  O347  1  0.88463927  0.34703060  0.62613686  1
  O  O348  1  0.88800575  0.89931297  0.08281248  1
  O  O349  1  0.75867551  0.85452739  0.52410951  1
  O  O350  1  0.13197930  0.02799613  0.47033231  1
  O  O351  1  0.17043888  0.12630912  0.75060815  1
  O  O352  1  0.14725202  0.67714172  0.39154216  1
  O  O353  1  0.15145589  0.61199919  0.90051274  1
  O  O354  1  0.57484360  0.13079401  0.32119892  1
  O  O355  1  0.69568196  0.25113628  0.88738324  1
  O  O356  1  0.55799231  0.67217366  0.34400591  1
  O  O357  1  0.61452078  0.64458811  0.84373886  1
