# generated using pymatgen
data_V51Zn51O256
_symmetry_space_group_name_H-M   'P 1'
_cell_length_a   17.84270912
_cell_length_b   17.67438512
_cell_length_c   17.64124735
_cell_angle_alpha   89.58953587
_cell_angle_beta   89.47868689
_cell_angle_gamma   90.26086907
_symmetry_Int_Tables_number   1
_chemical_formula_structural   V51Zn51O256
_chemical_formula_sum   'V51 Zn51 O256'
_cell_volume   5562.89221674
_cell_formula_units_Z   1
loop_
 _symmetry_equiv_pos_site_id
 _symmetry_equiv_pos_as_xyz
  1  'x, y, z'
loop_
 _atom_site_type_symbol
 _atom_site_label
 _atom_site_symmetry_multiplicity
 _atom_site_fract_x
 _atom_site_fract_y
 _atom_site_fract_z
 _atom_site_occupancy
  V  V0  1  0.02537992  -0.00294001  0.51278678  1
  V  V1  1  0.29085040  0.50062407  0.08225400  1
  V  V2  1  0.87856267  0.64389185  0.75165510  1
  V  V3  1  0.87490858  0.24766292  0.09740928  1
  V  V4  1  0.61740991  0.79426430  0.38358441  1
  V  V5  1  0.03818725  0.33050350  0.40610348  1
  V  V6  1  0.26879584  0.79286476  -0.05317334  1
  V  V7  1  0.65361033  0.57521686  0.65287035  1
  V  V8  1  0.87330558  0.09060242  0.74925444  1
  V  V9  1  0.14796985  0.12005913  -0.04127446  1
  V  V10  1  0.02960457  -0.02061521  -0.10090940  1
  V  V11  1  0.88708428  0.91595580  0.00564647  1
  V  V12  1  0.25124052  0.36769508  0.63122462  1
  V  V13  1  0.29984296  -0.00833219  0.69337031  1
  V  V14  1  0.61952141  0.11147703  -0.02734442  1
  V  V15  1  0.17451444  0.48697013  0.77206225  1
  V  V16  1  0.29012137  0.06449623  0.38132904  1
  V  V17  1  -0.01211616  0.65396669  0.60021069  1
  V  V18  1  0.62505426  -0.00995740  0.11605986  1
  V  V19  1  0.24913423  0.86288411  0.59306699  1
  V  V20  1  0.27791302  0.23998485  0.02393380  1
  V  V21  1  0.73960362  0.35823521  0.15955335  1
  V  V22  1  0.86481602  0.21875491  0.59569930  1
  V  V23  1  0.73939874  0.34401916  0.63431312  1
  V  V24  1  0.75683018  0.08614498  0.86922017  1
  V  V25  1  0.31500653  0.45692120  0.38856533  1
  V  V26  1  0.12527447  0.86129347  0.71785794  1
  V  V27  1  0.89360902  0.03527296  0.40123113  1
  V  V28  1  0.11814580  0.74676421  0.84810852  1
  V  V29  1  0.04257503  0.48527512  0.64608787  1
  V  V30  1  0.58362410  0.59747292  0.06626701  1
  V  V31  1  -0.00481791  0.47144959  0.01173222  1
  V  V32  1  0.49401491  0.11249800  0.10546804  1
  V  V33  1  0.32945071  0.68204078  0.60884475  1
  V  V34  1  0.59047235  0.71215948  0.90979812  1
  V  V35  1  0.64833819  0.00416145  0.57613123  1
  V  V36  1  0.39993022  0.67625075  0.26356787  1
  V  V37  1  0.77373065  0.02864338  0.21937946  1
  V  V38  1  0.62148530  0.85805392  0.82390988  1
  V  V39  1  0.15484662  0.27853327  0.26047466  1
  V  V40  1  0.53467055  0.50478509  0.48048800  1
  V  V41  1  0.49379742  0.63320189  0.61442870  1
  V  V42  1  0.71812452  0.27299280  -0.02824539  1
  V  V43  1  0.01038510  0.90389102  0.34953020  1
  V  V44  1  0.85623756  0.38459737  -0.00674349  1
  V  V45  1  0.62699165  0.47881263  0.19196419  1
  V  V46  1  0.54858338  0.38657899  0.83343399  1
  V  V47  1  0.74963893  0.63684463  0.96110466  1
  V  V48  1  0.11879909  0.55023277  0.14251600  1
  V  V49  1  0.12941654  0.00282887  0.13797055  1
  V  V50  1  0.02797170  0.11837008  0.62670887  1
  Zn  Zn51  1  0.33352638  0.26200735  0.35116894  1
  Zn  Zn52  1  0.97158121  0.95288635  0.71156173  1
  Zn  Zn53  1  0.60896925  0.03622309  0.78275814  1
  Zn  Zn54  1  0.07668618  0.26513642  0.07331202  1
  Zn  Zn55  1  0.47009847  0.11790148  0.42283837  1
  Zn  Zn56  1  0.04323750  0.57801206  0.84117320  1
  Zn  Zn57  1  0.33206642  0.79868721  0.75316976  1
  Zn  Zn58  1  0.43347161  0.50921659  0.22109539  1
  Zn  Zn59  1  0.15196464  0.88032508  0.00457528  1
  Zn  Zn60  1  0.70730864  0.48925289  0.53671493  1
  Zn  Zn61  1  0.47095219  0.26248313  0.97870302  1
  Zn  Zn62  1  0.54897664  0.40104102  0.64004877  1
  Zn  Zn63  1  0.71285911  0.97332353  0.39499323  1
  Zn  Zn64  1  0.21451912  0.17072873  0.65197555  1
  Zn  Zn65  1  0.14496160  0.44835231  0.47933745  1
  Zn  Zn66  1  0.67937569  0.17361412  0.15975237  1
  Zn  Zn67  1  0.72168409  0.14559874  0.66875968  1
  Zn  Zn68  1  0.58424893  0.62737355  0.25696034  1
  Zn  Zn69  1  0.95696358  0.97072045  0.17288929  1
  Zn  Zn70  1  0.45020381  0.71341231  1.03224833  1
  Zn  Zn71  1  0.12225291  0.05661558  0.76493458  1
  Zn  Zn72  1  0.42972514  0.96532197  0.13952413  1
  Zn  Zn73  1  0.39491595  0.61664250  0.45337453  1
  Zn  Zn74  1  0.23127777  0.15198722  0.20772183  1
  Zn  Zn75  1  0.86839990  0.45599186  0.71022694  1
  Zn  Zn76  1  0.26021383  0.66694472  0.12064139  1
  Zn  Zn77  1  0.18133101  0.91768714  0.43212092  1
  Zn  Zn78  1  0.66046649  0.46064492  0.95310350  1
  Zn  Zn79  1  0.21990823  0.93467356  0.85421208  1
  Zn  Zn80  1  0.88971507  0.22828860  0.39921620  1
  Zn  Zn81  1  0.15909242  0.65291753  0.68415817  1
  Zn  Zn82  1  0.38635413  0.48232174  0.57022347  1
  Zn  Zn83  1  0.98994967  0.80539024  0.49726509  1
  Zn  Zn84  1  0.20575776  0.40589499  0.95690921  1
  Zn  Zn85  1  0.81159084  0.53027207  0.10240558  1
  Zn  Zn86  1  0.13695408  0.46424767  0.31104171  1
  Zn  Zn87  1  0.91861565  0.10949860  0.95944689  1
  Zn  Zn88  1  0.29883334  0.09235954  0.07295551  1
  Zn  Zn89  1  0.44061244  0.98571414  0.56807458  1
  Zn  Zn90  1  0.08792487  0.06883412  0.31563090  1
  Zn  Zn91  1  0.74207607  0.56952431  0.80996832  1
  Zn  Zn92  1  0.52675993  0.02764157  0.26764819  1
  Zn  Zn93  1  0.79099336  0.07975527  0.05259499  1
  Zn  Zn94  1  0.44001999  0.85830583  0.30214280  1
  Zn  Zn95  1  0.54381789  0.56393404  0.79452771  1
  Zn  Zn96  1  0.76341344  0.76349617  0.82696945  1
  Zn  Zn97  1  0.74580165  0.37263724  0.82611058  1
  Zn  Zn98  1  -0.00319954  0.31680321  0.60082160  1
  Zn  Zn99  1  0.36239287  0.81542409  0.48218976  1
  Zn  Zn100  1  0.81218341  0.87266411  0.33849864  1
  Zn  Zn101  1  0.70197365  0.93202098  0.96041277  1
  O  O102  1  0.14832382  0.04874545  0.02184696  1
  O  O103  1  0.11206468  0.13271284  0.67920700  1
  O  O104  1  0.15207893  0.64050343  0.13037000  1
  O  O105  1  0.06223291  0.60606754  0.64910162  1
  O  O106  1  0.60769077  0.11882026  0.09533048  1
  O  O107  1  0.66050833  0.10812339  0.57825486  1
  O  O108  1  0.62679656  0.59715961  0.15646856  1
  O  O109  1  0.60019978  0.64603726  0.60943613  1
  O  O110  1  0.32769802  0.36029259  0.39661197  1
  O  O111  1  0.43318367  0.50536395  0.96727033  1
  O  O112  1  0.36797591  0.84481675  0.37811607  1
  O  O113  1  0.43200040  0.84646305  0.79233972  1
  O  O114  1  0.94804437  0.31349182  0.37438881  1
  O  O115  1  0.80915537  0.41499663  0.91433131  1
  O  O116  1  0.89767584  0.94122748  0.36571710  1
  O  O117  1  0.82930657  0.83525713  0.96681161  1
  O  O118  1  0.27097032  -0.03575313  0.37160307  1
  O  O119  1  0.28863916  -0.00981611  0.79394742  1
  O  O120  1  0.21436478  0.47619179  0.38950792  1
  O  O121  1  0.18879432  0.46098715  0.86486899  1
  O  O122  1  0.79875715  0.05178119  0.39876377  1
  O  O123  1  0.75594063  -0.00862717  0.87800283  1
  O  O124  1  0.77469386  0.59599595  0.43854571  1
  O  O125  1  0.71683151  0.55096305  0.91608239  1
  O  O126  1  0.19313925  0.48962656  0.11876069  1
  O  O127  1  0.20673610  0.41552276  0.71025200  1
  O  O128  1  0.21863441  1.06254132  0.14179971  1
  O  O129  1  0.26330681  0.96045246  0.59359105  1
  O  O130  1  0.72771273  0.46480698  0.13610077  1
  O  O131  1  0.73974031  0.56985424  0.60894975  1
  O  O132  1  0.73974337  1.01333333  0.12378320  1
  O  O133  1  0.74242807  0.98279065  0.56064505  1
  O  O134  1  0.14958590  0.37381186  0.25276884  1
  O  O135  1  -0.07136645  0.37186951  0.76964678  1
  O  O136  1  -0.00779504  0.90231141  0.25481011  1
  O  O137  1  0.02951948  0.86218120  0.71399723  1
  O  O138  1  0.47349142  0.28706269  0.21654104  1
  O  O139  1  0.53261370  0.36095257  0.74074346  1
  O  O140  1  0.45632924  0.94666515  0.24435647  1
  O  O141  1  0.57631388  0.93608635  0.78263922  1
  O  O142  1  0.49342249  0.11596925  0.20155634  1
  O  O143  1  0.56439308  0.13733390  0.73479699  1
  O  O144  1  0.47561726  0.61175647  0.24781493  1
  O  O145  1  0.49442655  0.58671803  0.70169809  1
  O  O146  1  0.98782048  0.13412841  0.30368654  1
  O  O147  1  0.96339408  0.11853722  0.73325330  1
  O  O148  1  0.94574995  0.57179160  0.36592447  1
  O  O149  1  0.96152099  0.62636818  0.79287230  1
  O  O150  1  0.36100262  0.26725334  -0.01645663  1
  O  O151  1  0.38785343  0.25226243  0.53485078  1
  O  O152  1  0.34794121  0.74525240  0.00136814  1
  O  O153  1  0.36043835  0.70675737  0.50674284  1
  O  O154  1  0.82286434  0.28071561  -0.01032930  1
  O  O155  1  0.85721377  0.20385693  0.50087107  1
  O  O156  1  0.95989820  0.72136316  0.16880384  1
  O  O157  1  0.84972523  0.74139201  0.47913017  1
  O  O158  1  0.17676399  0.20084428  0.52614383  1
  O  O159  1  0.09882674  0.19809382  0.98874195  1
  O  O160  1  0.18684718  0.70428446  0.45355226  1
  O  O161  1  0.16876760  0.77626032  0.94910915  1
  O  O162  1  0.53150574  0.33185665  0.37349976  1
  O  O163  1  0.63479670  0.21374426  0.98344183  1
  O  O164  1  0.63286587  0.81666062  0.47682603  1
  O  O165  1  0.62810612  0.66589374  1.01095633  1
  O  O166  1  0.48026520  0.20315471  0.06944494  1
  O  O167  1  0.44284959  0.28584282  0.50925317  1
  O  O168  1  0.45944540  0.81374035  0.10131177  1
  O  O169  1  0.47021033  0.72182423  0.62122878  1
  O  O170  1  0.96758281  0.26904578  0.08787277  1
  O  O171  1  0.97031616  0.20233084  0.61467668  1
  O  O172  1  0.99499815  0.71043172  0.22730186  1
  O  O173  1  1.01436132  0.74596471  0.57881719  1
  O  O174  1  0.20535916  0.25452105  0.49012208  1
  O  O175  1  -0.03174464  0.23166747  0.88699973  1
  O  O176  1  -0.02498968  0.82013316  0.39290361  1
  O  O177  1  0.03240662  0.77204092  0.86477054  1
  O  O178  1  0.42349061  0.20048387  0.36776228  1
  O  O179  1  0.51372619  0.32108218  0.90006036  1
  O  O180  1  0.52277479  0.82216155  0.36952251  1
  O  O181  1  0.51857217  0.75478652  0.95836164  1
  O  O182  1  0.29319704  0.06865991  0.47899765  1
  O  O183  1  0.25014424  0.15065074  0.97938780  1
  O  O184  1  0.21233350  0.64808787  0.42294276  1
  O  O185  1  0.38201612  0.61708839  0.86518480  1
  O  O186  1  0.76523534  0.22651252  0.36265152  1
  O  O187  1  0.75039949  0.13274258  0.95956727  1
  O  O188  1  0.80656260  0.71466867  0.52705889  1
  O  O189  1  0.76752148  0.61771626  1.05567229  1
  O  O190  1  0.29643837  0.44214390  0.00528558  1
  O  O191  1  0.20869311  0.39112888  0.54851334  1
  O  O192  1  0.26629138  0.89101673  -0.04809792  1
  O  O193  1  0.24331074  0.85147140  0.49104972  1
  O  O194  1  0.68856762  0.36095852  -0.00327810  1
  O  O195  1  0.76322472  0.40021985  0.55766548  1
  O  O196  1  0.78395408  0.88040485  0.01846445  1
  O  O197  1  0.76626127  0.88657818  0.43623507  1
  O  O198  1  0.10049243  0.53532147  0.23665598  1
  O  O199  1  0.07650312  0.50173160  0.75503716  1
  O  O200  1  0.12078906  0.99620758  0.23536791  1
  O  O201  1  0.14769825  0.95844619  0.71591738  1
  O  O202  1  0.63659070  0.52073472  0.27774202  1
  O  O203  1  0.64983489  0.57247049  0.75404479  1
  O  O204  1  0.61877083  1.00640403  0.21458265  1
  O  O205  1  0.66336234  1.03081268  0.67661629  1
  O  O206  1  0.31013631  -0.07757973  0.15934447  1
  O  O207  1  0.39323795  -0.00910308  0.66667939  1
  O  O208  1  0.35732957  0.48711150  0.30753778  1
  O  O209  1  0.35830509  0.45591700  0.80287004  1
  O  O210  1  0.86938672  0.02808847  0.20874411  1
  O  O211  1  0.87300526  -0.00407065  0.73269020  1
  O  O212  1  0.84790735  0.49617177  0.30661483  1
  O  O213  1  0.83774839  0.54666196  0.76284220  1
  O  O214  1  0.10202431  0.27427057  0.35388513  1
  O  O215  1  -0.01408616  0.39081137  0.81561086  1
  O  O216  1  0.10577935  0.88841628  0.36264140  1
  O  O217  1  0.16111852  0.84887179  0.81435306  1
  O  O218  1  0.58358317  0.32303469  0.41707752  1
  O  O219  1  0.64475431  0.41269821  0.85037881  1
  O  O220  1  0.62732689  0.89457495  0.35364636  1
  O  O221  1  0.62656974  0.86963927  0.92001077  1
  O  O222  1  0.39914760  0.06339536  0.09115991  1
  O  O223  1  0.42917216  0.22348076  0.68143560  1
  O  O224  1  0.32251130  0.66090036  0.20767857  1
  O  O225  1  0.38547481  0.59350681  0.60310692  1
  O  O226  1  0.87259629  0.15406389  0.04993657  1
  O  O227  1  0.84174955  0.13369475  0.65422431  1
  O  O228  1  0.86931107  0.55910978  0.19702927  1
  O  O229  1  0.89875159  0.65877827  0.65490740  1
  O  O230  1  0.28720375  0.20571314  0.11690634  1
  O  O231  1  0.24720890  0.27176411  0.65085688  1
  O  O232  1  0.28564900  0.76031720  0.05412021  1
  O  O233  1  0.23734850  0.65762912  0.60256394  1
  O  O234  1  0.72201132  0.26395726  0.11601254  1
  O  O235  1  0.75885435  0.24346101  0.62207706  1
  O  O236  1  0.82583717  0.72723679  0.25929170  1
  O  O237  1  0.80479739  0.82106550  0.64974409  1
  O  O238  1  0.28340858  0.16553080  0.38874366  1
  O  O239  1  0.20990392  0.30796666  1.00927370  1
  O  O240  1  0.15777604  0.78398853  0.24889950  1
  O  O241  1  0.29690540  0.77009478  0.85844568  1
  O  O242  1  0.71848476  0.25132086  0.40855019  1
  O  O243  1  0.72703623  0.27462030  0.87554161  1
  O  O244  1  0.71314650  0.78573425  0.35444439  1
  O  O245  1  0.69979517  0.71884448  0.90893564  1
  O  O246  1  0.01683862  0.06568401  -0.05716830  1
  O  O247  1  0.05324869  0.11142881  0.53370156  1
  O  O248  1  0.03656058  0.53025988  0.08586402  1
  O  O249  1  -0.03281556  0.61503562  0.51923145  1
  O  O250  1  0.52781663  0.10468675  -0.03615633  1
  O  O251  1  0.54307305  0.17053492  0.47383338  1
  O  O252  1  0.48895252  0.62246575  0.07188967  1
  O  O253  1  0.49730920  0.59795651  0.50768499  1
  O  O254  1  0.49169258  0.44008398  0.55223513  1
  O  O255  1  0.45573487  0.45248364  1.00487719  1
  O  O256  1  0.43143286  0.89876569  0.50902709  1
  O  O257  1  0.41076224  0.90052144  0.84306975  1
  O  O258  1  1.04277965  0.31040125  0.50099424  1
  O  O259  1  0.94927490  0.37668486  0.96862305  1
  O  O260  1  0.98350017  0.91116970  0.52394576  1
  O  O261  1  0.95994673  0.91462243  0.93070702  1
  O  O262  1  0.49783857  0.49089802  0.39705642  1
  O  O263  1  0.50620873  0.47251662  0.84420067  1
  O  O264  1  0.53129007  1.04524952  0.37171748  1
  O  O265  1  0.44618067  1.05230642  0.82195029  1
  O  O266  1  1.06823330  0.42626859  0.39640547  1
  O  O267  1  1.00476509  0.52241268  0.93174345  1
  O  O268  1  1.02032482  1.00645731  0.39510209  1
  O  O269  1  1.02637229  0.99626306  0.80262698  1
  O  O270  1  0.03667077  0.02543095  0.11920083  1
  O  O271  1  0.00443694  0.01854516  0.62420636  1
  O  O272  1  0.06294920  0.38631020  0.05902154  1
  O  O273  1  -0.05318223  0.49510038  0.64172405  1
  O  O274  1  0.52500814  0.00502836  0.09264889  1
  O  O275  1  0.54710189  0.00779795  0.57982222  1
  O  O276  1  0.53129134  0.47449215  0.17903528  1
  O  O277  1  0.61438683  0.49124574  0.62425842  1
  O  O278  1  0.25214642  0.25993913  0.27259984  1
  O  O279  1  0.35439678  0.38898524  0.82118166  1
  O  O280  1  0.29416694  0.86802020  0.20191135  1
  O  O281  1  0.27897511  0.87838495  0.70191861  1
  O  O282  1  0.77956981  0.34689962  0.24072628  1
  O  O283  1  0.77673772  0.38730112  0.72072748  1
  O  O284  1  0.75140083  0.95500968  0.28657553  1
  O  O285  1  0.71171174  0.85204643  0.79022241  1
  O  O286  1  0.29663320  0.09076671  0.28034847  1
  O  O287  1  0.27049126  0.08457119  0.67500703  1
  O  O288  1  0.20715551  0.75780507  0.28899185  1
  O  O289  1  0.21240050  0.57085827  0.74540174  1
  O  O290  1  0.73681230  0.11725614  0.23657994  1
  O  O291  1  0.75902272  0.11556555  0.77007424  1
  O  O292  1  0.82244243  0.54185571  0.25811357  1
  O  O293  1  0.77167730  0.67171769  0.76187532  1
  O  O294  1  0.38678473  0.04596786  0.37469529  1
  O  O295  1  0.42314292  0.11255709  0.79671932  1
  O  O296  1  0.37904835  0.66759552  0.35788532  1
  O  O297  1  0.31757154  0.59382177  0.87095965  1
  O  O298  1  0.92595251  0.12954571  0.34927082  1
  O  O299  1  0.86490390  0.10115223  0.85692056  1
  O  O300  1  0.92285838  0.63428242  0.34812879  1
  O  O301  1  0.83224016  0.64980564  0.92133816  1
  O  O302  1  0.12645725  0.25257827  0.16915519  1
  O  O303  1  0.04983867  0.38784438  0.66125689  1
  O  O304  1  0.14679123  0.91050267  0.10513871  1
  O  O305  1  0.15810885  0.83272586  0.62276604  1
  O  O306  1  0.64248735  0.37774509  0.19820589  1
  O  O307  1  0.64579293  0.34013645  0.63844135  1
  O  O308  1  0.63303500  0.89834159  0.10476181  1
  O  O309  1  0.63475806  0.91113573  0.60425357  1
  O  O310  1  0.13889955  0.15665584  0.26966920  1
  O  O311  1  0.04156676  0.34642023  0.81786840  1
  O  O312  1  0.06938477  0.70198435  0.37274433  1
  O  O313  1  0.12935230  0.74122225  0.74203600  1
  O  O314  1  0.61634736  0.23432107  0.26588217  1
  O  O315  1  0.61222293  0.18631253  0.71060310  1
  O  O316  1  0.60739040  0.73375437  0.29564791  1
  O  O317  1  0.58409763  0.76316654  0.81878336  1
  O  O318  1  0.42926084  0.32546691  0.25343442  1
  O  O319  1  0.40108345  0.25421117  0.73670041  1
  O  O320  1  0.43349461  0.76646020  0.24505354  1
  O  O321  1  0.33906487  0.70314935  0.70442301  1
  O  O322  1  0.85955860  0.22531812  0.18608629  1
  O  O323  1  0.91425301  0.25306165  0.85012219  1
  O  O324  1  0.85849491  0.77480817  0.29996764  1
  O  O325  1  0.86373572  0.73924098  0.79086268  1
  O  O326  1  0.35174891  0.51077986  0.46652334  1
  O  O327  1  0.29895292  0.59157483  1.04965312  1
  O  O328  1  0.42675262  1.08066152  0.51756421  1
  O  O329  1  0.44901223  0.90679378  0.90268977  1
  O  O330  1  0.77956855  0.63345445  0.37974761  1
  O  O331  1  0.89287857  0.48153967  1.03857635  1
  O  O332  1  0.91930559  1.04286764  0.49340496  1
  O  O333  1  0.86406179  1.01076925  1.00045434  1
  O  O334  1  0.11757615  -0.05860287  -0.08082814  1
  O  O335  1  0.11725848  -0.02596306  0.50666702  1
  O  O336  1  0.09115222  0.41927134  -0.00797804  1
  O  O337  1  0.08401099  0.49335535  0.55805507  1
  O  O338  1  0.65420797  0.01929382  0.00663651  1
  O  O339  1  0.64278550  0.00734702  0.47494711  1
  O  O340  1  0.59745096  0.50882745  0.02794649  1
  O  O341  1  0.63111179  0.50114264  0.46500937  1
  O  O342  1  0.35928274  0.48148520  0.14606750  1
  O  O343  1  0.34209671  0.40004713  0.62707692  1
  O  O344  1  0.42366368  0.86866828  0.07168033  1
  O  O345  1  0.32730099  0.79870717  0.59558305  1
  O  O346  1  0.83528299  0.35957584  0.09864462  1
  O  O347  1  0.88490648  0.31365703  0.61325192  1
  O  O348  1  0.92676784  0.89767993  0.08986345  1
  O  O349  1  0.86624685  0.84466771  0.62788787  1
  O  O350  1  0.18678869  0.06016386  0.37800323  1
  O  O351  1  0.15155648  0.09574826  0.86215881  1
  O  O352  1  0.08933143  0.64417311  0.34077154  1
  O  O353  1  0.12160308  0.64918024  0.86440360  1
  O  O354  1  0.58736884  0.19297102  0.31432613  1
  O  O355  1  0.64586996  0.09415487  0.86859479  1
  O  O356  1  0.59806014  0.70467407  0.42656682  1
  O  O357  1  0.55636025  0.62749836  0.88218622  1
