# generated using pymatgen
data_V51Zn51O256
_symmetry_space_group_name_H-M   'P 1'
_cell_length_a   17.50589970
_cell_length_b   17.11285563
_cell_length_c   17.31821921
_cell_angle_alpha   89.65105515
_cell_angle_beta   90.38279747
_cell_angle_gamma   90.60118032
_symmetry_Int_Tables_number   1
_chemical_formula_structural   V51Zn51O256
_chemical_formula_sum   'V51 Zn51 O256'
_cell_volume   5187.62630829
_cell_formula_units_Z   1
loop_
 _symmetry_equiv_pos_site_id
 _symmetry_equiv_pos_as_xyz
  1  'x, y, z'
loop_
 _atom_site_type_symbol
 _atom_site_label
 _atom_site_symmetry_multiplicity
 _atom_site_fract_x
 _atom_site_fract_y
 _atom_site_fract_z
 _atom_site_occupancy
  V  V0  1  0.03673634  0.24247840  0.27682020  1
  V  V1  1  0.48828545  0.34971236  0.87723909  1
  V  V2  1  0.21689383  0.11334254  0.87948413  1
  V  V3  1  0.82094430  0.92193024  0.49861146  1
  V  V4  1  0.86206704  0.76406911  0.62908455  1
  V  V5  1  0.26376331  0.39838815  0.06021353  1
  V  V6  1  0.59970509  0.84374186  0.69118973  1
  V  V7  1  0.51086505  0.63408887  0.64807244  1
  V  V8  1  0.02138580  0.24887771  0.78313821  1
  V  V9  1  0.75208223  0.75122996  0.50380391  1
  V  V10  1  0.51401223  0.49097129  -0.01976471  1
  V  V11  1  0.18949449  0.45563752  0.20800177  1
  V  V12  1  0.47633562  0.27024788  0.23418033  1
  V  V13  1  0.13073819  0.63867577  0.00487696  1
  V  V14  1  0.25383173  0.83346611  0.12318355  1
  V  V15  1  0.66010693  0.48777044  0.11414461  1
  V  V16  1  0.88220231  0.11551150  0.76328928  1
  V  V17  1  0.48906869  -0.00317728  -0.00859412  1
  V  V18  1  0.38413957  0.74661425  0.63173894  1
  V  V19  1  0.11646047  0.75233725  0.87200887  1
  V  V20  1  0.48259267  0.39078619  0.35536345  1
  V  V21  1  0.00944987  0.74632698  0.23328706  1
  V  V22  1  0.35985618  -0.02491765  0.85785846  1
  V  V23  1  -0.00031855  0.11949615  0.55805804  1
  V  V24  1  0.61507432  0.73277168  0.86514948  1
  V  V25  1  0.62782271  0.49344566  0.62310375  1
  V  V26  1  0.38521742  0.71300424  0.11376188  1
  V  V27  1  0.11512059  0.11273382  0.03509576  1
  V  V28  1  0.75898820  0.28614023  0.49631837  1
  V  V29  1  0.61521899  0.64382833  0.48018407  1
  V  V30  1  0.76242370  0.46616148  0.74198776  1
  V  V31  1  0.04535764  0.85933432  0.38568488  1
  V  V32  1  0.89574085  0.28711495  0.59315392  1
  V  V33  1  0.24103775  0.60312822  0.39669611  1
  V  V34  1  -0.00301467  0.46420958  -0.02820041  1
  V  V35  1  0.46963377  0.91051020  0.36494589  1
  V  V36  1  0.26453110  0.13302061  0.39018323  1
  V  V37  1  0.62085126  0.35811891  0.75952050  1
  V  V38  1  0.14332313  0.87330247  0.24492600  1
  V  V39  1  0.41218893  0.61186215  0.80309126  1
  V  V40  1  0.66030360  0.61476561  -0.01461352  1
  V  V41  1  -0.00279098  0.59598965  0.13700345  1
  V  V42  1  0.75856905  0.65345036  0.35591555  1
  V  V43  1  0.37661927  0.85315942  -0.00787876  1
  V  V44  1  0.10773589  0.61616655  0.50305515  1
  V  V45  1  0.12255763  0.40277991  0.81699497  1
  V  V46  1  0.63351035  0.11209829  0.46595392  1
  V  V47  1  0.76539809  0.24183937  0.00868693  1
  V  V48  1  0.88705251  0.51681719  0.41838135  1
  V  V49  1  0.33145068  0.12151591  0.73919151  1
  V  V50  1  -0.02017417  -0.01660709  0.00580869  1
  Zn  Zn51  1  0.80525298  0.12501374  0.55059643  1
  Zn  Zn52  1  0.29293014  0.74462634  0.27576358  1
  Zn  Zn53  1  0.33635930  0.80032472  0.79625856  1
  Zn  Zn54  1  0.74156664  0.80363426  0.75559417  1
  Zn  Zn55  1  0.05025667  0.56685387  0.32336096  1
  Zn  Zn56  1  0.44601404  0.91153708  0.15848035  1
  Zn  Zn57  1  0.45384188  0.41577473  0.13997545  1
  Zn  Zn58  1  0.13524023  0.13260667  0.70046479  1
  Zn  Zn59  1  0.05809986  0.06357321  0.37423540  1
  Zn  Zn60  1  0.08910156  0.31628126  0.07781338  1
  Zn  Zn61  1  0.94107844  0.42347812  0.77944215  1
  Zn  Zn62  1  0.32350213  0.93782546  0.45885559  1
  Zn  Zn63  1  0.52570431  0.26036821  0.46472820  1
  Zn  Zn64  1  0.83432365  0.55183108  0.04220709  1
  Zn  Zn65  1  0.45206110  0.45152561  0.71010925  1
  Zn  Zn66  1  0.57068597  0.97167011  0.84356450  1
  Zn  Zn67  1  0.94732469  0.16161543  0.93801157  1
  Zn  Zn68  1  0.83873764  0.07814248  0.10238681  1
  Zn  Zn69  1  0.60593617  0.42995047  0.46480234  1
  Zn  Zn70  1  0.47327714  0.14335693  0.87412765  1
  Zn  Zn71  1  0.57626639  0.31505380  0.06210266  1
  Zn  Zn72  1  0.31876617  0.60336588  0.54561404  1
  Zn  Zn73  1  0.20060974  0.71133654  0.65867887  1
  Zn  Zn74  1  0.33360818  0.95392830  0.65424267  1
  Zn  Zn75  1  0.09067159  0.27674134  0.55189258  1
  Zn  Zn76  1  0.46909650  0.68960206  -0.03289866  1
  Zn  Zn77  1  0.31403061  0.33332043  0.30736512  1
  Zn  Zn78  1  0.26264023  -0.00404004  0.00543269  1
  Zn  Zn79  1  0.54823185  0.09600733  0.29468800  1
  Zn  Zn80  1  0.62756071  0.90881235  0.50556695  1
  Zn  Zn81  1  0.60303712  0.54706480  0.30165753  1
  Zn  Zn82  1  0.74441775  0.25219774  0.69943105  1
  Zn  Zn83  1  0.28289130  0.31423590  0.88394218  1
  Zn  Zn84  1  0.06991173  0.81741976  0.06106708  1
  Zn  Zn85  1  0.58686757  0.54380559  0.81289991  1
  Zn  Zn86  1  0.33006905  0.56761540  -0.00783391  1
  Zn  Zn87  1  0.16693571  0.44046906  0.46899355  1
  Zn  Zn88  1  0.19478794  0.14819016  0.19890097  1
  Zn  Zn89  1  0.85705981  0.25441967  0.18795144  1
  Zn  Zn90  1  0.05775724  0.76175674  0.56223197  1
  Zn  Zn91  1  0.93044220  0.70095330  0.43429597  1
  Zn  Zn92  1  0.16483618  0.63136956  0.21339764  1
  Zn  Zn93  1  0.82309546  0.34380654  0.32694027  1
  Zn  Zn94  1  0.92822942  0.95200039  0.65226957  1
  Zn  Zn95  1  0.53167938  0.60714241  0.11896662  1
  Zn  Zn96  1  0.92208799  0.85987108  0.14744194  1
  Zn  Zn97  1  0.05497230  0.56460682  0.83022009  1
  Zn  Zn98  1  0.80397771  0.57949993  0.58090347  1
  Zn  Zn99  1  0.70116155  0.42728129  0.92312329  1
  Zn  Zn100  1  0.42345162  0.70680887  0.44493490  1
  Zn  Zn101  1  0.86168678  0.82508470  0.32974345  1
  O  O102  1  0.13218747  0.09149992  0.13090008  1
  O  O103  1  0.08458931  0.16806226  0.59920397  1
  O  O104  1  0.10706179  0.63126703  0.11072839  1
  O  O105  1  0.11691160  0.66760344  0.59832719  1
  O  O106  1  0.71312252  0.10295203  0.20624931  1
  O  O107  1  0.70326771  0.03900227  0.74627489  1
  O  O108  1  0.64247897  0.60752967  0.08713663  1
  O  O109  1  0.59201961  0.64949717  0.59221766  1
  O  O110  1  0.38627314  0.39689566  0.36848957  1
  O  O111  1  0.39195971  0.35615413  0.87626089  1
  O  O112  1  0.36613318  0.91657693  0.35405931  1
  O  O113  1  0.34439076  0.86397368  0.88749755  1
  O  O114  1  0.83373715  0.44230411  0.37863290  1
  O  O115  1  0.87831751  0.35602418  0.86579326  1
  O  O116  1  0.86767786  0.90293043  0.41386043  1
  O  O117  1  0.77344641  0.98442042  0.89779808  1
  O  O118  1  0.28053047  0.03241791  0.41479076  1
  O  O119  1  0.26447102  0.01316856  0.88724468  1
  O  O120  1  0.23433139  0.50380771  0.40410540  1
  O  O121  1  0.24772850  0.53016741  0.85668927  1
  O  O122  1  0.63921461  -0.04733880  0.24575122  1
  O  O123  1  0.74704391  -0.01538943  0.96314910  1
  O  O124  1  0.81168080  0.48818561  0.23099287  1
  O  O125  1  0.75578829  0.48261280  0.83960041  1
  O  O126  1  0.25916245  0.48138238  0.00631915  1
  O  O127  1  0.25216941  0.42382951  0.66495623  1
  O  O128  1  0.30135588  0.99697122  0.15752921  1
  O  O129  1  0.08475928  0.98034812  0.77808156  1
  O  O130  1  0.75697951  0.49412110  0.09658045  1
  O  O131  1  0.73003617  0.52721492  0.65070736  1
  O  O132  1  0.75477363  1.04819663  0.18508781  1
  O  O133  1  0.68663709  1.05643387  0.67977181  1
  O  O134  1  0.02678044  0.34317661  0.28867135  1
  O  O135  1  0.03151105  0.35638606  0.76929788  1
  O  O136  1  0.03943419  0.85762281  0.24265714  1
  O  O137  1  -0.00794513  0.85610079  0.67909261  1
  O  O138  1  0.48590046  0.39051867  0.24979099  1
  O  O139  1  0.51520953  0.37054691  0.76719487  1
  O  O140  1  0.48001471  0.88926935  0.26648832  1
  O  O141  1  0.50434620  0.87040573  0.73541300  1
  O  O142  1  0.50933794  0.17470110  0.23374530  1
  O  O143  1  0.50073012  0.15583634  0.71826903  1
  O  O144  1  0.44719314  0.58874707  0.27494024  1
  O  O145  1  0.50867280  0.61629458  0.76106464  1
  O  O146  1  1.04136222  0.13594907  0.28188938  1
  O  O147  1  0.96399493  0.17682547  0.73464597  1
  O  O148  1  0.99287647  0.63494275  0.24149270  1
  O  O149  1  1.01479369  0.66136929  0.76479701  1
  O  O150  1  0.32517653  0.20938698  0.10283664  1
  O  O151  1  0.43983685  0.25859706  0.57705351  1
  O  O152  1  0.37080146  0.74905061  -0.00508557  1
  O  O153  1  0.39836147  0.77113996  0.53778733  1
  O  O154  1  0.86345999  0.22450311  -0.01537288  1
  O  O155  1  0.83005086  0.35330916  0.54403511  1
  O  O156  1  0.80037725  0.78680275  0.00426190  1
  O  O157  1  0.85668585  0.75449327  0.50479538  1
  O  O158  1  0.15570768  0.33685825  0.49209384  1
  O  O159  1  0.10742805  0.21407368  1.03620006  1
  O  O160  1  0.15323717  0.81054064  0.62009061  1
  O  O161  1  0.11783306  0.74684269  0.98751775  1
  O  O162  1  0.71540890  0.17335095  0.48643438  1
  O  O163  1  0.66730695  0.24935680  1.03673421  1
  O  O164  1  0.64376286  0.74224869  0.47424763  1
  O  O165  1  0.63853487  0.71748017  0.97129841  1
  O  O166  1  0.49663869  0.29899886  0.13582898  1
  O  O167  1  0.44951878  0.30661554  0.63256311  1
  O  O168  1  0.48450848  0.70667191  0.08990542  1
  O  O169  1  0.48313013  0.73468675  0.66769379  1
  O  O170  1  1.02223319  0.25892756  0.17352253  1
  O  O171  1  0.98501447  0.30717394  0.55576281  1
  O  O172  1  1.00694898  0.74559353  0.13344800  1
  O  O173  1  0.97171824  0.79054290  0.63705549  1
  O  O174  1  0.07155212  0.24809966  0.37103273  1
  O  O175  1  0.00484812  0.23828719  0.87869688  1
  O  O176  1  -0.02284591  0.77646056  0.35821691  1
  O  O177  1  0.02021172  0.72755932  0.80025604  1
  O  O178  1  0.50760985  0.28543046  0.34074284  1
  O  O179  1  0.50398617  0.25179709  0.87695119  1
  O  O180  1  0.45491298  0.80927082  0.38712458  1
  O  O181  1  0.51939070  0.73893069  0.87491805  1
  O  O182  1  0.24747023  0.16918942  0.48061101  1
  O  O183  1  0.21374242  0.09665443  0.99726212  1
  O  O184  1  0.21521845  0.63641186  0.49597135  1
  O  O185  1  0.22287647  0.62891924  0.99359768  1
  O  O186  1  0.78889158  0.10963885  0.34916005  1
  O  O187  1  0.76017386  0.15549838  1.07068016  1
  O  O188  1  0.74215624  0.64563635  0.50380819  1
  O  O189  1  0.75715114  0.61106582  0.98049289  1
  O  O190  1  0.26101355  0.32577997  -0.00598140  1
  O  O191  1  0.26165570  0.45237065  0.59811383  1
  O  O192  1  0.26202841  0.88474063  0.03144468  1
  O  O193  1  0.26517525  0.82858647  0.43240962  1
  O  O194  1  0.75395923  0.33817631  -0.02723530  1
  O  O195  1  0.68290747  0.34298044  0.47253746  1
  O  O196  1  0.83404114  0.84283207  -0.02451566  1
  O  O197  1  0.73182428  0.86859638  0.48756668  1
  O  O198  1  0.12327713  0.52115633  0.25095184  1
  O  O199  1  0.12006477  0.49482962  0.77394342  1
  O  O200  1  0.15250419  0.96750218  0.24500353  1
  O  O201  1  0.06458257  1.03921776  0.72831673  1
  O  O202  1  0.65315829  0.51176768  0.21106825  1
  O  O203  1  0.63783066  0.47198989  0.74128663  1
  O  O204  1  0.59488564  1.00414429  0.22068460  1
  O  O205  1  0.55295946  0.93766539  0.73458169  1
  O  O206  1  0.36369016  -0.00227211  0.19423679  1
  O  O207  1  0.33824685  -0.04880666  0.76510800  1
  O  O208  1  0.40284636  0.54836350  0.23439416  1
  O  O209  1  0.38371972  0.52524686  0.76074253  1
  O  O210  1  0.78259273  -0.09981206  0.26859363  1
  O  O211  1  0.87802070  0.02836204  0.71427744  1
  O  O212  1  0.86779284  0.52859646  0.24289874  1
  O  O213  1  0.85911595  0.47170260  0.72584569  1
  O  O214  1  0.22935428  0.39246693  0.27458068  1
  O  O215  1  0.10083902  0.41127705  0.91021024  1
  O  O216  1  0.14035151  0.84969721  0.35141289  1
  O  O217  1  0.07759986  0.83754459  0.87152348  1
  O  O218  1  0.69377391  0.38230509  0.29305066  1
  O  O219  1  0.63829528  0.35394022  0.85599608  1
  O  O220  1  0.56476770  0.89896141  0.39826159  1
  O  O221  1  0.64179093  0.84306287  0.87966735  1
  O  O222  1  0.36263588  0.15065247  0.12385147  1
  O  O223  1  0.35322634  0.06977347  0.65764559  1
  O  O224  1  0.35806692  0.62052937  0.08933423  1
  O  O225  1  0.43135223  0.61968151  0.59270700  1
  O  O226  1  0.93916137  0.00327574  0.20909696  1
  O  O227  1  0.91119055  0.17201653  0.57223125  1
  O  O228  1  0.90884604  0.61576795  0.09831365  1
  O  O229  1  0.86672810  0.66499519  0.63308002  1
  O  O230  1  0.25684060  0.22376197  0.13796193  1
  O  O231  1  0.28801851  0.27746939  0.60371187  1
  O  O232  1  0.26105970  0.73740048  0.10975282  1
  O  O233  1  0.30043174  0.68196108  0.62838132  1
  O  O234  1  0.81224207  0.29371342  0.09472256  1
  O  O235  1  0.78479674  0.23126948  0.59535424  1
  O  O236  1  0.66231872  0.86493805  0.06123607  1
  O  O237  1  0.75197631  0.76567556  0.60285160  1
  O  O238  1  0.26061296  0.23304864  0.35658294  1
  O  O239  1  0.26338371  0.20095457  0.88344138  1
  O  O240  1  0.29746326  0.77277973  0.39699385  1
  O  O241  1  0.21893697  0.76507013  0.83407197  1
  O  O242  1  0.81386084  0.27384984  0.41716844  1
  O  O243  1  0.74740017  0.19453652  0.92351106  1
  O  O244  1  0.77174983  0.75259611  0.37844193  1
  O  O245  1  0.71283632  0.80701044  0.86926567  1
  O  O246  1  0.00326158  0.10062754  0.01257287  1
  O  O247  1  0.01188320  0.11297189  0.46110411  1
  O  O248  1  0.01546728  0.56920244  0.01760543  1
  O  O249  1  0.01728350  0.66530674  0.49299154  1
  O  O250  1  0.47789529  0.09542335  -0.02398081  1
  O  O251  1  0.55031228  0.16025646  0.49009146  1
  O  O252  1  0.53501160  0.59574155  -0.02177516  1
  O  O253  1  0.52400252  0.65164715  0.44899231  1
  O  O254  1  0.51196603  0.36668824  0.46237506  1
  O  O255  1  0.52579372  0.37164300  0.97633921  1
  O  O256  1  0.44709558  0.94310306  0.46294760  1
  O  O257  1  0.47125003  0.86652079  0.98869368  1
  O  O258  1  0.99142725  0.48821821  0.61841970  1
  O  O259  1  1.01513036  0.38039933  1.02420329  1
  O  O260  1  1.05255262  0.84140156  0.48193918  1
  O  O261  1  0.98689862  0.89068276  1.06493531  1
  O  O262  1  0.55150890  0.47233165  0.36772297  1
  O  O263  1  0.52083493  0.47501226  0.87559225  1
  O  O264  1  0.48442985  1.01013977  0.33824336  1
  O  O265  1  0.45891801  0.97115866  0.87077621  1
  O  O266  1  0.98030013  0.51088973  0.38951176  1
  O  O267  1  0.97899171  0.48798258  0.86701544  1
  O  O268  1  1.02722357  0.95782763  0.37315930  1
  O  O269  1  0.96353845  0.95977146  0.91670358  1
  O  O270  1  -0.09462101  0.02398782  0.26787362  1
  O  O271  1  -0.00997692  0.02710189  0.59052644  1
  O  O272  1  -0.00207665  0.50300109  0.15537673  1
  O  O273  1  -0.00481777  0.55199536  0.64984134  1
  O  O274  1  0.49799534  -0.01937898  0.09070156  1
  O  O275  1  0.55170113  0.10643246  0.73182858  1
  O  O276  1  0.53203345  0.49072013  0.09548233  1
  O  O277  1  0.53011458  0.51884630  0.65016641  1
  O  O278  1  0.25440007  0.51736371  0.17521028  1
  O  O279  1  0.21137154  0.36098101  0.81066141  1
  O  O280  1  0.25356619  0.84222600  0.23220521  1
  O  O281  1  0.15405159  0.96122616  0.78187253  1
  O  O282  1  0.78285225  0.25628731  0.26410125  1
  O  O283  1  0.73808193  0.36706755  0.72926719  1
  O  O284  1  0.76405863  0.88107980  0.19767604  1
  O  O285  1  0.68653425  0.88913910  0.70665463  1
  O  O286  1  0.25111726  0.11394036  0.28624534  1
  O  O287  1  0.22866881  0.10725743  0.76058231  1
  O  O288  1  0.24316408  0.64529909  0.29957671  1
  O  O289  1  0.24262061  0.58816657  0.81523260  1
  O  O290  1  0.88903278  0.15873276  0.15367347  1
  O  O291  1  0.80093921  0.16808218  0.74563476  1
  O  O292  1  0.75832090  0.64792819  0.26294489  1
  O  O293  1  0.80096050  0.65054843  0.80843854  1
  O  O294  1  0.36344799  0.13674878  0.38970105  1
  O  O295  1  0.38238354  0.09023046  0.82739061  1
  O  O296  1  0.34075897  0.62766101  0.42897572  1
  O  O297  1  0.39460257  0.61362779  0.90193304  1
  O  O298  1  0.77853719  0.03924322  0.34551159  1
  O  O299  1  0.89307359  0.10224597  0.86037192  1
  O  O300  1  0.85538775  0.61608857  0.38472381  1
  O  O301  1  0.87001026  0.63904140  0.81185913  1
  O  O302  1  0.17022853  0.39115108  0.12104524  1
  O  O303  1  0.22318427  0.25615775  0.62114663  1
  O  O304  1  0.15162929  0.85153318  0.13303618  1
  O  O305  1  0.16728902  0.89081803  0.64218554  1
  O  O306  1  0.64361929  0.38828626  0.11325703  1
  O  O307  1  0.62211126  0.39820976  0.61197795  1
  O  O308  1  0.66084304  0.93046426  0.08816127  1
  O  O309  1  0.58809803  0.84941616  0.59338946  1
  O  O310  1  0.13450285  0.23707538  0.23838379  1
  O  O311  1  0.11187963  0.22600066  0.76067665  1
  O  O312  1  0.10761392  0.72877042  0.25117917  1
  O  O313  1  0.17072636  0.72958951  0.77591213  1
  O  O314  1  0.65007476  0.32878449  0.27458327  1
  O  O315  1  0.63372699  0.26608768  0.72308865  1
  O  O316  1  0.52314035  0.60752868  0.23951546  1
  O  O317  1  0.62749932  0.75462532  0.75254199  1
  O  O318  1  0.37928010  0.26858801  0.24316208  1
  O  O319  1  0.35147494  0.21428732  0.72559404  1
  O  O320  1  0.38056586  0.72052425  0.21309277  1
  O  O321  1  0.36623015  0.69362265  0.76743129  1
  O  O322  1  0.93956136  0.21926274  0.29173085  1
  O  O323  1  0.84332161  0.30195978  0.83112846  1
  O  O324  1  0.90425133  0.78941153  0.23199271  1
  O  O325  1  0.84344286  0.79412710  0.72184805  1
  O  O326  1  0.32962383  0.49480562  0.58609366  1
  O  O327  1  0.41970803  0.49043235  0.99262741  1
  O  O328  1  0.29329493  0.93487322  0.55757997  1
  O  O329  1  0.37482170  0.97300109  0.98613528  1
  O  O330  1  0.87456658  0.52377726  0.51638154  1
  O  O331  1  0.90346593  0.47579146  0.99685438  1
  O  O332  1  0.80932696  1.02005434  0.51507952  1
  O  O333  1  0.88644477  1.00658118  1.04368282  1
  O  O334  1  0.08596605  0.00450323  0.01192669  1
  O  O335  1  0.12289013  -0.06112423  0.61150194  1
  O  O336  1  0.08853477  0.52930645  0.00322208  1
  O  O337  1  0.10466048  0.51839975  0.52084325  1
  O  O338  1  0.58149233  -0.01889868  -0.04740171  1
  O  O339  1  0.63335972  0.02123971  0.50907256  1
  O  O340  1  0.64301690  0.49770719  -0.01433990  1
  O  O341  1  0.62920083  0.52687452  0.52157235  1
  O  O342  1  0.34789722  0.39509708  0.11329485  1
  O  O343  1  0.41234561  0.37552637  0.62538501  1
  O  O344  1  0.37350624  0.83990497  0.11147556  1
  O  O345  1  0.34786332  0.82718253  0.68090922  1
  O  O346  1  0.88454584  0.35233034  0.23135163  1
  O  O347  1  0.90086952  0.31454435  0.68537512  1
  O  O348  1  0.81312014  0.90563629  0.14234639  1
  O  O349  1  0.86398730  0.88390697  0.58418539  1
  O  O350  1  0.16206579  0.10335459  0.38872012  1
  O  O351  1  0.12302641  0.11660016  0.87922374  1
  O  O352  1  0.12655855  0.61769599  0.39576836  1
  O  O353  1  0.09668567  0.64175072  0.89900289  1
  O  O354  1  0.62837732  0.09959706  0.36738492  1
  O  O355  1  0.56413471  0.09128572  0.81386878  1
  O  O356  1  0.66160821  0.61190063  0.38127089  1
  O  O357  1  0.64211060  0.62841683  0.86313519  1
