# generated using pymatgen
data_V51Zn51O256
_symmetry_space_group_name_H-M   'P 1'
_cell_length_a   17.36939310
_cell_length_b   17.35851193
_cell_length_c   17.19261945
_cell_angle_alpha   90.26960553
_cell_angle_beta   90.69806216
_cell_angle_gamma   87.68031566
_symmetry_Int_Tables_number   1
_chemical_formula_structural   V51Zn51O256
_chemical_formula_sum   'V51 Zn51 O256'
_cell_volume   5179.01375306
_cell_formula_units_Z   1
loop_
 _symmetry_equiv_pos_site_id
 _symmetry_equiv_pos_as_xyz
  1  'x, y, z'
loop_
 _atom_site_type_symbol
 _atom_site_label
 _atom_site_symmetry_multiplicity
 _atom_site_fract_x
 _atom_site_fract_y
 _atom_site_fract_z
 _atom_site_occupancy
  V  V0  1  0.25330714  0.28383546  0.50015144  1
  V  V1  1  0.00837436  0.23047625  0.26886950  1
  V  V2  1  0.13098435  0.57048415  -0.01871630  1
  V  V3  1  0.24793043  0.85054096  0.59261631  1
  V  V4  1  0.15370562  0.01815017  0.63701692  1
  V  V5  1  0.87971932  0.29781014  0.62150316  1
  V  V6  1  0.01423294  0.73448992  0.72979981  1
  V  V7  1  0.41998359  0.48883027  0.37755629  1
  V  V8  1  0.55072276  0.09977326  0.64441350  1
  V  V9  1  0.90981198  0.36290995  -0.00524656  1
  V  V10  1  0.74484347  0.45610930  0.25431455  1
  V  V11  1  0.88284781  0.11406162  0.75019985  1
  V  V12  1  0.91258599  0.02240693  0.37116869  1
  V  V13  1  0.35945139  0.61263774  0.24944273  1
  V  V14  1  0.13816181  0.87873775  0.75310032  1
  V  V15  1  0.48597699  0.61518642  0.12889114  1
  V  V16  1  0.25120221  0.76142935  0.01145694  1
  V  V17  1  0.36658608  0.01881705  0.85863339  1
  V  V18  1  0.61164371  0.69664670  0.47113167  1
  V  V19  1  0.02197130  0.03879880  0.52657692  1
  V  V20  1  0.24423102  0.48874355  0.25857964  1
  V  V21  1  0.12459899  0.75212725  0.87758465  1
  V  V22  1  0.49931092  0.22270144  0.26376269  1
  V  V23  1  0.60901009  0.47924978  0.12746366  1
  V  V24  1  0.73314833  0.12378208  0.88482327  1
  V  V25  1  0.64661745  0.31675848  0.76703895  1
  V  V26  1  0.72197824  0.25171879  0.01481564  1
  V  V27  1  0.37701699  0.61519548  0.76785841  1
  V  V28  1  0.88372957  0.91303996  0.52361550  1
  V  V29  1  0.37556640  0.22680636  0.13298604  1
  V  V30  1  0.62727568  0.14186599  0.49068852  1
  V  V31  1  0.26261989  0.36295781  0.10524789  1
  V  V32  1  0.45456508  0.74255848  0.72892406  1
  V  V33  1  0.87043134  0.88418590  0.01619427  1
  V  V34  1  0.59905335  0.36063530  0.27084912  1
  V  V35  1  0.61954502  0.75106651  0.90313665  1
  V  V36  1  0.75718388  -0.02653011  0.26645546  1
  V  V37  1  0.62661455  0.09387234  0.01446907  1
  V  V38  1  0.86190736  0.79191481  0.63858449  1
  V  V39  1  0.47548109  0.48102655  -0.00336276  1
  V  V40  1  0.26164697  0.61017138  0.87874046  1
  V  V41  1  0.14287477  0.37544816  0.75263541  1
  V  V42  1  0.00697766  0.85725196  0.40601810  1
  V  V43  1  0.08600938  0.87025613  0.24602657  1
  V  V44  1  0.45961907  0.76204179  0.23275475  1
  V  V45  1  0.90278710  0.23471036  0.11305580  1
  V  V46  1  0.76793342  0.14772100  0.36794760  1
  V  V47  1  0.75715288  0.27391526  0.50564354  1
  V  V48  1  0.12210804  0.37467694  0.24227158  1
  V  V49  1  -0.01688905  0.67138484  0.15760962  1
  V  V50  1  0.63833706  0.52719165  0.66746187  1
  Zn  Zn51  1  0.68121605  0.18520834  0.18375028  1
  Zn  Zn52  1  0.26674306  0.40741278  0.90789323  1
  Zn  Zn53  1  0.17207377  0.65120534  0.16033666  1
  Zn  Zn54  1  0.17755453  0.95188310  0.43770937  1
  Zn  Zn55  1  0.77984254  0.42334017  0.07531476  1
  Zn  Zn56  1  0.96375994  0.67204442  0.94716601  1
  Zn  Zn57  1  0.54951282  0.57960664  0.84059346  1
  Zn  Zn58  1  0.80105005  0.07333695  0.08826761  1
  Zn  Zn59  1  0.30324982  0.82029382  0.83986234  1
  Zn  Zn60  1  0.45694749  0.17848919  0.95085897  1
  Zn  Zn61  1  0.94907273  0.70918296  0.52469820  1
  Zn  Zn62  1  0.31684400  0.12762704  0.03155450  1
  Zn  Zn63  1  0.43155099  0.68325749  0.96250026  1
  Zn  Zn64  1  0.92219158  0.38831659  0.20246198  1
  Zn  Zn65  1  0.32723551  0.29609095  0.74673492  1
  Zn  Zn66  1  0.26889474  0.79351289  0.20459885  1
  Zn  Zn67  1  0.44396655  0.67600542  0.41148852  1
  Zn  Zn68  1  0.71786776  0.92614761  0.89593060  1
  Zn  Zn69  1  0.22649691  0.72194147  0.70687875  1
  Zn  Zn70  1  0.38670632  0.93631810  0.18445920  1
  Zn  Zn71  1  0.62022711  0.39252828  0.95670474  1
  Zn  Zn72  1  0.56973809  0.82639563  0.58220000  1
  Zn  Zn73  1  0.47231627  0.29600422  0.64771911  1
  Zn  Zn74  1  0.45570563  0.31277607  0.44198334  1
  Zn  Zn75  1  0.00800900  0.17654075  0.81938933  1
  Zn  Zn76  1  0.83154256  0.27332381  0.82993984  1
  Zn  Zn77  1  0.30901921  0.54285373  0.06365696  1
  Zn  Zn78  1  0.36202037  -0.02216611  0.64532041  1
  Zn  Zn79  1  0.06065386  0.36216010  0.55617857  1
  Zn  Zn80  1  0.05504546  0.79376629  0.05663468  1
  Zn  Zn81  1  0.82148963  0.74851448  0.81609463  1
  Zn  Zn82  1  0.94769673  0.20633622  0.45038415  1
  Zn  Zn83  1  0.59700162  0.06288568  0.33158628  1
  Zn  Zn84  1  0.07247896  0.30844683  0.07673897  1
  Zn  Zn85  1  0.72586871  0.17617571  0.67730035  1
  Zn  Zn86  1  0.05579776  0.51281996  0.15523768  1
  Zn  Zn87  1  0.32779805  0.31712738  0.30564456  1
  Zn  Zn88  1  0.96519752  0.95814597  0.70537724  1
  Zn  Zn89  1  0.15687244  0.44841785  0.41965761  1
  Zn  Zn90  1  0.54125883  0.30313235  0.08180226  1
  Zn  Zn91  1  0.05078508  0.84874847  0.59952955  1
  Zn  Zn92  1  0.61363578  0.54860955  0.34180935  1
  Zn  Zn93  1  0.89460421  0.83336591  0.23160057  1
  Zn  Zn94  1  0.80345734  0.27774266  0.28171737  1
  Zn  Zn95  1  0.72356053  1.00344825  0.45508071  1
  Zn  Zn96  1  0.08970805  0.05319569  0.31839584  1
  Zn  Zn97  1  0.75034265  0.66519274  0.63180539  1
  Zn  Zn98  1  0.42501270  0.42638803  0.18684641  1
  Zn  Zn99  1  0.06467768  0.56720068  0.82163295  1
  Zn  Zn100  1  0.18152327  0.16900559  0.75999873  1
  Zn  Zn101  1  0.84545832  0.11578338  0.55097203  1
  O  O102  1  0.11164671  -0.01710855  0.04126673  1
  O  O103  1  0.15489688  0.11027871  0.66991059  1
  O  O104  1  0.11902189  0.57684426  0.08308433  1
  O  O105  1  0.14203189  0.60795283  0.50991916  1
  O  O106  1  0.64683308  0.10458852  0.11531717  1
  O  O107  1  0.64554903  0.11718561  0.59559922  1
  O  O108  1  0.58423372  0.58689670  0.15027332  1
  O  O109  1  0.62966375  0.63174467  0.67455665  1
  O  O110  1  0.39725245  0.38198017  0.36947154  1
  O  O111  1  0.46396478  0.31536877  0.85597693  1
  O  O112  1  0.38119538  0.89295558  0.40558663  1
  O  O113  1  0.32572332  0.92797333  0.87753269  1
  O  O114  1  0.88912849  0.46976639  0.44464923  1
  O  O115  1  0.88204898  0.34901543  0.89914515  1
  O  O116  1  0.90585348  0.91693914  0.41016534  1
  O  O117  1  0.89261219  0.88566570  0.91707690  1
  O  O118  1  0.35408459  -0.05025239  0.44576563  1
  O  O119  1  0.26984981  0.05016056  0.82829645  1
  O  O120  1  0.22734984  0.50263108  0.35686965  1
  O  O121  1  0.26783511  0.51382200  0.86673846  1
  O  O122  1  0.79075989  0.02542930  0.35614611  1
  O  O123  1  0.75194040  0.02508290  0.87481054  1
  O  O124  1  0.72475231  0.51758224  0.32982553  1
  O  O125  1  0.77704040  0.49743337  0.89882215  1
  O  O126  1  0.26635931  0.46445050  0.13112618  1
  O  O127  1  0.23718433  0.54532369  0.62420699  1
  O  O128  1  0.25169953  1.01707357  0.12508632  1
  O  O129  1  0.25148868  1.00053882  0.62460051  1
  O  O130  1  0.72243745  0.48493270  0.15130954  1
  O  O131  1  0.74064849  0.55161199  0.66085669  1
  O  O132  1  0.77592181  1.01908657  0.18219116  1
  O  O133  1  0.67453803  0.93416214  0.66181462  1
  O  O134  1  0.02865814  0.40817996  0.19421421  1
  O  O135  1  0.04416310  0.35567637  0.79431803  1
  O  O136  1  -0.01002528  0.84731704  0.29682569  1
  O  O137  1  0.03590553  0.86382178  0.72516466  1
  O  O138  1  0.49937255  0.36253089  0.24919609  1
  O  O139  1  0.56588203  0.33795646  0.70039716  1
  O  O140  1  0.37674161  0.82935107  0.20700697  1
  O  O141  1  0.40320705  0.79967584  0.79129496  1
  O  O142  1  0.52258842  0.12511513  0.27051379  1
  O  O143  1  0.57375739  0.06271573  0.72822044  1
  O  O144  1  0.46359595  0.63956443  0.23911010  1
  O  O145  1  0.48036022  0.65146802  0.78394019  1
  O  O146  1  1.02801983  0.13497037  0.26805272  1
  O  O147  1  0.97060240  0.13919806  0.71376320  1
  O  O148  1  0.96238403  0.57529442  0.15953598  1
  O  O149  1  1.01021420  0.63884019  0.74843464  1
  O  O150  1  0.37926718  0.21982729  0.01862803  1
  O  O151  1  0.35488894  0.26180714  0.49034035  1
  O  O152  1  0.34928760  0.74076302  0.00705110  1
  O  O153  1  0.34280432  0.73684218  0.44764173  1
  O  O154  1  0.90311630  0.24922240  0.01335744  1
  O  O155  1  0.86664292  0.23146121  0.52385599  1
  O  O156  1  0.84702269  0.78711001  0.01814375  1
  O  O157  1  0.87910296  0.80837523  0.52533158  1
  O  O158  1  0.14907513  0.29438259  0.50822454  1
  O  O159  1  0.18559577  0.20503147  0.98702879  1
  O  O160  1  0.13758877  0.65896330  0.46111613  1
  O  O161  1  0.12993635  0.75354894  0.98306266  1
  O  O162  1  0.66051545  0.24245148  0.49503404  1
  O  O163  1  0.62418361  0.23806553  1.02078549  1
  O  O164  1  0.60068182  0.79862065  0.48291738  1
  O  O165  1  0.63440199  0.76384359  1.00426998  1
  O  O166  1  0.48321463  0.23628692  0.14391265  1
  O  O167  1  0.50993941  0.19103751  0.65805255  1
  O  O168  1  0.48056223  0.71367175  0.12204465  1
  O  O169  1  0.50147029  0.78978946  0.65821980  1
  O  O170  1  1.00327076  0.23887806  0.13444846  1
  O  O171  1  0.98260634  0.29955772  0.58209445  1
  O  O172  1  0.98728016  0.70378317  0.05635604  1
  O  O173  1  1.01659836  0.74215642  0.62449877  1
  O  O174  1  -0.00239729  0.25374639  0.36553220  1
  O  O175  1  0.00860970  0.30494862  0.83315145  1
  O  O176  1  0.00333833  0.76523025  0.43729334  1
  O  O177  1  0.02591062  0.74130483  0.86642257  1
  O  O178  1  0.49339471  0.24714683  0.35971486  1
  O  O179  1  0.48159645  0.24494260  0.85528255  1
  O  O180  1  0.46315375  0.75429264  0.33345074  1
  O  O181  1  0.51765077  0.74767518  0.93056586  1
  O  O182  1  0.23521975  0.19066850  0.53046980  1
  O  O183  1  0.20489751  0.13194975  1.01055723  1
  O  O184  1  0.30538075  0.62642376  0.49657284  1
  O  O185  1  0.24036624  0.60820980  0.98930703  1
  O  O186  1  0.75731391  0.11477720  0.47958449  1
  O  O187  1  0.74019507  0.12117920  1.00160546  1
  O  O188  1  0.68859085  0.67670876  0.53665730  1
  O  O189  1  0.80746413  0.54729227  0.86094082  1
  O  O190  1  0.25904654  0.36138781  0.00749336  1
  O  O191  1  0.24571523  0.38452340  0.46913106  1
  O  O192  1  0.24572334  0.85525896  0.01275446  1
  O  O193  1  0.23422330  0.87598842  0.49759694  1
  O  O194  1  0.72046846  0.35488478  0.00657222  1
  O  O195  1  0.75546129  0.36576245  0.48854857  1
  O  O196  1  0.76638481  0.90112382  -0.00043785  1
  O  O197  1  0.78790031  0.93625474  0.51524750  1
  O  O198  1  0.14481324  0.48572412  0.22553527  1
  O  O199  1  0.11841783  0.47274370  0.77480258  1
  O  O200  1  0.08466627  0.96758385  0.24432123  1
  O  O201  1  0.14194239  0.97707277  0.74753036  1
  O  O202  1  0.61688182  0.46713410  0.24849892  1
  O  O203  1  0.62572491  0.53223971  0.77325014  1
  O  O204  1  0.65992756  0.97939019  0.28392311  1
  O  O205  1  0.69984765  0.96203427  0.72450196  1
  O  O206  1  0.34234248  0.01936208  0.25689084  1
  O  O207  1  0.37982568  0.01448602  0.75616567  1
  O  O208  1  0.35882979  0.48909767  0.26454592  1
  O  O209  1  0.38917916  0.52522565  0.74567303  1
  O  O210  1  0.92557754  0.00903977  0.27912109  1
  O  O211  1  0.90049641  0.01793026  0.77281110  1
  O  O212  1  0.84363384  0.44859333  0.25496216  1
  O  O213  1  0.92780213  0.45657586  0.75627734  1
  O  O214  1  0.10451539  0.39183485  0.33846567  1
  O  O215  1  0.17881023  0.35486134  0.84808306  1
  O  O216  1  0.10059649  0.87924117  0.38817474  1
  O  O217  1  0.13021827  0.85455554  0.85669125  1
  O  O218  1  0.60173335  0.36112129  0.36553218  1
  O  O219  1  0.61514923  0.34588679  0.85713500  1
  O  O220  1  0.54137010  0.88363556  0.36530934  1
  O  O221  1  0.63199485  0.85410523  0.89857541  1
  O  O222  1  0.36285283  0.12762536  0.13628273  1
  O  O223  1  0.45284760  0.04309964  0.62187792  1
  O  O224  1  0.37739278  0.59029375  0.14202548  1
  O  O225  1  0.30259207  0.52235193  0.60733884  1
  O  O226  1  0.88162172  0.14008369  0.12381295  1
  O  O227  1  0.82425457  0.11648403  0.65950335  1
  O  O228  1  0.77724921  0.63664324  0.10287227  1
  O  O229  1  0.86022320  0.69193621  0.60524593  1
  O  O230  1  0.27409273  0.25683333  0.13336340  1
  O  O231  1  0.27721330  0.32287684  0.59107131  1
  O  O232  1  0.22757021  0.73468527  0.11289400  1
  O  O233  1  0.23643699  0.75218916  0.60016793  1
  O  O234  1  0.76129757  0.23825263  0.10903582  1
  O  O235  1  0.76483350  0.26765822  0.61199630  1
  O  O236  1  0.68762805  0.72594519  0.23060062  1
  O  O237  1  0.77154311  0.81482215  0.65370856  1
  O  O238  1  0.25728597  0.26734544  0.39502249  1
  O  O239  1  0.33104274  0.33600197  0.84930536  1
  O  O240  1  0.28695600  0.68809538  0.46114627  1
  O  O241  1  0.24306760  0.74294499  0.89341377  1
  O  O242  1  0.78801092  0.24407031  0.39542289  1
  O  O243  1  0.76128843  0.23077477  0.91921499  1
  O  O244  1  0.81536970  0.64049843  0.40846783  1
  O  O245  1  0.71493768  0.72888769  0.87985039  1
  O  O246  1  0.11285935  0.22595964  -0.00740871  1
  O  O247  1  0.01329897  0.13530850  0.52186949  1
  O  O248  1  0.03472469  0.58144003  -0.06392273  1
  O  O249  1  -0.02793455  0.60403224  0.48201623  1
  O  O250  1  0.52762641  0.11328218  0.00279718  1
  O  O251  1  0.53432726  0.16152853  0.49216547  1
  O  O252  1  0.47727866  0.59618591  0.02297000  1
  O  O253  1  0.52141217  0.66346315  0.49359493  1
  O  O254  1  0.47887116  0.33549285  0.54432773  1
  O  O255  1  0.51193655  0.38101381  0.99980326  1
  O  O256  1  0.50762770  0.94005421  0.33727671  1
  O  O257  1  0.43826128  0.88230208  1.05568834  1
  O  O258  1  1.09189497  0.44862648  0.50501279  1
  O  O259  1  1.00803633  0.36965560  1.00458150  1
  O  O260  1  1.00705503  0.90351254  0.51060562  1
  O  O261  1  0.97294797  0.87747252  1.02242637  1
  O  O262  1  0.51595282  0.50625172  0.36849931  1
  O  O263  1  0.51039700  0.50488104  0.90561251  1
  O  O264  1  0.39247632  1.05185837  0.30707725  1
  O  O265  1  0.45513491  0.96506075  0.86857929  1
  O  O266  1  0.93600074  0.41542454  0.44426708  1
  O  O267  1  0.95309815  0.49313525  0.81262619  1
  O  O268  1  1.01221614  1.02714123  0.40972992  1
  O  O269  1  1.01724367  1.07613330  0.93867441  1
  O  O270  1  0.01992078  0.09624029  0.00705710  1
  O  O271  1  0.03424241  0.01048595  0.62979912  1
  O  O272  1  -0.19717008  0.61178830  0.04088187  1
  O  O273  1  0.00346083  0.54444303  0.62309010  1
  O  O274  1  0.48215943  -0.02524596  0.13565936  1
  O  O275  1  0.51428797  0.01574554  0.57845439  1
  O  O276  1  0.49421767  0.48511914  0.11539405  1
  O  O277  1  0.54009166  0.51774058  0.65478942  1
  O  O278  1  0.24001714  0.37612508  0.25733932  1
  O  O279  1  0.23743354  0.38899046  0.72552996  1
  O  O280  1  0.17922375  0.83187951  0.25760318  1
  O  O281  1  0.23674360  0.83695380  0.74576437  1
  O  O282  1  0.72258943  0.35636443  0.26496119  1
  O  O283  1  0.74481662  0.32956948  0.77182384  1
  O  O284  1  0.79830087  0.88086770  0.26541149  1
  O  O285  1  0.77750910  0.85176009  0.83180988  1
  O  O286  1  0.19211679  0.04097966  0.16052051  1
  O  O287  1  0.27859681  0.20563214  0.78376506  1
  O  O288  1  0.25027408  0.58936059  0.22467984  1
  O  O289  1  0.26837370  0.63665207  0.76963164  1
  O  O290  1  0.76641778  0.16716825  0.26570092  1
  O  O291  1  0.77274009  0.15091866  0.79048334  1
  O  O292  1  0.74638734  0.69656711  0.25898192  1
  O  O293  1  0.76716024  0.68734644  0.74163095  1
  O  O294  1  0.36206805  0.09264714  0.36109452  1
  O  O295  1  0.40866918  0.11140847  0.86540312  1
  O  O296  1  0.38253150  0.59536370  0.35435749  1
  O  O297  1  0.36691962  0.63056252  0.87818324  1
  O  O298  1  0.88452781  0.12413591  0.38868554  1
  O  O299  1  0.90232958  0.17204055  0.84238541  1
  O  O300  1  0.85125353  0.61253888  0.35389577  1
  O  O301  1  0.86956069  0.69106926  0.89622150  1
  O  O302  1  0.15733412  0.35509594  0.12992466  1
  O  O303  1  0.10371146  0.39288830  0.65790777  1
  O  O304  1  0.06195191  0.84622443  0.15170592  1
  O  O305  1  0.15174008  0.88800380  0.63211319  1
  O  O306  1  0.60799479  0.37761344  0.13634369  1
  O  O307  1  0.67136923  0.43284921  0.69222179  1
  O  O308  1  0.49375007  0.92726025  0.07327920  1
  O  O309  1  0.60978732  0.89274965  0.66888459  1
  O  O310  1  0.09915041  0.27304243  0.24825868  1
  O  O311  1  0.14567413  0.27505881  0.72521915  1
  O  O312  1  0.07180930  0.68283423  0.20209760  1
  O  O313  1  0.12086788  0.74301977  0.75561996  1
  O  O314  1  0.60431389  0.25274453  0.24032550  1
  O  O315  1  0.64385724  0.22022703  0.74501960  1
  O  O316  1  0.53276525  0.81535784  0.21701581  1
  O  O317  1  0.58084720  0.76348713  0.80710422  1
  O  O318  1  0.38876035  0.23770482  0.24902600  1
  O  O319  1  0.37203652  0.22896848  0.67023386  1
  O  O320  1  0.32528615  0.70427515  0.25906252  1
  O  O321  1  0.38235110  0.68579301  0.68544601  1
  O  O322  1  0.90627829  0.27101835  0.23743506  1
  O  O323  1  0.88508678  0.27890814  0.71941005  1
  O  O324  1  0.91235144  0.72629093  0.20428302  1
  O  O325  1  0.91097472  0.77119230  0.73815058  1
  O  O326  1  0.40314342  0.49768678  0.47045381  1
  O  O327  1  0.37784298  0.47945235  0.99096881  1
  O  O328  1  0.39842787  0.97947017  0.49830786  1
  O  O329  1  0.34865516  1.04295352  0.95961319  1
  O  O330  1  0.97260252  0.48645869  0.59961872  1
  O  O331  1  0.86581571  0.45449035  1.01259179  1
  O  O332  1  0.91253672  1.02145317  0.52643679  1
  O  O333  1  0.86167923  0.98664670  1.03082285  1
  O  O334  1  0.11293806  -0.03466147  -0.02796524  1
  O  O335  1  0.12851872  0.01943682  0.52730228  1
  O  O336  1  0.15121014  0.47942802  -0.03720785  1
  O  O337  1  0.03272203  0.54222219  0.38300126  1
  O  O338  1  0.63971462  0.00069605  -0.01223188  1
  O  O339  1  0.61886863  0.03950030  0.44678641  1
  O  O340  1  0.62263599  0.48747798  0.02868714  1
  O  O341  1  0.63876016  0.51108455  0.56742318  1
  O  O342  1  0.36922009  0.35045085  0.12793068  1
  O  O343  1  0.39950998  0.36267732  0.70261083  1
  O  O344  1  0.27811242  0.94222746  0.13709330  1
  O  O345  1  0.34117004  0.87200556  0.62182028  1
  O  O346  1  0.87060788  0.34730893  0.10860520  1
  O  O347  1  0.86032165  0.39045565  0.61269515  1
  O  O348  1  0.87552485  0.87610424  0.12068582  1
  O  O349  1  0.90196900  0.89759937  0.63041849  1
  O  O350  1  0.18218981  0.03869758  0.37418434  1
  O  O351  1  0.11126302  0.16566426  0.83905036  1
  O  O352  1  0.00214696  0.60532990  0.40671042  1
  O  O353  1  0.15143758  0.63103122  0.87354228  1
  O  O354  1  0.66603546  0.14971698  0.37280724  1
  O  O355  1  0.63665927  0.13168275  0.89486541  1
  O  O356  1  0.63061939  0.65370252  0.38182979  1
  O  O357  1  0.61776860  0.64651541  0.90349763  1
