# generated using pymatgen
data_V51Zn51O256
_symmetry_space_group_name_H-M   'P 1'
_cell_length_a   17.47198822
_cell_length_b   17.09335554
_cell_length_c   17.24265459
_cell_angle_alpha   90.09844631
_cell_angle_beta   90.30673704
_cell_angle_gamma   91.32691883
_symmetry_Int_Tables_number   1
_chemical_formula_structural   V51Zn51O256
_chemical_formula_sum   'V51 Zn51 O256'
_cell_volume   5148.13996024
_cell_formula_units_Z   1
loop_
 _symmetry_equiv_pos_site_id
 _symmetry_equiv_pos_as_xyz
  1  'x, y, z'
loop_
 _atom_site_type_symbol
 _atom_site_label
 _atom_site_symmetry_multiplicity
 _atom_site_fract_x
 _atom_site_fract_y
 _atom_site_fract_z
 _atom_site_occupancy
  V  V0  1  0.57122220  0.92702735  0.77998764  1
  V  V1  1  0.26615747  0.01270599  0.75413186  1
  V  V2  1  0.61899681  -0.02113107  0.11778669  1
  V  V3  1  0.73807562  0.11397637  0.38084005  1
  V  V4  1  0.67734863  0.02855472  0.63592895  1
  V  V5  1  0.87795352  0.73442865  0.61151123  1
  V  V6  1  -0.01177899  0.75008423  0.28769430  1
  V  V7  1  0.36240963  0.64584050  0.24014551  1
  V  V8  1  0.26230870  0.24939733  -0.00137241  1
  V  V9  1  0.37420159  0.12591531  0.23383276  1
  V  V10  1  0.00198797  0.72620174  0.76065758  1
  V  V11  1  0.11894939  0.85544886  0.32632820  1
  V  V12  1  0.73757373  0.25840013  0.50731295  1
  V  V13  1  0.76862860  0.26228208  0.01308518  1
  V  V14  1  0.88504596  0.00920330  0.39221555  1
  V  V15  1  0.85197029  0.38341772  0.47588779  1
  V  V16  1  0.64230176  0.56720772  0.07439126  1
  V  V17  1  0.22520669  0.51814273  0.70865824  1
  V  V18  1  0.77822891  0.12541421  0.88305256  1
  V  V19  1  0.77219243  0.88180341  0.64465576  1
  V  V20  1  0.49441055  0.38210183  0.33638398  1
  V  V21  1  0.33826029  0.87444236  0.48863326  1
  V  V22  1  0.03191587  0.86696727  0.88732115  1
  V  V23  1  0.86814231  0.86724940  -0.01792549  1
  V  V24  1  0.61227933  0.75801520  0.34833240  1
  V  V25  1  0.49921000  0.23875117  0.19518278  1
  V  V26  1  0.63443973  0.78237626  0.84949883  1
  V  V27  1  0.47881515  0.47302052  0.51455781  1
  V  V28  1  0.36595751  0.62871915  0.71739066  1
  V  V29  1  0.26827902  -0.04884840  0.32387846  1
  V  V30  1  0.33572114  0.73905788  0.58554753  1
  V  V31  1  0.10546489  0.86603104  0.70279445  1
  V  V32  1  0.46038159  0.10906099  0.60857762  1
  V  V33  1  0.03964894  0.36597568  0.90024632  1
  V  V34  1  0.37543813  0.84476852  0.00834622  1
  V  V35  1  0.77931457  0.64009008  0.87257930  1
  V  V36  1  0.88914769  0.59365060  0.24408648  1
  V  V37  1  0.63504987  0.25485908  0.32793522  1
  V  V38  1  0.72133470  0.53765869  0.74743338  1
  V  V39  1  0.00732784  0.24695285  0.26247943  1
  V  V40  1  0.02313698  0.36260675  0.40574521  1
  V  V41  1  0.86892585  0.27740700  0.65086958  1
  V  V42  1  0.51788591  0.65013904  0.59240222  1
  V  V43  1  0.62572329  0.25145684  0.88348671  1
  V  V44  1  0.62841612  0.11383509  0.00527845  1
  V  V45  1  0.32918631  0.24203885  0.59568571  1
  V  V46  1  0.86547122  0.78836304  0.15894664  1
  V  V47  1  0.00948518  0.61596699  0.59961647  1
  V  V48  1  0.87889943  0.87470026  0.50319757  1
  V  V49  1  0.76002336  -0.00116814  0.23305039  1
  V  V50  1  0.68000761  0.42091419  0.24084277  1
  Zn  Zn51  1  -0.06449597  0.53475410  0.42770014  1
  Zn  Zn52  1  0.68740071  0.93190573  0.47318873  1
  Zn  Zn53  1  0.56560970  0.18377271  0.45734519  1
  Zn  Zn54  1  0.55543006  0.60663424  0.76452247  1
  Zn  Zn55  1  0.02305121  0.51765178  0.75253866  1
  Zn  Zn56  1  0.68750780  0.44227387  0.93343826  1
  Zn  Zn57  1  0.59513192  0.09778646  0.78747046  1
  Zn  Zn58  1  0.25110084  0.57751700  0.08788649  1
  Zn  Zn59  1  0.77561875  0.65264170  0.08444607  1
  Zn  Zn60  1  0.39181033  0.15455606  0.43070819  1
  Zn  Zn61  1  0.07900808  0.05374090  0.32260427  1
  Zn  Zn62  1  0.68745656  0.71393218  0.68713200  1
  Zn  Zn63  1  0.08646187  0.32329356  0.08882645  1
  Zn  Zn64  1  0.23410438  0.19500383  0.16473210  1
  Zn  Zn65  1  0.09124216  0.03014149  0.79963365  1
  Zn  Zn66  1  0.81268244  0.03900143  0.02971564  1
  Zn  Zn67  1  0.71841124  0.16367790  0.17533102  1
  Zn  Zn68  1  0.20706758  0.93131438  0.92407842  1
  Zn  Zn69  1  0.94073852  0.91985763  0.71099927  1
  Zn  Zn70  1  0.45451227  0.17702503  0.95080079  1
  Zn  Zn71  1  0.82546138  0.30708044  0.29396090  1
  Zn  Zn72  1  0.32642463  0.05135247  0.03050455  1
  Zn  Zn73  1  0.72106195  0.20711376  0.71205397  1
  Zn  Zn74  1  0.21315053  0.43908580  1.00166046  1
  Zn  Zn75  1  0.39957109  0.42033462  0.67747828  1
  Zn  Zn76  1  0.64992217  0.77142291  0.13406846  1
  Zn  Zn77  1  0.17442376  0.69088512  0.66907357  1
  Zn  Zn78  1  0.18729393  0.94811443  0.58737264  1
  Zn  Zn79  1  0.00556712  0.45249647  0.26312466  1
  Zn  Zn80  1  0.70229431  0.94332726  0.92901485  1
  Zn  Zn81  1  0.94390495  0.20252883  0.96533540  1
  Zn  Zn82  1  0.55935451  0.56195292  0.24846803  1
  Zn  Zn83  1  0.00223558  0.77713746  0.06278112  1
  Zn  Zn84  1  0.16147991  0.70554605  0.19340148  1
  Zn  Zn85  1  0.40951112  0.92512104  0.66971267  1
  Zn  Zn86  1  0.31472457  0.78057248  0.33257162  1
  Zn  Zn87  1  0.19800071  0.14573692  0.70271368  1
  Zn  Zn88  1  0.83355886  0.80529301  0.80482436  1
  Zn  Zn89  1  0.31214197  0.52755437  0.56255816  1
  Zn  Zn90  1  0.04757752  0.80501350  0.51902123  1
  Zn  Zn91  1  -0.02212951  0.39554958  0.60666173  1
  Zn  Zn92  1  0.58621589  0.08278095  0.26995982  1
  Zn  Zn93  1  0.63988669  0.39053494  0.44732925  1
  Zn  Zn94  1  0.85845206  0.51308971  0.61199616  1
  Zn  Zn95  1  0.93922564  0.93162122  0.24825311  1
  Zn  Zn96  1  0.41436574  0.96790151  0.16191319  1
  Zn  Zn97  1  0.79983558  0.82622039  0.32559751  1
  Zn  Zn98  1  0.86225050  0.07153862  0.58610455  1
  Zn  Zn99  1  0.85004225  0.27642173  0.84349438  1
  Zn  Zn100  1  0.91881875  0.19667708  0.43880452  1
  Zn  Zn101  1  0.63047436  0.29982380  0.09413083  1
  O  O102  1  0.13189361  0.12812322  0.14850848  1
  O  O103  1  0.05733507  0.13320487  0.61646312  1
  O  O104  1  0.07317014  0.63188162  0.14489517  1
  O  O105  1  0.10571218  0.62174797  0.60378482  1
  O  O106  1  0.64338435  0.10564473  0.11008042  1
  O  O107  1  0.68269269  0.12666127  0.63385541  1
  O  O108  1  0.66050776  0.67304079  0.07198344  1
  O  O109  1  0.61011334  0.67795021  0.61303699  1
  O  O110  1  0.40470749  0.36870356  0.35704198  1
  O  O111  1  0.44753488  0.48962461  0.81706185  1
  O  O112  1  0.34002174  0.88370522  0.37876102  1
  O  O113  1  0.38744926  0.83048090  0.90916099  1
  O  O114  1  0.86629780  0.37963813  0.37828186  1
  O  O115  1  0.94092204  0.34058286  0.88326930  1
  O  O116  1  0.84884508  0.90015364  0.39815529  1
  O  O117  1  0.90079306  0.85029398  0.88572253  1
  O  O118  1  0.27794852  0.02670894  0.38273358  1
  O  O119  1  0.20071764  -0.00171139  0.83562198  1
  O  O120  1  0.25294811  0.43126842  0.34902481  1
  O  O121  1  0.26731639  0.48028144  0.85484707  1
  O  O122  1  0.72143482  0.01613818  0.39604848  1
  O  O123  1  0.78345574  0.02611611  0.91060990  1
  O  O124  1  0.68212911  0.53208287  0.42511752  1
  O  O125  1  0.73623028  0.53095998  0.85386413  1
  O  O126  1  0.22832065  0.51152523  0.17314069  1
  O  O127  1  0.21711635  0.49253770  0.61356594  1
  O  O128  1  0.14696349  1.05821987  0.13350273  1
  O  O129  1  0.21760931  1.02447221  0.66194968  1
  O  O130  1  0.72676479  0.53935167  0.11357904  1
  O  O131  1  0.77557608  0.48887137  0.68074679  1
  O  O132  1  0.77982765  1.01358567  0.13777825  1
  O  O133  1  0.77520982  0.99890726  0.63226616  1
  O  O134  1  0.04030484  0.34945051  0.29134899  1
  O  O135  1  0.07910171  0.32991422  0.81736548  1
  O  O136  1  0.01768952  0.86737262  0.28744918  1
  O  O137  1  0.01174992  0.84789450  0.77170278  1
  O  O138  1  0.50093334  0.33148215  0.24037336  1
  O  O139  1  0.45154825  0.41778361  0.78584574  1
  O  O140  1  0.47648485  0.95996883  0.31535856  1
  O  O141  1  0.51540895  0.91775329  0.69804159  1
  O  O142  1  0.50527132  0.13723118  0.22158963  1
  O  O143  1  0.53040266  0.10613664  0.67548052  1
  O  O144  1  0.45745665  0.62824369  0.22841691  1
  O  O145  1  0.47333113  0.61653397  0.68321398  1
  O  O146  1  1.05122637  0.15595262  0.28566895  1
  O  O147  1  0.93623471  0.09229131  0.73221744  1
  O  O148  1  0.97795430  0.64376029  0.26650766  1
  O  O149  1  1.00388829  0.62671818  0.72708017  1
  O  O150  1  0.36148281  0.24516027  -0.01812894  1
  O  O151  1  0.34094798  0.22332414  0.49699427  1
  O  O152  1  0.34576856  0.75465480  0.03849608  1
  O  O153  1  0.33009392  0.77249971  0.47706569  1
  O  O154  1  0.86799033  0.26049931  0.01936837  1
  O  O155  1  0.83959286  0.26530984  0.48121106  1
  O  O156  1  0.88336177  0.78251086  0.04780475  1
  O  O157  1  0.86439232  0.76734448  0.51118860  1
  O  O158  1  0.02841944  0.17051651  0.56096810  1
  O  O159  1  0.16279722  0.25723958  1.02838247  1
  O  O160  1  0.13655880  0.66641989  0.41569439  1
  O  O161  1  0.06420980  0.67798484  0.99608397  1
  O  O162  1  0.63898359  0.27069200  0.47237569  1
  O  O163  1  0.64477075  0.23246547  0.99666178  1
  O  O164  1  0.59256144  0.70100489  0.42836569  1
  O  O165  1  0.61462023  0.75592757  0.93713839  1
  O  O166  1  0.52104919  0.25550706  0.10087978  1
  O  O167  1  0.54182021  0.28680106  0.67125521  1
  O  O168  1  0.54350908  0.74620058  0.13096778  1
  O  O169  1  0.46776242  0.72526027  0.56165021  1
  O  O170  1  1.03953939  0.26429890  0.16604742  1
  O  O171  1  0.96275051  0.29826295  0.67448888  1
  O  O172  1  0.97181547  0.76028163  0.16554192  1
  O  O173  1  0.99042915  0.72681393  0.59252125  1
  O  O174  1  -0.00488963  0.25830993  0.38675479  1
  O  O175  1  0.04010062  0.26105562  0.93495985  1
  O  O176  1  -0.01493749  0.74311083  0.38249992  1
  O  O177  1  0.00824500  0.72828532  0.85634934  1
  O  O178  1  0.53837118  0.26152512  0.36546541  1
  O  O179  1  0.52715848  0.23808761  0.89478664  1
  O  O180  1  0.52488494  0.80071767  0.33959417  1
  O  O181  1  0.54336714  0.83240229  0.82047436  1
  O  O182  1  0.19232278  0.21597504  0.40978109  1
  O  O183  1  0.26833830  0.15482894  1.05029999  1
  O  O184  1  0.23413240  0.54929324  0.45057530  1
  O  O185  1  0.21029168  0.67831782  1.09768453  1
  O  O186  1  0.73140036  0.15380531  0.47731315  1
  O  O187  1  0.76546529  0.13999176  1.00510125  1
  O  O188  1  0.70433393  0.57777143  0.47671305  1
  O  O189  1  0.78022678  0.64067943  0.97130146  1
  O  O190  1  0.27009047  0.34656727  -0.03633776  1
  O  O191  1  0.13434469  0.32022517  0.62022368  1
  O  O192  1  0.27511834  0.86189278  -0.02317232  1
  O  O193  1  0.25396531  0.91696949  0.50654387  1
  O  O194  1  0.74786539  0.36017482  -0.00559696  1
  O  O195  1  0.74518318  0.37053994  0.48031507  1
  O  O196  1  0.77120983  0.86597666  -0.02312336  1
  O  O197  1  0.76632195  0.88158544  0.53435257  1
  O  O198  1  0.08791683  0.51619450  0.20800644  1
  O  O199  1  0.13488724  0.50923599  0.74552935  1
  O  O200  1  0.14797857  0.96335188  0.31206900  1
  O  O201  1  0.06486092  0.96138511  0.70714192  1
  O  O202  1  0.66306903  0.51584119  0.26529963  1
  O  O203  1  0.62637155  0.52927898  0.72444233  1
  O  O204  1  0.64905539  1.00383374  0.22125208  1
  O  O205  1  0.64345336  1.00557507  0.73174641  1
  O  O206  1  0.32586282  -0.03521849  0.24597682  1
  O  O207  1  0.34429225  -0.04601363  0.75425389  1
  O  O208  1  0.33461342  0.55990922  0.28196820  1
  O  O209  1  0.34557147  0.52041387  0.68663427  1
  O  O210  1  0.85943791  0.00384018  0.28485881  1
  O  O211  1  0.95910429  0.06498659  0.79633519  1
  O  O212  1  0.91865235  0.50285314  0.21918038  1
  O  O213  1  0.90154782  0.45443911  0.76021993  1
  O  O214  1  0.11027164  0.36359538  0.43976924  1
  O  O215  1  0.13526443  0.40201042  0.92543320  1
  O  O216  1  0.10958237  0.83547719  0.42095013  1
  O  O217  1  0.12904434  0.85194543  0.89268881  1
  O  O218  1  0.63765061  0.36700364  0.32757579  1
  O  O219  1  0.64072063  0.34992488  0.87694752  1
  O  O220  1  0.63954264  0.84628827  0.40221967  1
  O  O221  1  0.66938520  0.88770169  0.83738954  1
  O  O222  1  0.37566666  0.07034735  0.14028527  1
  O  O223  1  0.40041605  0.18632318  0.64407725  1
  O  O224  1  0.34560060  0.62414405  0.14261230  1
  O  O225  1  0.33779263  0.63905003  0.56812476  1
  O  O226  1  0.97024389  0.07436886  0.15161281  1
  O  O227  1  0.86343165  0.18143493  0.61788816  1
  O  O228  1  0.85622999  0.64036409  0.16272657  1
  O  O229  1  0.86964986  0.63502351  0.60916569  1
  O  O230  1  0.27714745  0.28415954  0.10266512  1
  O  O231  1  0.24126043  0.20573179  0.62306798  1
  O  O232  1  0.13400381  0.82157794  0.11561963  1
  O  O233  1  0.24146571  0.75329103  0.60322227  1
  O  O234  1  0.73853371  0.25504943  0.11478811  1
  O  O235  1  0.73185104  0.26638040  0.60403615  1
  O  O236  1  0.76672327  0.76366826  0.14765750  1
  O  O237  1  0.78137207  0.76596002  0.64245255  1
  O  O238  1  0.15914826  0.21638938  0.47204308  1
  O  O239  1  0.22943375  0.20311269  0.91699560  1
  O  O240  1  0.20032493  0.69304094  0.43243897  1
  O  O241  1  0.25978374  0.64158640  0.91703730  1
  O  O242  1  0.73727121  0.24370237  0.34483781  1
  O  O243  1  0.75337105  0.24194941  0.89855525  1
  O  O244  1  0.71825375  0.75120956  0.35704401  1
  O  O245  1  0.74820456  0.74306455  0.84688887  1
  O  O246  1  0.00832917  0.11659730  0.01180758  1
  O  O247  1  -0.02811315  0.12737950  0.51700143  1
  O  O248  1  0.03308828  0.61580820  -0.02498099  1
  O  O249  1  -0.00864741  0.59390398  0.50584271  1
  O  O250  1  0.53244188  0.11306259  0.00113392  1
  O  O251  1  0.48398587  0.13108591  0.50576270  1
  O  O252  1  0.46209242  0.57955979  0.00399090  1
  O  O253  1  0.51706186  0.57069886  0.52026703  1
  O  O254  1  0.53113091  0.41338214  0.44510809  1
  O  O255  1  0.44063040  0.41702077  0.95545382  1
  O  O256  1  0.49930145  0.92301158  0.49457802  1
  O  O257  1  0.47174985  0.82876155  1.01447102  1
  O  O258  1  0.96424828  0.36930227  0.49492194  1
  O  O259  1  1.02773621  0.38347307  1.00567455  1
  O  O260  1  0.97358261  0.87941297  0.48339041  1
  O  O261  1  1.00932409  0.85408310  0.98699585  1
  O  O262  1  0.50539610  0.47775769  0.30350537  1
  O  O263  1  0.51370546  0.52138611  0.84087165  1
  O  O264  1  0.53231595  0.99575226  0.34513695  1
  O  O265  1  0.53649402  1.00106723  0.83502730  1
  O  O266  1  1.00494207  0.46711139  0.37642859  1
  O  O267  1  1.01609477  0.45661410  0.86407431  1
  O  O268  1  0.98019912  1.01674740  0.37580983  1
  O  O269  1  1.03247335  0.96594474  0.87605390  1
  O  O270  1  0.00458513  0.01893440  0.18225449  1
  O  O271  1  -0.07047948  0.03391917  0.67359130  1
  O  O272  1  0.05969104  0.55640791  0.14715461  1
  O  O273  1  -0.02373616  0.50783897  0.63862176  1
  O  O274  1  0.52374219  -0.02715086  0.13681204  1
  O  O275  1  0.40786860  0.02518018  0.60707254  1
  O  O276  1  0.56671190  0.55489396  0.13791117  1
  O  O277  1  0.48546430  0.43594831  0.60546294  1
  O  O278  1  0.26242716  0.30207400  0.28263095  1
  O  O279  1  0.26685684  0.44100872  0.79146931  1
  O  O280  1  0.22044414  0.83936781  0.30836860  1
  O  O281  1  0.19497640  0.87923662  0.73048316  1
  O  O282  1  0.77323494  0.39211439  0.24347771  1
  O  O283  1  0.85516841  0.44277158  0.81383007  1
  O  O284  1  0.75139759  0.90300961  0.25878193  1
  O  O285  1  0.82707315  0.89534818  0.73549245  1
  O  O286  1  0.27647762  0.13386670  0.24320940  1
  O  O287  1  0.29287839  0.10883417  0.76626839  1
  O  O288  1  0.25613159  0.67291781  0.24996950  1
  O  O289  1  0.24953198  0.62170293  0.71963142  1
  O  O290  1  0.74839322  0.10698032  0.26978649  1
  O  O291  1  0.76283388  0.12323967  0.78623258  1
  O  O292  1  0.80624601  0.57046488  0.31269547  1
  O  O293  1  0.75024600  0.63394317  0.74218496  1
  O  O294  1  0.40270190  0.11445608  0.33140705  1
  O  O295  1  0.37519577  0.10135526  0.94309745  1
  O  O296  1  0.37699841  0.68280189  0.34588022  1
  O  O297  1  0.38103956  0.62707908  0.80998696  1
  O  O298  1  0.84863927  0.11190896  0.39339252  1
  O  O299  1  0.87786543  0.16533699  0.88326116  1
  O  O300  1  0.86653331  0.60385238  0.35647287  1
  O  O301  1  0.86914022  0.63387652  0.84956923  1
  O  O302  1  0.16974192  0.39680767  0.09700593  1
  O  O303  1  0.10110879  0.38350492  0.62331728  1
  O  O304  1  0.16358997  0.88694109  0.13154641  1
  O  O305  1  0.11054208  0.86125246  0.59791207  1
  O  O306  1  0.63551890  0.39334335  0.15560430  1
  O  O307  1  0.64465550  0.39633106  0.62987240  1
  O  O308  1  0.64885955  0.88537426  0.11202724  1
  O  O309  1  0.68164555  0.86937640  0.67148382  1
  O  O310  1  0.20109569  0.28621074  0.24808200  1
  O  O311  1  0.11206442  0.13427674  0.76585190  1
  O  O312  1  0.10083023  0.75532591  0.27108318  1
  O  O313  1  0.09872096  0.75267181  0.72065971  1
  O  O314  1  0.62232078  0.23453146  0.23086341  1
  O  O315  1  0.63222977  0.21186905  0.78451219  1
  O  O316  1  0.63459558  0.78871568  0.25029856  1
  O  O317  1  0.61307916  0.70394187  0.77902652  1
  O  O318  1  0.39481255  0.22392321  0.20007325  1
  O  O319  1  0.50094550  0.28452791  0.72853468  1
  O  O320  1  0.36711464  0.75702892  0.23058016  1
  O  O321  1  0.36697186  0.72926959  0.68947829  1
  O  O322  1  0.90826563  0.24469426  0.25534853  1
  O  O323  1  0.81441643  0.28000623  0.73845175  1
  O  O324  1  0.87890565  0.77154879  0.27049822  1
  O  O325  1  0.90636254  0.74934334  0.72251160  1
  O  O326  1  0.38385334  0.47994326  0.49390648  1
  O  O327  1  0.30437708  0.49908513  1.02801816  1
  O  O328  1  0.43672703  0.94662280  0.46884686  1
  O  O329  1  0.38806765  0.95888975  1.00848118  1
  O  O330  1  0.85691092  0.48690811  0.49789543  1
  O  O331  1  0.85353868  0.44747502  1.07089581  1
  O  O332  1  0.87425873  0.99960323  0.49798328  1
  O  O333  1  0.89055011  0.96054056  1.01590766  1
  O  O334  1  0.22889502  0.00400494  0.00675349  1
  O  O335  1  0.10395051  0.01910950  0.50912789  1
  O  O336  1  0.17154223  0.53998379  0.01553911  1
  O  O337  1  0.16575413  0.53539390  0.43865382  1
  O  O338  1  0.64432310  0.00221308  0.00976114  1
  O  O339  1  0.63467404  -0.00656594  0.55091948  1
  O  O340  1  0.62652708  0.51495009  -0.01238793  1
  O  O341  1  0.64604993  0.44656599  0.57903940  1
  O  O342  1  0.46523798  0.41150597  0.02192895  1
  O  O343  1  0.34114324  0.33739514  0.62752967  1
  O  O344  1  0.36437517  0.87939075  0.10930923  1
  O  O345  1  0.37543415  0.85365348  0.58647438  1
  O  O346  1  0.87337133  0.39402991  0.11250922  1
  O  O347  1  0.85682467  0.36776920  0.59536371  1
  O  O348  1  0.87593585  0.88689177  0.16453008  1
  O  O349  1  0.89355903  0.87180491  0.61105134  1
  O  O350  1  0.12989164  0.06596453  0.45979354  1
  O  O351  1  0.06185872  0.08860668  0.97249606  1
  O  O352  1  0.19100552  0.44834009  0.32184770  1
  O  O353  1  0.19899480  0.66840136  0.89460848  1
  O  O354  1  0.62852095  0.14109356  0.36344976  1
  O  O355  1  0.65572136  0.12110298  0.89986923  1
  O  O356  1  0.59502759  0.66486101  0.30114928  1
  O  O357  1  0.48134094  0.62681849  0.95392672  1
