# generated using pymatgen
data_V51Zn51O256
_symmetry_space_group_name_H-M   'P 1'
_cell_length_a   17.54818868
_cell_length_b   17.69558308
_cell_length_c   17.47918780
_cell_angle_alpha   90.07622512
_cell_angle_beta   91.75348736
_cell_angle_gamma   91.49353605
_symmetry_Int_Tables_number   1
_chemical_formula_structural   V51Zn51O256
_chemical_formula_sum   'V51 Zn51 O256'
_cell_volume   5423.33528630
_cell_formula_units_Z   1
loop_
 _symmetry_equiv_pos_site_id
 _symmetry_equiv_pos_as_xyz
  1  'x, y, z'
loop_
 _atom_site_type_symbol
 _atom_site_label
 _atom_site_symmetry_multiplicity
 _atom_site_fract_x
 _atom_site_fract_y
 _atom_site_fract_z
 _atom_site_occupancy
  V  V0  1  0.75507881  0.64718119  0.40308187  1
  V  V1  1  0.24191691  0.03685698  0.74788921  1
  V  V2  1  0.15793426  0.24103334  0.34690480  1
  V  V3  1  0.01826712  0.36005899  0.35485065  1
  V  V4  1  0.58716990  0.64165252  0.50619193  1
  V  V5  1  0.62407812  0.79422864  0.39668110  1
  V  V6  1  0.44057830  0.55215975  0.87969698  1
  V  V7  1  0.78387546  0.54326745  0.74371534  1
  V  V8  1  0.27838502  0.40232943  0.58137695  1
  V  V9  1  -0.00975787  0.61997489  0.14292665  1
  V  V10  1  0.66579976  0.02766705  0.07113231  1
  V  V11  1  0.44835402  0.70700271  0.75187518  1
  V  V12  1  0.09444617  0.48639212  0.60831935  1
  V  V13  1  0.02569828  0.66028544  0.69080470  1
  V  V14  1  0.73067545  0.00275858  0.69153181  1
  V  V15  1  -0.00797347  0.09889941  0.15340265  1
  V  V16  1  0.35563058  -0.02044628  0.37818309  1
  V  V17  1  0.44839696  0.01347074  0.89740156  1
  V  V18  1  0.58078963  0.51533667  0.64280457  1
  V  V19  1  0.59918478  0.37855951  0.74654058  1
  V  V20  1  0.33489406  0.17711801  0.04623124  1
  V  V21  1  0.00726429  0.00525093  0.51278804  1
  V  V22  1  0.82672744  0.04375160  0.87749112  1
  V  V23  1  0.44057981  0.48487185  0.36112152  1
  V  V24  1  0.29034407  0.39859294  0.09910673  1
  V  V25  1  0.55848768  0.88619028  0.23758583  1
  V  V26  1  0.76246551  0.00724826  0.32462040  1
  V  V27  1  0.01228164  0.17349192  0.61661326  1
  V  V28  1  0.47964484  -0.03751431  0.53544069  1
  V  V29  1  0.48221916  0.36505388  0.87447380  1
  V  V30  1  0.21789847  0.62108407  0.35691173  1
  V  V31  1  0.83159027  0.13975389  0.68965599  1
  V  V32  1  0.11995494  -0.01758322  0.63496177  1
  V  V33  1  0.87422615  0.88281554  0.52268730  1
  V  V34  1  0.09026560  0.86989298  0.27050981  1
  V  V35  1  0.39227687  0.23925249  0.59591461  1
  V  V36  1  0.73919079  0.38549415  0.63326974  1
  V  V37  1  -0.01862020  0.96513347  0.84903711  1
  V  V38  1  0.87311214  0.77021850  0.66079685  1
  V  V39  1  0.57997515  0.17121103  0.46679512  1
  V  V40  1  0.65399680  0.78133353  0.86245265  1
  V  V41  1  0.43072523  0.21139837  0.21307531  1
  V  V42  1  0.60876297  0.87302865  0.72297540  1
  V  V43  1  0.49314230  0.23440625  0.74521029  1
  V  V44  1  0.25222414  0.21425926  0.49793109  1
  V  V45  1  0.14607290  0.35980345  0.21083639  1
  V  V46  1  0.18543768  0.39140087  0.74095708  1
  V  V47  1  -0.01445080  0.34763802  0.85314852  1
  V  V48  1  0.25761364  0.10349080  0.34149250  1
  V  V49  1  0.31349832  0.86631971  0.52071095  1
  V  V50  1  0.32113808  0.73460355  0.62100323  1
  Zn  Zn51  1  0.15477096  0.70576488  0.21932792  1
  Zn  Zn52  1  0.62271649  0.54231294  0.34353635  1
  Zn  Zn53  1  0.68818479  0.70022551  0.67619234  1
  Zn  Zn54  1  0.29344344  0.42113047  0.90918483  1
  Zn  Zn55  1  0.59419159  0.86243023  0.04149003  1
  Zn  Zn56  1  0.90459463  0.73204646  0.45640418  1
  Zn  Zn57  1  0.92457698  0.96951661  0.67994434  1
  Zn  Zn58  1  0.19166036  0.16431882  0.17805140  1
  Zn  Zn59  1  0.40343555  0.56160912  0.55001286  1
  Zn  Zn60  1  0.09893606  0.32495353  0.53043981  1
  Zn  Zn61  1  0.89608164  0.92477922  0.22210978  1
  Zn  Zn62  1  0.79538509  0.83139290  0.34871465  1
  Zn  Zn63  1  0.55526511  0.01392297  0.39473860  1
  Zn  Zn64  1  0.14163121  0.92762113  0.83344967  1
  Zn  Zn65  1  0.81266973  0.86245349  0.81245709  1
  Zn  Zn66  1  0.06989727  0.52572955  0.27795265  1
  Zn  Zn67  1  -0.02171903  0.82008838  0.10815706  1
  Zn  Zn68  1  0.31258089  0.33679681  0.29158388  1
  Zn  Zn69  1  0.68037649  0.20795915  0.68594875  1
  Zn  Zn70  1  0.80882532  0.07528038  0.06704372  1
  Zn  Zn71  1  0.69841801  0.42445366  0.86374057  1
  Zn  Zn72  1  0.05328603  0.51881812  0.78084702  1
  Zn  Zn73  1  0.18684674  0.41926142  0.41215484  1
  Zn  Zn74  1  0.58698682  0.60386589  0.79318614  1
  Zn  Zn75  1  0.37760852  0.35814628  0.72891268  1
  Zn  Zn76  1  0.46024857  0.29885363  0.06437032  1
  Zn  Zn77  1  0.30351242  0.90866817  0.82389635  1
  Zn  Zn78  1  0.19251147  0.20802404  0.68594507  1
  Zn  Zn79  1  0.54190051  0.78162338  0.58115578  1
  Zn  Zn80  1  0.66828527  0.91610802  0.53897542  1
  Zn  Zn81  1  0.92972943  0.43835535  0.68532319  1
  Zn  Zn82  1  0.52636126  0.71004237  0.92918414  1
  Zn  Zn83  1  0.49436308  0.09469198  0.07486120  1
  Zn  Zn84  1  0.80246348  0.05727184  0.51944902  1
  Zn  Zn85  1  0.79042342  0.61614348  0.10036197  1
  Zn  Zn86  1  0.73240948  0.53014706  0.55046189  1
  Zn  Zn87  1  0.17563190  0.80374552  0.70038611  1
  Zn  Zn88  1  0.41171427  0.19103644  0.91073962  1
  Zn  Zn89  1  0.53301789  0.03613275  0.72704445  1
  Zn  Zn90  1  0.06617025  0.06244039  0.33691095  1
  Zn  Zn91  1  0.39090256  0.93363734  0.66669231  1
  Zn  Zn92  1  0.40304763  0.19588110  0.40082747  1
  Zn  Zn93  1  0.03158598  0.82105804  0.58718229  1
  Zn  Zn94  1  0.81767517  0.32138818  0.77462107  1
  Zn  Zn95  1  0.58899289  0.31062361  0.56710090  1
  Zn  Zn96  1  0.60549168  0.07188168  0.24268711  1
  Zn  Zn97  1  0.63031095  0.97813511  0.88651419  1
  Zn  Zn98  1  0.96440522  0.15858878  0.80896430  1
  Zn  Zn99  1  0.12957142  0.36002994  0.00119240  1
  Zn  Zn100  1  0.30490468  0.05845912  0.57212705  1
  Zn  Zn101  1  0.96778395  0.41839374  0.21099044  1
  O  O102  1  0.09435281  0.10063375  0.16218570  1
  O  O103  1  0.09868390  0.14999198  0.65559413  1
  O  O104  1  0.09290697  0.65664302  0.13957479  1
  O  O105  1  0.05832958  0.58665771  0.63504304  1
  O  O106  1  0.70527388  0.10597620  0.02853006  1
  O  O107  1  0.60800030  0.15551571  0.58205910  1
  O  O108  1  0.69473797  0.56426126  0.12397952  1
  O  O109  1  0.60534222  0.60421193  0.68593118  1
  O  O110  1  0.38855875  0.40281028  0.33589305  1
  O  O111  1  0.38262521  0.36893018  0.85346841  1
  O  O112  1  0.33553304  0.88735779  0.41996858  1
  O  O113  1  0.39373152  0.93054938  0.88225512  1
  O  O114  1  0.93235812  0.33134402  0.37403471  1
  O  O115  1  0.88607090  0.34662244  0.85971744  1
  O  O116  1  0.87927770  0.83894076  0.42734187  1
  O  O117  1  0.87521905  0.94980311  0.86575475  1
  O  O118  1  0.25004539  0.00799545  0.37243125  1
  O  O119  1  0.23212910  0.00409799  0.84377959  1
  O  O120  1  0.21932891  0.52242165  0.37685823  1
  O  O121  1  0.29546251  0.56344994  0.72941476  1
  O  O122  1  0.76584886  0.03969516  0.41877512  1
  O  O123  1  0.73116979  0.02467991  0.86575320  1
  O  O124  1  0.73728506  0.37939352  0.32871516  1
  O  O125  1  0.75402750  0.50929775  0.83305267  1
  O  O126  1  0.29799903  0.48883072  0.11678525  1
  O  O127  1  0.31144751  0.49176883  0.57986994  1
  O  O128  1  0.21077223  0.99698090  0.07613294  1
  O  O129  1  0.22099772  1.02172556  0.63674947  1
  O  O130  1  0.80349042  0.45905896  0.18502932  1
  O  O131  1  0.73083134  0.49792696  0.66445503  1
  O  O132  1  0.74527674  0.99567476  0.11921200  1
  O  O133  1  0.72752234  0.99846517  0.59263632  1
  O  O134  1  0.04173978  0.34237921  0.24524776  1
  O  O135  1  0.00093354  0.42068895  0.78200441  1
  O  O136  1  -0.01078390  0.88224568  0.27805795  1
  O  O137  1  -0.01310354  0.92418854  0.76257586  1
  O  O138  1  0.49097845  0.27431157  0.17069100  1
  O  O139  1  0.49218131  0.36026264  0.75246083  1
  O  O140  1  0.46936601  0.86854950  0.21572898  1
  O  O141  1  0.51508705  0.87527807  0.72425443  1
  O  O142  1  0.44835966  0.10730561  0.18947675  1
  O  O143  1  0.50842574  0.14235755  0.73301313  1
  O  O144  1  0.61177353  0.55346306  0.21959340  1
  O  O145  1  0.46583219  0.60608798  0.79125443  1
  O  O146  1  0.99907692  0.10342179  0.25703077  1
  O  O147  1  0.93788355  0.16221221  0.69338020  1
  O  O148  1  1.00745735  0.61558435  0.24889853  1
  O  O149  1  1.03923956  0.62425912  0.78289279  1
  O  O150  1  0.31917087  0.22372337  -0.04032267  1
  O  O151  1  0.35510091  0.24576664  0.49165905  1
  O  O152  1  0.43971132  0.73964825  0.00414403  1
  O  O153  1  0.32841631  0.76480613  0.51914248  1
  O  O154  1  0.86861349  0.24469158  0.00248422  1
  O  O155  1  0.85768780  0.28699848  0.51217910  1
  O  O156  1  0.80278227  0.70718597  0.02241149  1
  O  O157  1  0.92387901  0.77550813  0.55546791  1
  O  O158  1  0.16409709  0.25326761  0.46635459  1
  O  O159  1  0.12000969  0.23567382  1.00175392  1
  O  O160  1  0.07370294  0.74068478  0.49980477  1
  O  O161  1  0.22324034  0.83400253  1.02647774  1
  O  O162  1  0.60025201  0.26759674  0.46503653  1
  O  O163  1  0.69967089  0.26686385  1.13922524  1
  O  O164  1  0.62996390  0.70162470  0.57648757  1
  O  O165  1  0.60690339  0.79077177  0.95795221  1
  O  O166  1  0.44620132  0.18875328  0.03189192  1
  O  O167  1  0.48902200  0.26023240  0.59962428  1
  O  O168  1  0.36347322  0.72768752  0.14227924  1
  O  O169  1  0.49683892  0.72661856  0.67097193  1
  O  O170  1  0.98326519  0.19534842  0.14482969  1
  O  O171  1  1.02438804  0.26377563  0.58236429  1
  O  O172  1  0.96749057  0.71569619  0.13227035  1
  O  O173  1  1.07132088  0.74841655  0.67375369  1
  O  O174  1  0.06363284  0.25699226  0.35918266  1
  O  O175  1  0.00580271  0.25806835  0.82328621  1
  O  O176  1  0.02636536  0.71013584  0.45247855  1
  O  O177  1  0.07384474  0.75983322  0.98563170  1
  O  O178  1  0.39522533  0.24663500  0.29918438  1
  O  O179  1  0.48323140  0.24992008  0.84709710  1
  O  O180  1  0.56140965  0.75230548  0.45935159  1
  O  O181  1  0.47965483  0.75624665  0.83035147  1
  O  O182  1  0.24522604  0.11851479  0.49796483  1
  O  O183  1  0.16687945  0.18279722  1.01529489  1
  O  O184  1  0.21303059  0.65478499  0.44699795  1
  O  O185  1  0.23534293  0.60967976  1.02795198  1
  O  O186  1  0.65847009  0.12714179  0.53115950  1
  O  O187  1  0.82306813  0.24245163  1.05488600  1
  O  O188  1  0.76711781  0.61462670  0.49629123  1
  O  O189  1  0.81040690  0.52956335  1.01064611  1
  O  O190  1  0.23860219  0.38959505  0.00314229  1
  O  O191  1  0.25975426  0.38121153  0.48693204  1
  O  O192  1  0.28807059  0.84361705  0.05271871  1
  O  O193  1  0.22193197  0.87424463  0.52095193  1
  O  O194  1  0.74111814  0.33901582  -0.05966501  1
  O  O195  1  0.74985230  0.42175419  0.54376705  1
  O  O196  1  0.78132126  0.75848206  0.07463832  1
  O  O197  1  0.77871428  0.87682997  0.52631472  1
  O  O198  1  0.14270054  0.45384375  0.23945793  1
  O  O199  1  0.13410202  0.48047762  0.71648954  1
  O  O200  1  0.09418092  0.96894056  0.28217246  1
  O  O201  1  0.13574955  1.00312322  0.73826643  1
  O  O202  1  0.68922476  0.40991116  0.28763120  1
  O  O203  1  0.59036838  0.48060181  0.75027417  1
  O  O204  1  0.56512483  0.97577639  0.28935260  1
  O  O205  1  0.62862107  0.98178932  0.71598957  1
  O  O206  1  0.37543684  -0.04067277  0.29155252  1
  O  O207  1  0.33009989  -0.01176973  0.73626415  1
  O  O208  1  0.42229770  0.54948568  0.29251598  1
  O  O209  1  0.35206830  0.52485847  0.72950350  1
  O  O210  1  0.85401450  -0.00200379  0.28904609  1
  O  O211  1  0.83917633  0.03337699  0.70222614  1
  O  O212  1  0.85209194  0.43562857  0.23306305  1
  O  O213  1  0.87902110  0.52603821  0.72931003  1
  O  O214  1  0.20213676  0.34201196  0.33197801  1
  O  O215  1  0.20693673  0.40754459  0.83569698  1
  O  O216  1  0.11075360  0.85055295  0.36392090  1
  O  O217  1  0.05672810  0.92729781  0.90093377  1
  O  O218  1  0.68209410  0.27110794  0.32009678  1
  O  O219  1  0.59810248  0.37035650  0.85157015  1
  O  O220  1  0.63922274  0.88087640  0.43513291  1
  O  O221  1  0.62725901  0.87849928  0.83541685  1
  O  O222  1  0.32760210  0.08563811  0.03664946  1
  O  O223  1  0.37710290  0.14350475  0.60316798  1
  O  O224  1  0.40715091  0.59300591  0.09943195  1
  O  O225  1  0.35683970  0.64658524  0.60347180  1
  O  O226  1  0.89011903  0.10372466  0.13763256  1
  O  O227  1  0.81902896  0.14142637  0.59310149  1
  O  O228  1  0.89222200  0.60211568  0.14098018  1
  O  O229  1  0.92956386  0.68018903  0.67051924  1
  O  O230  1  0.22491945  0.19953109  0.07823598  1
  O  O231  1  0.25367989  0.23914265  0.59656353  1
  O  O232  1  0.21541585  0.75533587  0.15368648  1
  O  O233  1  0.22613776  0.72803085  0.63731951  1
  O  O234  1  0.74027826  0.32130424  0.15797637  1
  O  O235  1  0.70070375  0.29453029  0.61160592  1
  O  O236  1  0.76134242  0.72716535  0.13995284  1
  O  O237  1  0.78343573  0.74847533  0.63313083  1
  O  O238  1  0.26365770  0.20787699  0.37703270  1
  O  O239  1  0.17914800  0.19771275  0.86182718  1
  O  O240  1  0.21537237  0.71989407  0.32769966  1
  O  O241  1  0.26157699  0.67402895  1.03541366  1
  O  O242  1  0.79830405  0.27701751  0.46841648  1
  O  O243  1  0.74329013  0.27593395  0.90630621  1
  O  O244  1  0.71769073  0.75027396  0.38781392  1
  O  O245  1  0.74911751  0.79389072  0.87592865  1
  O  O246  1  0.01257249  0.07484736  0.06125723  1
  O  O247  1  -0.01231205  0.11280540  0.54208595  1
  O  O248  1  0.00814429  0.59152530  0.05314365  1
  O  O249  1  -0.06427767  0.57083629  0.50158830  1
  O  O250  1  0.63742531  0.27682104  0.00167139  1
  O  O251  1  0.48310156  0.15999293  0.47102565  1
  O  O252  1  0.46116892  0.58390852  0.14373950  1
  O  O253  1  0.49376317  0.62967329  0.51677087  1
  O  O254  1  0.62810176  0.29275643  0.28085652  1
  O  O255  1  0.49336561  0.34301271  0.96780598  1
  O  O256  1  0.47879758  0.86700392  0.54072517  1
  O  O257  1  0.47445081  0.84959028  1.06016395  1
  O  O258  1  1.07942243  0.38816147  0.43614039  1
  O  O259  1  1.04014917  0.36851449  0.93579197  1
  O  O260  1  0.99955787  0.90295812  0.51556447  1
  O  O261  1  1.02285655  0.80590567  1.00233508  1
  O  O262  1  0.54012873  0.47689135  0.36362106  1
  O  O263  1  0.49564411  0.47073154  0.87963269  1
  O  O264  1  0.44969412  0.99263757  0.43452189  1
  O  O265  1  0.53426222  1.01556762  0.84099796  1
  O  O266  1  0.99582257  0.45703278  0.31787698  1
  O  O267  1  1.03365115  0.56078422  0.93677239  1
  O  O268  1  1.00664136  1.02805388  0.41758585  1
  O  O269  1  0.99714992  1.06088724  0.84309525  1
  O  O270  1  -0.03371891  -0.00006710  0.17480197  1
  O  O271  1  0.01945515  0.00481888  0.63475489  1
  O  O272  1  0.00931999  0.51671090  0.16485312  1
  O  O273  1  0.00537776  0.44156934  0.60622001  1
  O  O274  1  0.58966466  0.06417360  0.12861476  1
  O  O275  1  0.47874241  -0.00225843  0.63333965  1
  O  O276  1  0.67269208  0.58961460  0.19583465  1
  O  O277  1  0.48731220  0.51223558  0.62483227  1
  O  O278  1  0.25641753  0.35426637  0.18932408  1
  O  O279  1  0.27737923  0.39546086  0.70302023  1
  O  O280  1  0.18237280  0.87961603  0.23828226  1
  O  O281  1  0.21060233  0.85283605  0.79407912  1
  O  O282  1  0.82273130  0.21895420  0.26906372  1
  O  O283  1  0.70571407  0.36845827  0.75267806  1
  O  O284  1  0.72784100  0.91430499  0.31952058  1
  O  O285  1  0.75210921  0.91623356  0.73406168  1
  O  O286  1  0.25555313  0.10331626  0.24370429  1
  O  O287  1  0.25080841  0.13311188  0.74610419  1
  O  O288  1  0.20684467  0.60997515  0.24788479  1
  O  O289  1  0.28332131  0.75019932  0.91210782  1
  O  O290  1  0.71254531  0.06965990  0.26585136  1
  O  O291  1  0.72156495  0.10482228  0.70986236  1
  O  O292  1  0.73394791  0.57449301  0.34034690  1
  O  O293  1  0.76106646  0.63539035  0.73688429  1
  O  O294  1  0.35869551  0.09555069  0.36918322  1
  O  O295  1  0.39954844  0.09154638  0.86897879  1
  O  O296  1  0.31514307  0.61571066  0.35218921  1
  O  O297  1  0.47939496  0.60891532  0.94970320  1
  O  O298  1  0.79024098  0.21488784  0.43027657  1
  O  O299  1  0.85481993  0.12272263  0.82331758  1
  O  O300  1  0.84830857  0.67409070  0.38300497  1
  O  O301  1  0.86670417  0.53681594  0.96849017  1
  O  O302  1  0.12198447  0.36187602  0.11525749  1
  O  O303  1  0.16448783  0.39763329  0.60390453  1
  O  O304  1  0.06519585  0.85998288  0.16348895  1
  O  O305  1  0.12005055  0.88422251  0.63417514  1
  O  O306  1  0.68177627  0.42074732  0.05783836  1
  O  O307  1  0.60912930  0.40497657  0.63343876  1
  O  O308  1  0.60591034  0.88334568  0.15069428  1
  O  O309  1  0.62437511  0.85578630  0.62292612  1
  O  O310  1  0.15678912  0.24505883  0.24072820  1
  O  O311  1  0.15192305  0.29978494  0.73321857  1
  O  O312  1  0.07791158  0.76469005  0.26582241  1
  O  O313  1  0.17188747  0.69434069  0.88127876  1
  O  O314  1  0.50410357  0.13623787  0.24734029  1
  O  O315  1  0.59236337  0.26799336  0.72268547  1
  O  O316  1  0.58329646  0.80761847  0.30449466  1
  O  O317  1  0.64524183  0.77548364  0.75026988  1
  O  O318  1  0.34960036  0.21058832  0.14965580  1
  O  O319  1  0.39539248  0.24672435  0.71155177  1
  O  O320  1  0.38343100  0.72874345  0.21000308  1
  O  O321  1  0.35520938  0.73020107  0.73120020  1
  O  O322  1  0.84717122  0.27673895  0.23831141  1
  O  O323  1  0.79526081  0.22591199  0.72461250  1
  O  O324  1  0.84844213  0.83344823  0.25467322  1
  O  O325  1  0.87385292  0.79315453  0.75625681  1
  O  O326  1  0.40776195  0.51789130  0.44798796  1
  O  O327  1  0.34948968  0.52263356  0.89791776  1
  O  O328  1  0.35968171  0.96669256  0.54750246  1
  O  O329  1  0.47721791  1.02313255  0.99212291  1
  O  O330  1  0.93177344  0.51887551  0.45497338  1
  O  O331  1  0.86940786  0.39499990  1.07325771  1
  O  O332  1  0.89079926  0.98657545  0.52581355  1
  O  O333  1  0.85137389  1.06532319  0.96942172  1
  O  O334  1  0.16416139  -0.02879040  0.02783659  1
  O  O335  1  0.10950725  0.01007943  0.53276315  1
  O  O336  1  0.07717315  0.52671567  -0.02034513  1
  O  O337  1  0.12049687  0.51370126  0.52342505  1
  O  O338  1  0.63268460  -0.03924385  -0.00154777  1
  O  O339  1  0.57332146  -0.01216563  0.51116793  1
  O  O340  1  0.66640599  0.46223174  0.00299899  1
  O  O341  1  0.61869079  0.54521905  0.54866577  1
  O  O342  1  0.38055606  0.36883330  0.08261975  1
  O  O343  1  0.36321686  0.34696824  0.60365989  1
  O  O344  1  0.42930418  0.81343853  0.01029862  1
  O  O345  1  0.33992589  0.84246180  0.63163825  1
  O  O346  1  0.92779752  0.37242834  0.10925182  1
  O  O347  1  0.83405028  0.37505466  0.67161535  1
  O  O348  1  0.89834755  0.88198132  0.11812273  1
  O  O349  1  0.88994691  0.87410303  0.63345415  1
  O  O350  1  0.15011066  0.13111103  0.35006967  1
  O  O351  1  0.13750616  0.14172778  0.86761018  1
  O  O352  1  0.11505721  0.59916703  0.35355093  1
  O  O353  1  0.24471240  0.69856982  0.87506973  1
  O  O354  1  0.59877016  0.11901818  0.38389229  1
  O  O355  1  0.64961821  0.22684235  0.95553573  1
  O  O356  1  0.62691727  0.63064996  0.41479018  1
  O  O357  1  0.62102082  0.67994362  0.86385865  1
