# generated using pymatgen
data_V51Zn51O256
_symmetry_space_group_name_H-M   'P 1'
_cell_length_a   17.55608689
_cell_length_b   17.51569113
_cell_length_c   16.97767604
_cell_angle_alpha   90.44699876
_cell_angle_beta   89.64445970
_cell_angle_gamma   90.30542409
_symmetry_Int_Tables_number   1
_chemical_formula_structural   V51Zn51O256
_chemical_formula_sum   'V51 Zn51 O256'
_cell_volume   5220.42191593
_cell_formula_units_Z   1
loop_
 _symmetry_equiv_pos_site_id
 _symmetry_equiv_pos_as_xyz
  1  'x, y, z'
loop_
 _atom_site_type_symbol
 _atom_site_label
 _atom_site_symmetry_multiplicity
 _atom_site_fract_x
 _atom_site_fract_y
 _atom_site_fract_z
 _atom_site_occupancy
  V  V0  1  0.11155548  0.25384045  0.33792485  1
  V  V1  1  0.59969942  0.13323833  0.46750344  1
  V  V2  1  0.90979853  0.34380806  0.00407658  1
  V  V3  1  -0.04166234  0.62411306  0.12830613  1
  V  V4  1  0.25128889  0.87212704  0.61678317  1
  V  V5  1  0.69793972  0.20858767  0.87674085  1
  V  V6  1  0.37138254  0.87203522  0.00943254  1
  V  V7  1  0.39908956  0.75544286  0.14270148  1
  V  V8  1  0.69952785  0.26931521  0.49699638  1
  V  V9  1  0.01476819  -0.00882391  0.00072857  1
  V  V10  1  -0.02547944  0.48615617  0.48921888  1
  V  V11  1  0.19530347  0.62072879  0.33826387  1
  V  V12  1  0.63703429  0.68183232  0.01675628  1
  V  V13  1  0.85458406  0.79522623  0.13616762  1
  V  V14  1  0.49094519  0.25992848  0.25879478  1
  V  V15  1  0.36042036  0.82772881  0.48301941  1
  V  V16  1  0.35659814  0.50877522  0.36283714  1
  V  V17  1  0.49316608  0.73327509  0.74414125  1
  V  V18  1  0.34714644  -0.00258463  0.89412900  1
  V  V19  1  0.63909532  0.01992558  0.11932640  1
  V  V20  1  0.76128516  0.44095698  0.73678903  1
  V  V21  1  0.86466616  0.73247197  0.62142509  1
  V  V22  1  0.25724923  0.18505739  0.86972952  1
  V  V23  1  -0.01798942  0.80226426  0.25369514  1
  V  V24  1  0.23661076  0.42372885  0.12838138  1
  V  V25  1  0.41880911  0.62295635  0.24064030  1
  V  V26  1  0.87656602  0.00970693  0.38623378  1
  V  V27  1  0.61648153  0.89129035  0.73223539  1
  V  V28  1  0.71195263  0.64154805  0.37880541  1
  V  V29  1  0.92944353  0.10424009  0.74389985  1
  V  V30  1  0.09248967  0.35337455  0.72159154  1
  V  V31  1  0.60874758  0.62367230  0.52717622  1
  V  V32  1  0.25060829  0.27399063  0.00563185  1
  V  V33  1  0.73468293  0.45984038  0.26144992  1
  V  V34  1  0.75509997  0.69631458  0.87624232  1
  V  V35  1  0.36683985  0.44014861  0.00175598  1
  V  V36  1  0.37686733  0.12274755  0.77274754  1
  V  V37  1  0.08767294  0.77335802  0.39126298  1
  V  V38  1  0.21220419  0.71722635  0.49940961  1
  V  V39  1  0.15492772  0.81278845  0.75175028  1
  V  V40  1  0.37309806  0.23699995  0.11811121  1
  V  V41  1  -0.02432785  0.53426702  -0.01558521  1
  V  V42  1  0.49930220  0.86788721  0.87216575  1
  V  V43  1  0.49151922  0.38492476  0.37996186  1
  V  V44  1  0.44175298  0.06059746  0.51823644  1
  V  V45  1  0.36319360  0.12114529  0.26096150  1
  V  V46  1  0.11799967  0.64739177  -0.00205106  1
  V  V47  1  0.84390859  0.62237108  0.25456546  1
  V  V48  1  0.72959547  0.76432214  0.51557964  1
  V  V49  1  0.50046354  0.26261960  0.70990614  1
  V  V50  1  0.60064683  0.90900708  0.30399463  1
  Zn  Zn51  1  0.52193087  0.34825862  0.05777635  1
  Zn  Zn52  1  0.41192652  0.43052484  0.19036855  1
  Zn  Zn53  1  0.20355691  0.72110116  0.15950888  1
  Zn  Zn54  1  0.67166658  0.70484116  0.69831113  1
  Zn  Zn55  1  0.05238829  0.79513898  0.07481649  1
  Zn  Zn56  1  0.02023488  0.53232312  0.28469110  1
  Zn  Zn57  1  0.59118300  0.01521801  0.62080710  1
  Zn  Zn58  1  0.47837314  0.71452028  0.97248646  1
  Zn  Zn59  1  1.05204101  0.95157044  0.69545270  1
  Zn  Zn60  1  0.82169646  0.87369781  0.90679955  1
  Zn  Zn61  1  0.01699753  0.31690275  0.56148617  1
  Zn  Zn62  1  0.46401650  0.97351356  0.71476634  1
  Zn  Zn63  1  0.35409129  0.83284323  0.78216215  1
  Zn  Zn64  1  0.91262754  0.68889351  0.44011904  1
  Zn  Zn65  1  0.95138937  0.98582894  0.19894902  1
  Zn  Zn66  1  0.91125575  0.41149311  0.66889162  1
  Zn  Zn67  1  0.05363284  0.81009288  0.58438482  1
  Zn  Zn68  1  0.61665724  0.21935843  0.13856579  1
  Zn  Zn69  1  0.44023960  0.93576834  0.20495829  1
  Zn  Zn70  1  0.68077667  0.19355832  0.66686989  1
  Zn  Zn71  1  0.82407306  -0.01333264  0.08480248  1
  Zn  Zn72  1  0.68182637  0.45287596  0.43485825  1
  Zn  Zn73  1  0.69512487  0.96520219  0.48052899  1
  Zn  Zn74  1  0.06406161  0.22852124  0.05299993  1
  Zn  Zn75  1  0.14701623  0.95467681  0.87526151  1
  Zn  Zn76  1  0.55035183  0.84000549  0.06210416  1
  Zn  Zn77  1  0.72875832  1.02222603  0.94397667  1
  Zn  Zn78  1  0.20317743  0.63807305  0.68980835  1
  Zn  Zn79  1  0.59298304  0.59603569  0.84607842  1
  Zn  Zn80  1  0.26494717  0.08213076  0.60112268  1
  Zn  Zn81  1  0.50908743  0.05561560  0.31790665  1
  Zn  Zn82  1  0.66033486  0.41465748  0.91427823  1
  Zn  Zn83  1  0.79276943  0.82117243  0.33230032  1
  Zn  Zn84  1  0.98255636  0.34827484  0.20594753  1
  Zn  Zn85  1  0.41589584  0.65079835  0.45439752  1
  Zn  Zn86  1  0.27248384  0.55638919  0.53967044  1
  Zn  Zn87  1  0.82918627  0.32164609  0.35652120  1
  Zn  Zn88  1  0.13401833  0.09731207  0.73313335  1
  Zn  Zn89  1  0.85077711  0.07144617  0.57879202  1
  Zn  Zn90  1  0.29219282  0.59945299  0.08045397  1
  Zn  Zn91  1  0.68435632  0.71673361  0.19218308  1
  Zn  Zn92  1  0.92412038  0.72382799  0.94751213  1
  Zn  Zn93  1  0.54923585  0.80615935  0.57917637  1
  Zn  Zn94  1  0.30895919  0.32529513  0.29064916  1
  Zn  Zn95  1  0.05706900  0.06905747  0.34849592  1
  Zn  Zn96  1  0.48878595  0.26621610  0.52222194  1
  Zn  Zn97  1  0.95139641  0.18389760  0.45138089  1
  Zn  Zn98  1  0.20297643  0.16252981  0.16226474  1
  Zn  Zn99  1  0.50240441  0.40664052  0.85950915  1
  Zn  Zn100  1  0.55935405  0.54584251  0.32130899  1
  Zn  Zn101  1  0.21785608  0.90067364  0.41845331  1
  O  O102  1  0.11328368  0.14459150  0.10387113  1
  O  O103  1  0.18405211  0.14250246  0.64705989  1
  O  O104  1  0.05159634  0.64665675  0.11882578  1
  O  O105  1  0.23763577  0.55072125  0.64287950  1
  O  O106  1  0.62807610  0.11651902  0.13793260  1
  O  O107  1  0.67215979  0.08886574  0.64891053  1
  O  O108  1  0.63729545  0.65447920  0.11387568  1
  O  O109  1  0.62222903  0.62838089  0.62703347  1
  O  O110  1  0.33815529  0.41223018  0.36324018  1
  O  O111  1  0.40366871  0.42022550  0.91155770  1
  O  O112  1  0.32910811  0.89259732  0.41572805  1
  O  O113  1  0.38079052  0.88995086  0.88451380  1
  O  O114  1  0.90489050  0.28113275  0.42623255  1
  O  O115  1  0.91291594  0.32058164  0.90615712  1
  O  O116  1  0.84541444  0.91009382  0.37885262  1
  O  O117  1  0.91452734  0.82405700  0.89069006  1
  O  O118  1  0.21113963  -0.00278464  0.33497613  1
  O  O119  1  0.25348204  -0.01978201  0.88461373  1
  O  O120  1  0.26029605  0.54123853  0.34342473  1
  O  O121  1  0.32141060  0.56085041  0.82925860  1
  O  O122  1  0.77658753  0.01915120  0.41243450  1
  O  O123  1  0.77922466  -0.03412232  0.86313036  1
  O  O124  1  0.73728144  0.54722781  0.38271793  1
  O  O125  1  0.75575257  0.44732448  0.84210887  1
  O  O126  1  0.23534769  0.52013588  0.13447496  1
  O  O127  1  0.40580479  0.54111414  0.68457633  1
  O  O128  1  0.20364685  0.92471016  0.18328756  1
  O  O129  1  0.24195000  0.96623407  0.61262167  1
  O  O130  1  0.73557950  0.40027799  0.18669091  1
  O  O131  1  0.76506523  0.46527028  0.63451251  1
  O  O132  1  0.73086799  0.99670383  0.14757441  1
  O  O133  1  0.75522932  1.02291875  0.56892926  1
  O  O134  1  -0.10154308  0.35178203  0.27877989  1
  O  O135  1  0.00098435  0.40612340  0.73340516  1
  O  O136  1  0.00224054  0.89669289  0.24533157  1
  O  O137  1  0.06052031  0.84665591  0.74141393  1
  O  O138  1  0.46630721  0.37093005  0.26777766  1
  O  O139  1  0.50020355  0.34628374  0.76498998  1
  O  O140  1  0.50447984  0.88919357  0.28830217  1
  O  O141  1  0.46406348  0.86909676  0.76196040  1
  O  O142  1  0.47249553  0.15871249  0.25688923  1
  O  O143  1  0.47540894  0.14567409  0.72305962  1
  O  O144  1  0.51178054  0.60430180  0.23271656  1
  O  O145  1  0.52631675  0.64444427  0.76944470  1
  O  O146  1  1.01099209  0.07056094  0.24923501  1
  O  O147  1  1.02505679  0.13018975  0.76607955  1
  O  O148  1  0.95348994  0.60618148  0.23873874  1
  O  O149  1  0.99232219  0.69130758  0.75993453  1
  O  O150  1  0.36396615  0.28107565  0.02272402  1
  O  O151  1  0.29435513  0.29308653  0.49925923  1
  O  O152  1  0.38369934  0.77179019  -0.00744032  1
  O  O153  1  0.32768428  0.72821588  0.47137124  1
  O  O154  1  0.95324427  0.25361445  0.01735826  1
  O  O155  1  0.86448691  0.16496143  0.52066001  1
  O  O156  1  0.87305473  0.77738370  0.03909316  1
  O  O157  1  0.84143518  0.72774356  0.51594718  1
  O  O158  1  0.12541669  0.28570279  0.43380941  1
  O  O159  1  0.15639745  0.29569764  1.02944344  1
  O  O160  1  0.10919221  0.74480495  0.50166764  1
  O  O161  1  0.05759909  0.72911468  0.98504101  1
  O  O162  1  0.59826213  0.24401310  0.49299884  1
  O  O163  1  0.66253840  0.18845688  0.96954806  1
  O  O164  1  0.62739581  0.74816448  0.52409813  1
  O  O165  1  0.63220398  0.77835402  1.01235877  1
  O  O166  1  0.46774372  0.28157401  0.14125686  1
  O  O167  1  0.44344120  0.27736076  0.63010088  1
  O  O168  1  0.49195980  0.74390507  0.08724667  1
  O  O169  1  0.48542500  0.73975695  0.64319658  1
  O  O170  1  1.01863017  0.25566352  0.15396355  1
  O  O171  1  1.02725806  0.21802067  0.52728864  1
  O  O172  1  0.97370617  0.77343740  0.15394815  1
  O  O173  1  0.96198458  0.75409708  0.60789689  1
  O  O174  1  0.01516121  0.21688045  0.34753079  1
  O  O175  1  0.08031743  0.20745606  0.94603240  1
  O  O176  1  -0.01153797  0.76159893  0.40703235  1
  O  O177  1  0.01117552  0.68844029  0.82868229  1
  O  O178  1  0.48505168  0.27381933  0.36288135  1
  O  O179  1  0.61056022  0.23202521  0.82943756  1
  O  O180  1  0.45362150  0.79395497  0.43098867  1
  O  O181  1  0.50844290  0.76989151  0.87055592  1
  O  O182  1  0.17925126  0.05950995  0.49674722  1
  O  O183  1  0.24520229  0.17420788  0.97877310  1
  O  O184  1  0.20996308  0.62005075  0.46516380  1
  O  O185  1  0.20217059  0.66361053  1.05704488  1
  O  O186  1  0.69702633  0.15223162  0.47277519  1
  O  O187  1  0.80022638  0.07634987  1.01207358  1
  O  O188  1  0.71155672  0.64741662  0.48920072  1
  O  O189  1  0.72343651  0.65378160  0.96888316  1
  O  O190  1  0.27204536  0.39571889  0.02690151  1
  O  O191  1  0.31844653  0.41798384  0.58541366  1
  O  O192  1  0.27905615  0.87507379  0.01523944  1
  O  O193  1  0.23601708  0.83164955  0.51052955  1
  O  O194  1  0.81643075  0.32340399  0.01976735  1
  O  O195  1  0.69472226  0.36633302  0.50562164  1
  O  O196  1  0.78076073  0.92686054  -0.00132129  1
  O  O197  1  0.73437654  0.86107888  0.51058329  1
  O  O198  1  0.02530117  0.44766442  0.21694765  1
  O  O199  1  0.13851897  0.43917811  0.71798296  1
  O  O200  1  0.14205104  0.99863022  0.31322216  1
  O  O201  1  0.12407424  0.99443314  0.77376339  1
  O  O202  1  0.64262136  0.49617482  0.26610292  1
  O  O203  1  0.69557781  0.37039382  0.72239698  1
  O  O204  1  0.60603490  1.00198081  0.26984814  1
  O  O205  1  0.57534079  0.99177730  0.73262178  1
  O  O206  1  0.41320113  0.02800570  0.25850348  1
  O  O207  1  0.41273840  0.02138965  0.80651379  1
  O  O208  1  0.37969080  0.52518753  0.24645851  1
  O  O209  1  0.42240655  0.48368918  0.72163366  1
  O  O210  1  0.86738156  0.01036143  0.28059104  1
  O  O211  1  0.96692619  0.00649041  0.75007648  1
  O  O212  1  0.81678471  0.52785099  0.23701141  1
  O  O213  1  0.85940405  0.48727530  0.73932223  1
  O  O214  1  0.06160280  0.32962441  0.29537902  1
  O  O215  1  0.08666681  0.33352840  0.81890784  1
  O  O216  1  0.11378485  0.86700183  0.39650660  1
  O  O217  1  0.16301738  0.84777196  0.84759480  1
  O  O218  1  0.58497192  0.39932909  0.38906544  1
  O  O219  1  0.70072272  0.30863432  0.89915312  1
  O  O220  1  0.62492092  0.91690260  0.40167721  1
  O  O221  1  0.58622238  0.90464766  0.84733421  1
  O  O222  1  0.39263441  0.14623516  0.10607163  1
  O  O223  1  0.33098928  0.08459370  0.69573140  1
  O  O224  1  0.37942197  0.64358345  0.13941198  1
  O  O225  1  0.48805522  0.48932607  0.57076464  1
  O  O226  1  0.89666530  0.05492944  0.13211468  1
  O  O227  1  0.94894484  0.09302747  0.63391070  1
  O  O228  1  0.86076348  0.67315263  0.15899417  1
  O  O229  1  0.86619077  0.65061088  0.66524848  1
  O  O230  1  0.26410556  0.24430494  0.11706608  1
  O  O231  1  0.27822248  0.22672834  0.51833053  1
  O  O232  1  0.30249363  0.76987202  0.14396325  1
  O  O233  1  0.22953305  0.70201789  0.59504327  1
  O  O234  1  0.61992150  0.30567936  0.07838040  1
  O  O235  1  0.74246495  0.24142057  0.58798014  1
  O  O236  1  0.75859710  0.78640287  0.14581045  1
  O  O237  1  0.75165315  0.74900575  0.62501501  1
  O  O238  1  0.20644065  0.29608272  0.32907080  1
  O  O239  1  0.25123778  0.28592641  0.89707012  1
  O  O240  1  0.18224443  0.72447448  0.37763692  1
  O  O241  1  0.25622424  0.75417067  0.91054592  1
  O  O242  1  0.75748737  0.26145760  0.41130598  1
  O  O243  1  0.79432724  0.21315838  0.88997440  1
  O  O244  1  0.74440971  0.75037673  0.40171142  1
  O  O245  1  0.74968905  0.79265017  0.87732468  1
  O  O246  1  -0.00685862  0.08757892  -0.00826081  1
  O  O247  1  0.02068269  0.09532735  0.44933011  1
  O  O248  1  -0.06312880  0.62806658  0.00817123  1
  O  O249  1  -0.05057011  0.58404890  0.48137289  1
  O  O250  1  0.51473278  0.10408150  0.00790125  1
  O  O251  1  0.49625541  0.14955344  0.51602582  1
  O  O252  1  0.56204523  0.63995180  -0.04354175  1
  O  O253  1  0.51254382  0.64151945  0.50324732  1
  O  O254  1  0.45535921  0.36200748  0.47351723  1
  O  O255  1  0.60232208  0.50816939  1.09056378  1
  O  O256  1  0.47101249  0.84433003  0.49170992  1
  O  O257  1  0.49260242  0.88872593  0.97560983  1
  O  O258  1  1.01077845  0.38950060  0.47479552  1
  O  O259  1  0.99885277  0.40074792  1.00620070  1
  O  O260  1  1.01678975  0.91357964  0.59840725  1
  O  O261  1  1.02574152  0.89277101  1.03037049  1
  O  O262  1  0.46807450  0.49146845  0.36841279  1
  O  O263  1  0.58912752  0.48378833  0.85526165  1
  O  O264  1  0.46272059  1.01969638  0.42984015  1
  O  O265  1  0.49938328  1.08022052  0.94164796  1
  O  O266  1  0.97282197  0.49171138  0.38539505  1
  O  O267  1  0.97155467  0.53310581  0.88810233  1
  O  O268  1  0.97392586  0.97966222  0.38058592  1
  O  O269  1  1.02724094  0.95496360  0.89947116  1
  O  O270  1  0.03214147  -0.00179798  0.10414933  1
  O  O271  1  0.09611239  0.04074676  0.63939182  1
  O  O272  1  -0.05174654  0.52959583  0.10401054  1
  O  O273  1  -0.03764074  0.48939064  0.60033288  1
  O  O274  1  0.53476644  -0.02319480  0.13256668  1
  O  O275  1  0.47164440  0.01031636  0.60523018  1
  O  O276  1  0.58629573  0.45482442  0.13329198  1
  O  O277  1  0.50988415  0.43558157  0.60944992  1
  O  O278  1  0.30492226  0.38722839  0.19577163  1
  O  O279  1  0.16756820  0.29118662  0.71973397  1
  O  O280  1  0.18441440  0.88331316  0.12740635  1
  O  O281  1  0.26184716  0.84771883  0.72349547  1
  O  O282  1  0.75598898  0.40467339  0.34735820  1
  O  O283  1  0.82821603  0.35665709  0.73013048  1
  O  O284  1  0.70333094  0.86450065  0.26896519  1
  O  O285  1  0.70770787  0.90208763  0.73812974  1
  O  O286  1  0.27609048  0.10244313  0.21232420  1
  O  O287  1  0.31723549  0.20642940  0.78206254  1
  O  O288  1  0.21804089  0.65407658  0.24691420  1
  O  O289  1  0.27910168  0.69175837  0.89078239  1
  O  O290  1  0.79012482  0.16521506  0.19188888  1
  O  O291  1  0.83668541  0.07958218  0.69710644  1
  O  O292  1  0.74454626  0.66290647  0.26981922  1
  O  O293  1  0.70082312  0.51868782  0.74140764  1
  O  O294  1  0.34055432  0.13270923  0.35381060  1
  O  O295  1  0.33373311  0.10772848  0.87695667  1
  O  O296  1  0.39409951  0.63129507  0.34187957  1
  O  O297  1  0.38476995  0.58541467  0.84497880  1
  O  O298  1  0.88644670  0.10958908  0.37529933  1
  O  O299  1  0.89031944  0.08747650  0.83293155  1
  O  O300  1  0.86184474  0.64088459  0.35297823  1
  O  O301  1  0.84893376  0.67472115  0.86766961  1
  O  O302  1  0.15093897  0.39374769  0.15190121  1
  O  O303  1  0.10872747  0.36736681  0.60199297  1
  O  O304  1  0.13718114  0.81333243  0.14937634  1
  O  O305  1  0.15451710  0.83735381  0.63640223  1
  O  O306  1  0.56069678  0.37143992  -0.04970057  1
  O  O307  1  0.58763045  0.24804537  0.66606515  1
  O  O308  1  0.58879995  0.91602751  0.14000299  1
  O  O309  1  0.59790101  0.89518440  0.62423753  1
  O  O310  1  0.14166523  0.21680630  0.24189607  1
  O  O311  1  0.02918753  0.28254822  0.67771807  1
  O  O312  1  0.06782353  0.75696433  0.28428144  1
  O  O313  1  0.16038370  0.71377299  0.75247831  1
  O  O314  1  0.58608938  0.26158193  0.24082995  1
  O  O315  1  0.72271685  0.19835236  0.76984190  1
  O  O316  1  0.64273878  0.80934926  0.26092820  1
  O  O317  1  0.59719989  0.78504695  0.73747255  1
  O  O318  1  0.36013663  0.23889470  0.23725712  1
  O  O319  1  0.46487648  0.19505434  0.79277515  1
  O  O320  1  0.42609086  0.74029657  0.23752332  1
  O  O321  1  0.39652975  0.73073738  0.77229441  1
  O  O322  1  0.80627416  0.21557243  0.23959072  1
  O  O323  1  0.91343252  0.19953601  0.74526341  1
  O  O324  1  0.88025182  0.78938669  0.26775287  1
  O  O325  1  0.86529818  0.82562670  0.70380050  1
  O  O326  1  0.35514840  0.54455341  0.46581773  1
  O  O327  1  0.34651026  0.53492610  1.00238287  1
  O  O328  1  0.34613758  1.07728128  0.52550469  1
  O  O329  1  0.37453936  0.99017768  0.99011424  1
  O  O330  1  0.88117490  0.44966972  0.49948755  1
  O  O331  1  0.88411647  0.44326344  0.98505597  1
  O  O332  1  0.89550207  1.00819486  0.49241543  1
  O  O333  1  0.91675955  0.97640166  0.99073960  1
  O  O334  1  0.11550562  0.01357161  -0.02254100  1
  O  O335  1  0.15114362  -0.00572668  0.48997711  1
  O  O336  1  0.07251346  0.55060705  0.00361743  1
  O  O337  1  0.07025550  0.50868050  0.51102743  1
  O  O338  1  0.64520316  0.01098937  0.01789616  1
  O  O339  1  0.60902482  0.03772619  0.50955077  1
  O  O340  1  0.70928647  0.45821701  -0.00204972  1
  O  O341  1  0.62303799  0.52939098  0.49994449  1
  O  O342  1  0.43815187  0.42679305  0.07559279  1
  O  O343  1  0.32955589  0.38627473  0.64862421  1
  O  O344  1  0.40848790  0.86972150  0.11682423  1
  O  O345  1  0.35326513  0.85610305  0.58561695  1
  O  O346  1  0.91410984  0.35197328  0.11428520  1
  O  O347  1  0.91308915  0.33153632  0.59293302  1
  O  O348  1  0.87003141  0.89855730  0.14515275  1
  O  O349  1  0.85535583  0.88330622  0.66105899  1
  O  O350  1  0.13450870  0.15354681  0.36330376  1
  O  O351  1  0.17989604  0.14448788  0.82631350  1
  O  O352  1  0.10730960  0.58191827  0.33053988  1
  O  O353  1  0.15176248  0.63418603  0.90883795  1
  O  O354  1  0.58475145  0.12207489  0.37113937  1
  O  O355  1  0.68817189  0.10466468  0.87763894  1
  O  O356  1  0.61554425  0.63784292  0.36506108  1
  O  O357  1  0.69153440  0.65622835  0.80325683  1
