# generated using pymatgen
data_V51Zn51O256
_symmetry_space_group_name_H-M   'P 1'
_cell_length_a   17.29118200
_cell_length_b   17.89761407
_cell_length_c   17.44082783
_cell_angle_alpha   89.38069490
_cell_angle_beta   90.73632543
_cell_angle_gamma   89.98999673
_symmetry_Int_Tables_number   1
_chemical_formula_structural   V51Zn51O256
_chemical_formula_sum   'V51 Zn51 O256'
_cell_volume   5396.66748735
_cell_formula_units_Z   1
loop_
 _symmetry_equiv_pos_site_id
 _symmetry_equiv_pos_as_xyz
  1  'x, y, z'
loop_
 _atom_site_type_symbol
 _atom_site_label
 _atom_site_symmetry_multiplicity
 _atom_site_fract_x
 _atom_site_fract_y
 _atom_site_fract_z
 _atom_site_occupancy
  V  V0  1  0.74493696  0.21696407  0.50021997  1
  V  V1  1  -0.02487511  0.05863877  -0.01482862  1
  V  V2  1  0.00016925  0.38320440  0.36988151  1
  V  V3  1  0.59268962  0.12391535  0.46627176  1
  V  V4  1  0.10579183  0.49659143  0.61520691  1
  V  V5  1  0.75075692  0.83330712  0.46202495  1
  V  V6  1  -0.00573261  0.38472784  0.89395512  1
  V  V7  1  0.74949268  0.07267511  0.22391310  1
  V  V8  1  0.86997187  0.48300872  0.42637924  1
  V  V9  1  0.75317195  0.17463288  0.84620146  1
  V  V10  1  0.77502791  0.87064700  0.11371899  1
  V  V11  1  -0.05532384  0.64404876  0.16998332  1
  V  V12  1  0.50250925  0.80641147  0.25308106  1
  V  V13  1  0.65678810  0.88506289  0.23555506  1
  V  V14  1  0.36494306  -0.03438922  0.86919475  1
  V  V15  1  0.85295283  -0.01467439  0.86955598  1
  V  V16  1  0.86633666  0.04389944  0.35061928  1
  V  V17  1  0.74253021  0.02114377  0.74360187  1
  V  V18  1  0.13335829  -0.05524762  0.64928211  1
  V  V19  1  0.52640586  0.85429691  0.88703909  1
  V  V20  1  -0.03610225  0.80387351  0.74524698  1
  V  V21  1  0.60699255  0.01627511  0.63509188  1
  V  V22  1  0.00373517  0.91430381  0.30943312  1
  V  V23  1  0.01331800  0.88921223  0.91451803  1
  V  V24  1  0.02686487  0.15603855  0.67277955  1
  V  V25  1  0.48797442  0.15262186  0.08040460  1
  V  V26  1  0.15631278  0.73255444  0.42420786  1
  V  V27  1  0.37821388  0.11691598  0.77931392  1
  V  V28  1  0.24977922  0.24048072  0.52498596  1
  V  V29  1  0.38330764  -0.00457437  0.36124560  1
  V  V30  1  0.27902336  0.54354838  0.32454215  1
  V  V31  1  0.15589082  0.11419201  -0.01883470  1
  V  V32  1  0.73877646  0.26776924  -0.00549977  1
  V  V33  1  0.07216871  0.61779138  0.06232730  1
  V  V34  1  0.64308702  0.87469894  0.74850332  1
  V  V35  1  0.28809304  0.54624449  0.85561031  1
  V  V36  1  0.86179665  0.93860185  0.50628409  1
  V  V37  1  0.19697942  0.35817167  0.15856027  1
  V  V38  1  0.13357892  0.13520941  0.50377341  1
  V  V39  1  0.74325646  0.75991741  -0.00412698  1
  V  V40  1  0.59269795  0.52558515  0.11853197  1
  V  V41  1  0.59088341  0.25250343  0.86089174  1
  V  V42  1  0.60803925  0.37465555  0.74317918  1
  V  V43  1  0.83467673  0.41125574  0.01949536  1
  V  V44  1  0.48158189  -0.01717116  0.52129147  1
  V  V45  1  0.50176406  -0.00588417  -0.01670868  1
  V  V46  1  0.53609027  0.74805066  0.72609142  1
  V  V47  1  0.55331383  0.49830514  0.44394162  1
  V  V48  1  0.64113637  0.01855284  0.10311847  1
  V  V49  1  0.31665056  0.64701694  0.46786199  1
  V  V50  1  0.04088303  -0.01583161  0.48734316  1
  Zn  Zn51  1  0.69323470  0.93337072  0.93245283  1
  Zn  Zn52  1  0.90774033  0.11318612  0.53898712  1
  Zn  Zn53  1  0.98128883  0.71941381  0.34274150  1
  Zn  Zn54  1  0.77321791  0.07739601  0.01178056  1
  Zn  Zn55  1  0.93942494  0.99174404  0.68371623  1
  Zn  Zn56  1  0.63494515  0.41687816  0.94713086  1
  Zn  Zn57  1  0.09950694  0.59643021  0.79652280  1
  Zn  Zn58  1  0.48954955  0.44364389  0.60656989  1
  Zn  Zn59  1  0.56926109  0.07442194  0.81340217  1
  Zn  Zn60  1  0.48454245  0.99314131  0.19178069  1
  Zn  Zn61  1  0.17952455  0.90253119  0.38596276  1
  Zn  Zn62  1  0.79187020  0.58674706  0.09308772  1
  Zn  Zn63  1  0.11188523  0.20130551  0.16544639  1
  Zn  Zn64  1  0.77697188  0.23991627  0.29823347  1
  Zn  Zn65  1  0.68317030  0.99529512  0.39174777  1
  Zn  Zn66  1  0.31972435  0.54776882  0.64772091  1
  Zn  Zn67  1  0.69797491  0.37831048  0.38332101  1
  Zn  Zn68  1  0.34816233  0.80208668  0.38298895  1
  Zn  Zn69  1  0.19998656  0.18179259  0.69064289  1
  Zn  Zn70  1  0.37849878  0.40438090  0.24228513  1
  Zn  Zn71  1  0.90962681  0.22643005  0.91366212  1
  Zn  Zn72  1  0.37398642  0.78684437  0.80345092  1
  Zn  Zn73  1  0.45128067  0.92535035  0.70766262  1
  Zn  Zn74  1  0.40557872  0.51835665  0.01845962  1
  Zn  Zn75  1  0.15761544  0.45559783  0.97974132  1
  Zn  Zn76  1  0.58580805  0.82897491  0.56694899  1
  Zn  Zn77  1  0.11165809  0.64243248  0.25245721  1
  Zn  Zn78  1  0.34524969  0.12302979  -0.02701221  1
  Zn  Zn79  1  0.06717775  0.78979852  0.59174576  1
  Zn  Zn80  1  0.50646514  0.34016576  0.09895644  1
  Zn  Zn81  1  0.29582847  0.04457827  0.58347268  1
  Zn  Zn82  1  0.64405495  0.20875817  0.15018752  1
  Zn  Zn83  1  0.66746287  0.36545014  0.56956112  1
  Zn  Zn84  1  0.07717232  0.21345964  0.85380743  1
  Zn  Zn85  1  0.16648118  0.97572190  0.84385286  1
  Zn  Zn86  1  0.40778103  0.14236430  0.46480872  1
  Zn  Zn87  1  0.95368319  0.43730103  0.73340683  1
  Zn  Zn88  1  0.03475640  0.78842404  0.07971239  1
  Zn  Zn89  1  0.04910676  0.10173243  0.33341584  1
  Zn  Zn90  1  0.84121200  0.84651509  0.30527979  1
  Zn  Zn91  1  0.64180795  0.20845949  0.67026130  1
  Zn  Zn92  1  0.96043065  0.72012676  0.93693809  1
  Zn  Zn93  1  0.78191643  0.37977671  0.82011314  1
  Zn  Zn94  1  0.79315451  0.81148577  0.81947702  1
  Zn  Zn95  1  0.59187153  0.73621290  0.12204292  1
  Zn  Zn96  1  0.91558867  0.99908884  0.15690531  1
  Zn  Zn97  1  0.34702929  0.31552859  0.41850829  1
  Zn  Zn98  1  0.66000705  0.51568330  0.67927344  1
  Zn  Zn99  1  0.18945204  0.41432941  0.44842280  1
  Zn  Zn100  1  0.46366331  0.49040705  0.76975145  1
  Zn  Zn101  1  0.56265018  0.42162796  0.25903938  1
  O  O102  1  0.11529806  0.13729865  0.08324995  1
  O  O103  1  0.11855865  0.13536968  0.62373368  1
  O  O104  1  0.12364033  0.65020926  0.13962687  1
  O  O105  1  0.05608108  0.56765422  0.56649212  1
  O  O106  1  0.60969910  0.11063923  0.11247345  1
  O  O107  1  0.60411958  0.11034953  0.64905152  1
  O  O108  1  0.57386409  0.62259640  0.10861357  1
  O  O109  1  0.61785722  0.62182074  0.66933882  1
  O  O110  1  0.39199865  0.35949599  0.33847498  1
  O  O111  1  0.41147318  0.34680159  0.84846819  1
  O  O112  1  0.33535020  0.91160784  0.41272700  1
  O  O113  1  0.41737117  0.87138683  0.87101115  1
  O  O114  1  0.89640933  0.38073255  0.39480681  1
  O  O115  1  0.88778821  0.39971015  0.81110762  1
  O  O116  1  0.88883849  0.94822627  0.34074233  1
  O  O117  1  0.84400508  0.89339502  0.88429648  1
  O  O118  1  0.28013282  -0.05224283  0.35782102  1
  O  O119  1  0.27350499  -0.06333758  0.87082209  1
  O  O120  1  0.24964127  0.47848823  0.39046234  1
  O  O121  1  0.23007292  0.46891973  0.89652853  1
  O  O122  1  0.76302384  0.06072241  0.33849598  1
  O  O123  1  0.74899581  0.00922309  0.86320781  1
  O  O124  1  0.77590292  0.45935814  0.43180735  1
  O  O125  1  0.71969332  0.47395333  0.87570225  1
  O  O126  1  0.15552410  0.44558925  0.17549359  1
  O  O127  1  0.20075054  0.53347632  0.61765916  1
  O  O128  1  0.25110009  0.83901484  0.13469567  1
  O  O129  1  0.21472883  0.97867885  0.60653693  1
  O  O130  1  0.68926765  0.55600488  0.14298272  1
  O  O131  1  0.70145400  0.46468408  0.59387346  1
  O  O132  1  0.75447929  1.06051173  0.12025617  1
  O  O133  1  0.72783336  1.01290261  0.64773114  1
  O  O134  1  -0.01572980  0.41783907  0.27704319  1
  O  O135  1  0.02980789  0.43948213  0.81723905  1
  O  O136  1  -0.00317392  0.95407942  0.22119826  1
  O  O137  1  -0.03219514  0.89874810  0.73540158  1
  O  O138  1  0.47539673  0.38573726  0.19559796  1
  O  O139  1  0.43650534  0.36626398  0.78511318  1
  O  O140  1  0.54059740  0.90083074  0.23151730  1
  O  O141  1  0.52374451  0.85243344  0.76315654  1
  O  O142  1  0.45783547  0.09557174  0.15259598  1
  O  O143  1  0.47642631  0.11351791  0.76566343  1
  O  O144  1  0.52527855  0.71425323  0.31782572  1
  O  O145  1  0.57319755  0.63991454  0.72663124  1
  O  O146  1  1.08068931  0.17651731  0.26304722  1
  O  O147  1  1.04461426  0.15034456  0.77022453  1
  O  O148  1  0.99234689  0.63816228  0.26156222  1
  O  O149  1  1.09525626  0.69405190  0.74252829  1
  O  O150  1  0.39926441  0.34994176  0.03967673  1
  O  O151  1  0.34803593  0.22787402  0.48494239  1
  O  O152  1  0.34032001  0.71755392  0.02088368  1
  O  O153  1  0.24791991  0.69621671  0.68541210  1
  O  O154  1  0.84078988  0.27635779  -0.01760953  1
  O  O155  1  0.83855496  0.19736262  0.52727816  1
  O  O156  1  0.85639832  0.72294213  -0.00713603  1
  O  O157  1  0.83770647  0.83577003  0.51669501  1
  O  O158  1  0.14156615  0.23219802  0.49903076  1
  O  O159  1  0.13842487  0.20402472  0.94698978  1
  O  O160  1  0.09562140  0.76734850  0.49161782  1
  O  O161  1  0.05180111  0.70070647  1.00363544  1
  O  O162  1  0.57202880  0.21020696  0.43911118  1
  O  O163  1  0.63877062  0.26856108  0.95417592  1
  O  O164  1  0.67067514  0.79799455  0.50602884  1
  O  O165  1  0.65446432  0.73652410  1.03266114  1
  O  O166  1  0.53654356  0.23786140  0.11518529  1
  O  O167  1  0.41662862  0.28507772  0.64574978  1
  O  O168  1  0.49264246  0.76173697  0.16687672  1
  O  O169  1  0.52611280  0.75755681  0.63068750  1
  O  O170  1  0.94810815  0.26587365  0.09538031  1
  O  O171  1  1.00307592  0.24132220  0.64767657  1
  O  O172  1  0.96027606  0.73469892  0.14166750  1
  O  O173  1  0.98543186  0.76733689  0.65680655  1
  O  O174  1  0.00076430  0.29745216  0.33345068  1
  O  O175  1  -0.00709033  0.28754793  0.87046519  1
  O  O176  1  -0.04748811  0.82315770  0.31021132  1
  O  O177  1  -0.02464673  0.80735999  0.86748739  1
  O  O178  1  0.44331326  0.21447340  0.33187445  1
  O  O179  1  0.50222161  0.23619999  0.88421677  1
  O  O180  1  0.55999516  0.77175789  0.34946370  1
  O  O181  1  0.53290430  0.76491396  0.90116663  1
  O  O182  1  0.23832586  0.12974435  0.52835258  1
  O  O183  1  0.24846208  0.10950245  1.01982938  1
  O  O184  1  0.33748446  0.59051927  0.54424274  1
  O  O185  1  0.32281945  0.55478830  0.95340171  1
  O  O186  1  0.68704052  0.13453197  0.51406328  1
  O  O187  1  0.74494630  0.16644103  0.95334652  1
  O  O188  1  0.80410049  0.67047309  0.55637264  1
  O  O189  1  0.79904825  0.66397760  0.99968866  1
  O  O190  1  0.20541319  0.39622334  0.06324776  1
  O  O191  1  0.24861608  0.33053599  0.47454929  1
  O  O192  1  0.18625126  0.83396886  0.10096601  1
  O  O193  1  0.30801807  0.81702436  0.58828025  1
  O  O194  1  0.73848274  0.37463235  -0.02126451  1
  O  O195  1  0.72244720  0.32540924  0.47670267  1
  O  O196  1  0.74581184  0.86497156  0.00629309  1
  O  O197  1  0.75540886  0.93575126  0.45996723  1
  O  O198  1  0.20029979  0.58461322  0.28211980  1
  O  O199  1  0.10461596  0.53897446  0.70605549  1
  O  O200  1  0.16258872  0.99004348  0.17316186  1
  O  O201  1  0.12834699  0.97707758  0.74056073  1
  O  O202  1  0.55133035  0.53226313  0.21501159  1
  O  O203  1  0.57077064  0.47253894  0.74433159  1
  O  O204  1  0.66478670  1.01363663  0.22137901  1
  O  O205  1  0.63267962  1.00025046  0.75354839  1
  O  O206  1  0.40580842  -0.00790094  0.26715101  1
  O  O207  1  0.38489181  -0.01494855  0.77346642  1
  O  O208  1  0.33915011  0.50175042  0.25944105  1
  O  O209  1  0.41760425  0.49827913  0.66757569  1
  O  O210  1  0.85163506  0.05061312  0.23393264  1
  O  O211  1  0.85283436  0.00860732  0.76574912  1
  O  O212  1  0.85462766  0.50624413  0.33026231  1
  O  O213  1  0.89424131  0.55021240  0.72168037  1
  O  O214  1  0.09533413  0.40909332  0.36254870  1
  O  O215  1  0.07560226  0.39281194  0.95140243  1
  O  O216  1  0.09669161  0.88149525  0.31493993  1
  O  O217  1  0.10650080  0.89400116  0.89062222  1
  O  O218  1  0.57313301  0.31111329  0.29823889  1
  O  O219  1  0.59497335  0.36365849  0.84914664  1
  O  O220  1  0.66076252  0.90389250  0.33144371  1
  O  O221  1  0.62637582  0.88519432  0.85828956  1
  O  O222  1  0.40444499  0.18688921  0.03839096  1
  O  O223  1  0.33674598  0.10879328  0.67312221  1
  O  O224  1  0.35114996  0.53903675  0.10548943  1
  O  O225  1  0.31325436  0.66704191  0.67667934  1
  O  O226  1  0.97052224  0.21364108  0.13640271  1
  O  O227  1  0.94718506  0.09419509  0.64398248  1
  O  O228  1  0.84864421  0.62535182  0.17912010  1
  O  O229  1  0.91966382  0.61470948  0.71022604  1
  O  O230  1  0.21041239  0.26186626  0.12385177  1
  O  O231  1  0.25192780  0.25563750  0.61947966  1
  O  O232  1  0.32188689  0.69711538  0.18084279  1
  O  O233  1  0.30477277  0.84741605  0.65185214  1
  O  O234  1  0.72244006  0.25797888  0.08891773  1
  O  O235  1  0.69664638  0.26146051  0.59277848  1
  O  O236  1  0.78430048  0.77638676  0.11008433  1
  O  O237  1  0.78721017  0.61846655  0.59972494  1
  O  O238  1  0.27853150  0.16673595  0.27451938  1
  O  O239  1  0.21397109  0.30862097  0.80178855  1
  O  O240  1  0.22454702  0.79924189  0.39411277  1
  O  O241  1  0.32158615  0.63389433  0.84021327  1
  O  O242  1  0.74937563  0.21285750  0.40069435  1
  O  O243  1  0.74669950  0.26952477  0.83506177  1
  O  O244  1  0.77368768  0.79486262  0.37633144  1
  O  O245  1  0.73412992  0.76271511  0.89773716  1
  O  O246  1  -0.02026878  0.14644896  -0.05185776  1
  O  O247  1  0.03133503  0.08484233  0.50315089  1
  O  O248  1  -0.03872459  0.59735319  0.06616879  1
  O  O249  1  -0.07735385  0.69218040  0.42788352  1
  O  O250  1  0.51291643  0.09353480  -0.00105713  1
  O  O251  1  0.49691261  0.09745351  0.50781714  1
  O  O252  1  0.48503734  0.56943272  -0.06440148  1
  O  O253  1  0.63561477  0.54805059  0.42139481  1
  O  O254  1  0.46937100  0.45240499  0.49283284  1
  O  O255  1  0.54928771  0.38453310  1.00995714  1
  O  O256  1  0.49908903  0.88927789  0.52966317  1
  O  O257  1  0.53327077  0.89226082  0.98156047  1
  O  O258  1  1.02476140  0.34538602  0.45888845  1
  O  O259  1  0.92332687  0.41266891  0.96339103  1
  O  O260  1  0.96206623  0.91666574  0.48354449  1
  O  O261  1  1.00679870  0.86839052  1.01008556  1
  O  O262  1  0.52086450  0.45590636  0.35806256  1
  O  O263  1  0.51739778  0.52417889  0.88892814  1
  O  O264  1  0.47089363  0.98132897  0.41529561  1
  O  O265  1  0.52232901  1.00068147  0.88598162  1
  O  O266  1  0.97940277  0.48100326  0.41180901  1
  O  O267  1  1.01248205  0.58808915  0.86470075  1
  O  O268  1  1.02573023  0.99710565  0.37582955  1
  O  O269  1  0.96922139  0.98177234  0.89483676  1
  O  O270  1  -0.05474660  0.06725496  0.07823385  1
  O  O271  1  0.04417332  -0.03104532  0.59688985  1
  O  O272  1  0.00328759  0.55803252  0.13001107  1
  O  O273  1  0.00836782  0.45854551  0.63833897  1
  O  O274  1  0.54331765  -0.01789979  0.09281803  1
  O  O275  1  0.50529071  -0.00676592  0.64188729  1
  O  O276  1  0.49974553  0.50451207  0.07810531  1
  O  O277  1  0.56776809  0.51681852  0.54705442  1
  O  O278  1  0.20179039  0.33847586  0.25870358  1
  O  O279  1  0.27172903  0.32193784  0.76115040  1
  O  O280  1  0.29005080  0.71426769  0.24009306  1
  O  O281  1  0.28261597  0.75031070  0.84105453  1
  O  O282  1  0.76016128  0.34443913  0.30388026  1
  O  O283  1  0.70466912  0.38691039  0.73410947  1
  O  O284  1  0.76710450  0.87569111  0.22513410  1
  O  O285  1  0.74187062  0.89511168  0.75595772  1
  O  O286  1  0.23138161  -0.01463552  0.15834548  1
  O  O287  1  0.27217630  0.09984700  0.72609847  1
  O  O288  1  0.33794443  0.60784223  0.37783283  1
  O  O289  1  0.27404236  0.52404495  0.75412804  1
  O  O290  1  0.72501737  0.16771190  0.22875295  1
  O  O291  1  0.73789539  0.11963464  0.75277843  1
  O  O292  1  0.68039379  0.65951631  0.29491926  1
  O  O293  1  0.73536094  0.54424055  0.76659500  1
  O  O294  1  0.35793285  0.08414091  0.38572344  1
  O  O295  1  0.35565830  0.07318835  0.87750385  1
  O  O296  1  0.36448808  0.73044474  0.46592162  1
  O  O297  1  0.37082768  0.49121315  0.83593165  1
  O  O298  1  0.93294656  0.11340121  0.34505769  1
  O  O299  1  0.84999032  0.15878084  0.84415407  1
  O  O300  1  0.86480120  0.57319516  0.44851003  1
  O  O301  1  0.95364304  0.63523383  0.86006730  1
  O  O302  1  0.09767493  0.31764908  0.15502202  1
  O  O303  1  0.13134101  0.40366651  0.64170391  1
  O  O304  1  0.12488813  0.81349052  0.14769177  1
  O  O305  1  0.13939720  0.84831762  0.64883959  1
  O  O306  1  0.61664755  0.43179833  0.15186318  1
  O  O307  1  0.57373268  0.37335079  0.63711001  1
  O  O308  1  0.67420302  0.91318711  0.12661890  1
  O  O309  1  0.62457656  0.89962839  0.65045775  1
  O  O310  1  0.24456260  0.12660230  0.22775783  1
  O  O311  1  0.16654680  0.24169522  0.77980127  1
  O  O312  1  0.09900767  0.70652435  0.34642982  1
  O  O313  1  0.07031859  0.74955332  0.78360522  1
  O  O314  1  0.62448103  0.27326049  0.26383706  1
  O  O315  1  0.59274121  0.26958583  0.74830995  1
  O  O316  1  0.63406407  0.79151583  0.21827563  1
  O  O317  1  0.64376494  0.77628395  0.74563735  1
  O  O318  1  0.45992065  0.19637204  0.26636765  1
  O  O319  1  0.35951093  0.20311388  0.80208478  1
  O  O320  1  0.41277697  0.81692758  0.29254344  1
  O  O321  1  0.45336635  0.71648095  0.76885279  1
  O  O322  1  0.87794801  0.24306124  0.26585275  1
  O  O323  1  0.86143060  0.29287532  0.65565815  1
  O  O324  1  0.74747445  0.65136716  0.31727785  1
  O  O325  1  0.87167142  0.77095767  0.75741760  1
  O  O326  1  0.50245135  0.57774872  0.41807561  1
  O  O327  1  0.38143095  0.40752361  0.99840992  1
  O  O328  1  0.38660885  0.99804874  0.54528147  1
  O  O329  1  0.40275918  0.98172938  0.97996660  1
  O  O330  1  0.88174437  0.45980215  0.52212207  1
  O  O331  1  0.81214541  0.50427356  1.03041578  1
  O  O332  1  0.86837024  1.03682742  0.46260861  1
  O  O333  1  0.86056613  1.03623556  0.95946894  1
  O  O334  1  0.07337230  0.03712891  -0.00047740  1
  O  O335  1  0.13100923  -0.05046073  0.47413661  1
  O  O336  1  0.12308179  0.55273530  0.01477702  1
  O  O337  1  0.12526465  0.46240913  0.51908644  1
  O  O338  1  0.67121704  0.01320860  0.00652612  1
  O  O339  1  0.60071870  0.00496215  0.53443605  1
  O  O340  1  0.62765820  0.50706908  0.02493308  1
  O  O341  1  0.61410972  0.41275434  0.45246169  1
  O  O342  1  0.29733170  0.36935650  0.17207498  1
  O  O343  1  0.40104384  0.34432507  0.61169179  1
  O  O344  1  0.27117232  0.70450129  0.03078992  1
  O  O345  1  0.37858704  0.83870380  0.69916213  1
  O  O346  1  0.84663545  0.37840224  0.10612744  1
  O  O347  1  0.85783039  0.36089080  0.66658108  1
  O  O348  1  0.86060743  0.91682575  0.10723336  1
  O  O349  1  0.86501817  0.96232745  0.59736840  1
  O  O350  1  0.13881102  0.11213812  0.41002545  1
  O  O351  1  0.16606359  0.06844224  0.89380580  1
  O  O352  1  0.21154652  0.65820140  0.46557374  1
  O  O353  1  0.19154922  0.58797042  0.85465433  1
  O  O354  1  0.60657239  0.07252170  0.38454694  1
  O  O355  1  0.63406799  0.15896476  0.84614810  1
  O  O356  1  0.66152940  0.44704529  0.30583442  1
  O  O357  1  0.70622631  0.54040134  0.83643651  1
