# generated using pymatgen
data_V51Zn51O256
_symmetry_space_group_name_H-M   'P 1'
_cell_length_a   17.53194547
_cell_length_b   17.30687650
_cell_length_c   17.53427383
_cell_angle_alpha   90.30058455
_cell_angle_beta   90.01935124
_cell_angle_gamma   90.87380359
_symmetry_Int_Tables_number   1
_chemical_formula_structural   V51Zn51O256
_chemical_formula_sum   'V51 Zn51 O256'
_cell_volume   5319.61336740
_cell_formula_units_Z   1
loop_
 _symmetry_equiv_pos_site_id
 _symmetry_equiv_pos_as_xyz
  1  'x, y, z'
loop_
 _atom_site_type_symbol
 _atom_site_label
 _atom_site_symmetry_multiplicity
 _atom_site_fract_x
 _atom_site_fract_y
 _atom_site_fract_z
 _atom_site_occupancy
  V  V0  1  0.64801598  0.61973073  0.05895715  1
  V  V1  1  0.47268644  0.25836615  0.75417210  1
  V  V2  1  0.35977093  0.00261409  0.85676872  1
  V  V3  1  -0.01218390  0.41409590  0.35549854  1
  V  V4  1  0.85677898  0.83441492  0.49697409  1
  V  V5  1  0.23997661  0.28040325  0.53338226  1
  V  V6  1  0.39116503  0.72230860  0.61426749  1
  V  V7  1  0.41848544  0.50065627  0.85747066  1
  V  V8  1  0.12624254  0.29835457  0.85911321  1
  V  V9  1  0.01327241  0.71871832  0.22351698  1
  V  V10  1  0.42650891  0.30603793  0.38752502  1
  V  V11  1  0.61652653  0.00623234  0.07054625  1
  V  V12  1  0.82703630  0.53822713  0.37155059  1
  V  V13  1  0.87475566  0.87179497  0.02239346  1
  V  V14  1  0.51620124  0.48454231  0.06416174  1
  V  V15  1  0.85357840  0.26062581  0.61626243  1
  V  V16  1  0.82639256  0.85803506  0.20906895  1
  V  V17  1  0.71971623  0.21601184  0.51681642  1
  V  V18  1  0.04474703  0.15093229  0.11493936  1
  V  V19  1  0.36280025  0.86175349  0.51641363  1
  V  V20  1  0.74318787  0.62232323  0.84694069  1
  V  V21  1  0.08399089  0.84163629  0.70862144  1
  V  V22  1  0.86739085  0.50456047  0.86263722  1
  V  V23  1  0.65243890  0.75333637  0.91151052  1
  V  V24  1  0.35655136  0.74229104  0.13610050  1
  V  V25  1  0.50535690  0.07757958  0.65566494  1
  V  V26  1  0.23204767  0.51807531  0.74720739  1
  V  V27  1  0.33456707  0.13873877  0.72789071  1
  V  V28  1  0.23067277  0.64886532  0.86737264  1
  V  V29  1  0.34565193  0.39136869  0.02808657  1
  V  V30  1  -0.04458476  0.24004529  0.25961747  1
  V  V31  1  0.12703789  0.75725010  0.36180135  1
  V  V32  1  0.66835862  0.46956656  0.17986810  1
  V  V33  1  0.19082431  0.52142387  0.12898579  1
  V  V34  1  0.14192941  -0.00244897  0.13702113  1
  V  V35  1  0.42817412  0.22367973  0.04166031  1
  V  V36  1  0.00569642  0.00139312  -0.00072804  1
  V  V37  1  0.37111810  0.38835557  0.52229084  1
  V  V38  1  0.13388740  0.26484398  0.34226465  1
  V  V39  1  0.89409818  0.64211730  0.74428020  1
  V  V40  1  0.64623154  0.48478958  0.62824220  1
  V  V41  1  0.08383080  0.76286556  0.88663361  1
  V  V42  1  0.22262654  0.89085648  0.61713777  1
  V  V43  1  -0.00295649  0.52320103  -0.02401735  1
  V  V44  1  0.23641511  0.10287882  0.39466990  1
  V  V45  1  0.88330628  0.04212884  0.70217601  1
  V  V46  1  0.54830525  0.74366675  0.77084896  1
  V  V47  1  0.69391399  0.91911480  0.69816209  1
  V  V48  1  0.21285958  0.10036468  0.85429396  1
  V  V49  1  0.25234079  0.88659799  0.07089752  1
  V  V50  1  0.80813785  0.12997616  0.84430617  1
  Zn  Zn51  1  0.83940223  0.43018953  0.71531776  1
  Zn  Zn52  1  0.39738701  0.16662097  0.51434516  1
  Zn  Zn53  1  0.87413016  0.73810967  0.89009945  1
  Zn  Zn54  1  0.15348604  0.21248917  0.70598612  1
  Zn  Zn55  1  0.82208631  0.06359146  0.01649673  1
  Zn  Zn56  1  0.70117545  0.73462615  0.69709760  1
  Zn  Zn57  1  0.34598172  0.55318279  0.59186498  1
  Zn  Zn58  1  0.03464248  0.01559610  0.80925460  1
  Zn  Zn59  1  0.06123528  0.57537640  0.80895107  1
  Zn  Zn60  1  0.51336262  0.57734473  0.53311517  1
  Zn  Zn61  1  0.34327513  0.57841232  0.01667298  1
  Zn  Zn62  1  0.38527987  0.93998910  0.70478540  1
  Zn  Zn63  1  0.06619708  0.80886714  0.51584656  1
  Zn  Zn64  1  0.29566552  0.80726845  0.77154897  1
  Zn  Zn65  1  0.06350011  0.34236775  0.48946454  1
  Zn  Zn66  1  0.50045805  0.64678052  0.93834932  1
  Zn  Zn67  1  0.79320404  0.65515720  0.20078248  1
  Zn  Zn68  1  0.95384442  0.69093853  0.39272914  1
  Zn  Zn69  1  0.92713945  0.68855748  1.06621041  1
  Zn  Zn70  1  0.19461647  0.69377136  0.03856648  1
  Zn  Zn71  1  0.97349733  0.19576221  0.77263298  1
  Zn  Zn72  1  0.67537051  0.89903864  0.52738111  1
  Zn  Zn73  1  0.80560613  0.03747114  0.52364554  1
  Zn  Zn74  1  0.20518038  0.90224157  0.41625173  1
  Zn  Zn75  1  0.32615754  0.77558867  0.33592179  1
  Zn  Zn76  1  0.86106430  0.17127911  0.42735049  1
  Zn  Zn77  1  0.18374437  0.45838749  0.92815679  1
  Zn  Zn78  1  0.51857546  0.86205656  0.64842156  1
  Zn  Zn79  1  0.71333092  0.11132209  0.66115544  1
  Zn  Zn80  1  0.93755385  0.97500935  0.16028887  1
  Zn  Zn81  1  0.79511805  0.97501166  0.36634395  1
  Zn  Zn82  1  0.78434685  0.21675890  0.14741558  1
  Zn  Zn83  1  0.72790850  0.94942110  0.91210849  1
  Zn  Zn84  1  0.44230974  0.34916389  0.18618693  1
  Zn  Zn85  1  0.63254232  0.52364445  0.37497682  1
  Zn  Zn86  1  0.55662207  0.31737173  0.53527073  1
  Zn  Zn87  1  0.09478273  0.34570625  0.07669523  1
  Zn  Zn88  1  0.60007458  0.27840016  0.12899851  1
  Zn  Zn89  1  0.56911206  0.56531773  0.80511598  1
  Zn  Zn90  1  0.73620190  0.39976642  0.46542577  1
  Zn  Zn91  1  0.17419701  0.93437823  0.91742426  1
  Zn  Zn92  1  0.79745876  0.63134467  0.57588991  1
  Zn  Zn93  1  0.81452701  0.53951327  0.05944322  1
  Zn  Zn94  1  0.88156267  0.83365031  0.70674877  1
  Zn  Zn95  1  0.06486072  0.82411904  0.06255743  1
  Zn  Zn96  1  0.29176079  0.07902298  0.02053683  1
  Zn  Zn97  1  0.45622677  0.13340442  0.87463843  1
  Zn  Zn98  1  0.31219330  0.34090842  0.80987675  1
  Zn  Zn99  1  0.45247150  0.43948507  0.69556141  1
  Zn  Zn100  1  0.44497953  0.89080347  0.07114811  1
  Zn  Zn101  1  0.11380585  0.56823508  0.28846975  1
  O  O102  1  0.13463747  0.10846222  0.12557786  1
  O  O103  1  0.07498833  0.15447656  0.62920324  1
  O  O104  1  0.15481904  0.60732023  0.09600080  1
  O  O105  1  0.13665785  0.60363853  0.54962890  1
  O  O106  1  0.56988679  0.09300604  0.07102492  1
  O  O107  1  0.60099651  0.09284036  0.66868541  1
  O  O108  1  0.69084982  0.65225976  0.14119604  1
  O  O109  1  0.61232940  0.58510214  0.60415466  1
  O  O110  1  0.34333530  0.35092560  0.40644288  1
  O  O111  1  0.37026349  0.41448887  0.87773733  1
  O  O112  1  0.37158814  0.81399189  0.42737612  1
  O  O113  1  0.35154787  0.90688416  0.80953097  1
  O  O114  1  0.88880195  0.46900865  0.34060711  1
  O  O115  1  0.85922473  0.41193788  0.82850875  1
  O  O116  1  0.86123040  0.88696633  0.40968236  1
  O  O117  1  0.82362599  0.89911246  0.94576822  1
  O  O118  1  0.20445253  0.00796423  0.39663191  1
  O  O119  1  0.23654462  0.00127554  0.85380276  1
  O  O120  1  0.35299421  0.48408665  0.31153215  1
  O  O121  1  0.23622948  0.53090159  0.86250726  1
  O  O122  1  0.72709045  -0.03141061  0.46156183  1
  O  O123  1  0.79307064  0.05056556  0.91024348  1
  O  O124  1  0.74159862  0.48705320  0.40346080  1
  O  O125  1  0.76304056  0.52118256  0.86415923  1
  O  O126  1  0.28013635  0.51114416  0.08711909  1
  O  O127  1  0.26214965  0.53940260  0.65243836  1
  O  O128  1  0.23348708  0.99941943  0.07908545  1
  O  O129  1  0.19905577  0.98130163  0.62014743  1
  O  O130  1  0.75948310  0.48416491  0.14611090  1
  O  O131  1  0.73344131  0.54119501  0.60643909  1
  O  O132  1  0.71565620  1.03522297  0.06009144  1
  O  O133  1  0.74042806  0.99051810  0.65045146  1
  O  O134  1  -0.04126879  0.34400707  0.28236540  1
  O  O135  1  0.01286258  0.39781808  0.64304669  1
  O  O136  1  -0.00689506  1.02294666  0.33109850  1
  O  O137  1  -0.00772460  0.81975369  0.68071108  1
  O  O138  1  0.45263957  0.32299940  0.29277656  1
  O  O139  1  0.48519458  0.35601016  0.75930794  1
  O  O140  1  0.52278772  0.80920969  0.25647829  1
  O  O141  1  0.49199048  0.82396201  0.75286188  1
  O  O142  1  0.50236181  0.10877284  0.29514124  1
  O  O143  1  0.45403193  0.13837902  0.72199458  1
  O  O144  1  0.46455892  0.60555318  0.32403087  1
  O  O145  1  0.50687052  0.65111752  0.77505949  1
  O  O146  1  0.98740766  0.14402414  0.19522127  1
  O  O147  1  0.96895728  0.07906838  0.74339914  1
  O  O148  1  1.04988808  0.62984532  0.21848848  1
  O  O149  1  0.99018625  0.63815835  0.75093273  1
  O  O150  1  0.39026264  0.30438775  -0.00995847  1
  O  O151  1  0.34049975  0.26336917  0.53276950  1
  O  O152  1  0.40781977  0.80735854  -0.07561602  1
  O  O153  1  0.44546986  0.80626797  0.57584772  1
  O  O154  1  0.89238430  0.22125661  0.01071616  1
  O  O155  1  0.88197507  0.22311019  0.52771669  1
  O  O156  1  0.88196278  0.77091611  0.00176940  1
  O  O157  1  0.86872737  0.74740761  0.44571394  1
  O  O158  1  0.16612412  0.28229669  0.46288047  1
  O  O159  1  0.12997140  0.29059342  0.97255511  1
  O  O160  1  0.04955886  0.72212534  0.43727486  1
  O  O161  1  0.11442519  0.75286117  0.98960479  1
  O  O162  1  0.62357763  0.23296821  0.51438071  1
  O  O163  1  0.69122139  0.32331125  0.96597202  1
  O  O164  1  0.60088222  0.76111071  0.46287264  1
  O  O165  1  0.63761455  0.70935754  1.00649220  1
  O  O166  1  0.49064015  0.26332658  0.11692063  1
  O  O167  1  0.50878566  0.26911874  0.63383856  1
  O  O168  1  0.44014861  0.78698500  0.10411421  1
  O  O169  1  0.58794749  0.73672090  0.67764994  1
  O  O170  1  1.05345403  0.24918529  0.10266452  1
  O  O171  1  1.04252332  0.27088903  0.58405024  1
  O  O172  1  0.99803468  0.75458452  0.12880644  1
  O  O173  1  1.01403292  0.56735067  0.60818209  1
  O  O174  1  -0.07336040  0.20007975  0.34221323  1
  O  O175  1  0.07453875  0.24267063  0.93925306  1
  O  O176  1  -0.06251593  0.70898307  0.28573963  1
  O  O177  1  -0.01020349  0.74784148  0.89146891  1
  O  O178  1  0.42671282  0.20963192  0.41049369  1
  O  O179  1  0.51049719  0.22426856  0.83572767  1
  O  O180  1  0.50472130  0.79856865  0.32321666  1
  O  O181  1  0.54624792  0.73836294  0.89315746  1
  O  O182  1  0.23433465  0.16483340  0.48956604  1
  O  O183  1  0.22324772  0.13217039  0.94661787  1
  O  O184  1  0.27477470  0.58887788  0.40957999  1
  O  O185  1  0.26159102  0.64020305  0.96542384  1
  O  O186  1  0.72890515  0.11349796  0.54824500  1
  O  O187  1  0.82184834  0.17330181  1.04463816  1
  O  O188  1  0.72646582  0.70952300  0.59026245  1
  O  O189  1  0.71754862  0.57502949  1.00979646  1
  O  O190  1  0.25570838  0.39531297  -0.01165326  1
  O  O191  1  0.26721110  0.38243433  0.53365074  1
  O  O192  1  0.25186243  0.87730945  -0.02423395  1
  O  O193  1  0.25509849  0.87265297  0.51177499  1
  O  O194  1  0.84564131  0.36876851  0.05832976  1
  O  O195  1  0.75795582  0.31640566  0.52291488  1
  O  O196  1  0.81394302  0.87069395  0.10543166  1
  O  O197  1  0.75622837  0.82252855  0.49151917  1
  O  O198  1  0.19655928  0.53047331  0.22814134  1
  O  O199  1  0.13371605  0.52522466  0.74319528  1
  O  O200  1  0.16398100  0.99126306  0.22625629  1
  O  O201  1  0.07426852  0.93164774  0.74864128  1
  O  O202  1  0.65379002  0.50639466  0.27026433  1
  O  O203  1  0.62344187  0.51154368  0.72256361  1
  O  O204  1  0.62883311  1.01739636  0.16741635  1
  O  O205  1  0.62116717  0.93982531  0.77598424  1
  O  O206  1  0.39032309  0.03747147  0.19877471  1
  O  O207  1  0.33720206  0.03709544  0.73273929  1
  O  O208  1  0.46027549  0.60952723  0.25438196  1
  O  O209  1  0.40575836  0.51488034  0.75938573  1
  O  O210  1  0.86564541  0.05618450  0.22777821  1
  O  O211  1  0.88315269  -0.05427589  0.72129117  1
  O  O212  1  0.80043188  0.59830725  0.30152109  1
  O  O213  1  0.87239745  0.53231020  0.75056902  1
  O  O214  1  0.06990869  0.34290536  0.37793942  1
  O  O215  1  0.11240447  0.39429975  0.85853160  1
  O  O216  1  0.10727774  0.84860749  0.42257858  1
  O  O217  1  0.09725774  0.86183813  0.88952137  1
  O  O218  1  0.62305601  0.36145318  0.42730444  1
  O  O219  1  0.73605930  0.35303930  0.92144117  1
  O  O220  1  0.59220426  0.83242667  0.46344502  1
  O  O221  1  0.67040428  0.84700339  0.92926208  1
  O  O222  1  0.35584708  0.16148545  0.06871031  1
  O  O223  1  0.32618509  0.15427504  0.63628365  1
  O  O224  1  0.36540004  0.64984941  0.10517683  1
  O  O225  1  0.43386815  0.62562086  0.59210095  1
  O  O226  1  0.80694111  0.08930930  0.20430067  1
  O  O227  1  0.88192781  0.05973126  0.60705697  1
  O  O228  1  0.85878858  0.62206608  0.11986487  1
  O  O229  1  0.87771878  0.64342304  0.64624013  1
  O  O230  1  0.25102342  0.20265887  0.19181598  1
  O  O231  1  0.20013030  0.26516226  0.62055372  1
  O  O232  1  0.26596922  0.77468365  0.09285617  1
  O  O233  1  0.31437698  0.72426084  0.55935992  1
  O  O234  1  0.67956790  0.20801559  0.13854688  1
  O  O235  1  0.75802233  0.22161998  0.63127655  1
  O  O236  1  0.79986668  0.76593067  0.23006520  1
  O  O237  1  0.75444732  0.84043737  0.70566914  1
  O  O238  1  0.20530273  0.30538335  0.29869233  1
  O  O239  1  0.22023639  0.28225096  0.84207715  1
  O  O240  1  0.22107143  0.80160856  0.35375136  1
  O  O241  1  0.25355512  0.74619405  0.85418621  1
  O  O242  1  0.75033232  0.19853220  0.42466373  1
  O  O243  1  0.87343879  0.27506096  0.96918046  1
  O  O244  1  0.66282519  0.85030468  0.34936654  1
  O  O245  1  0.75360547  0.71408135  0.90204232  1
  O  O246  1  0.00125143  0.10409826  0.03372773  1
  O  O247  1  0.05112795  0.19522550  0.57080576  1
  O  O248  1  -0.01292131  0.61556719  0.00550078  1
  O  O249  1  -0.02066307  0.53250406  0.55803251  1
  O  O250  1  0.47819628  0.17288330  -0.02298060  1
  O  O251  1  0.47576663  0.11046570  0.56806913  1
  O  O252  1  0.53960481  0.58805605  0.02352595  1
  O  O253  1  0.56704039  0.57432650  0.44211866  1
  O  O254  1  0.47039545  0.35150197  0.47634093  1
  O  O255  1  0.55735332  0.41455969  1.01851621  1
  O  O256  1  0.55343256  0.95917334  0.33166303  1
  O  O257  1  0.44512469  0.86489957  0.94491346  1
  O  O258  1  0.96999919  0.40665547  0.45163889  1
  O  O259  1  0.99025906  0.40844810  1.02694327  1
  O  O260  1  0.95862823  0.83886731  0.50674714  1
  O  O261  1  0.98095032  0.88997400  1.01949394  1
  O  O262  1  0.58509784  0.40874793  0.38666026  1
  O  O263  1  0.51585152  0.48790218  0.86347364  1
  O  O264  1  0.49854379  0.94541566  0.37274151  1
  O  O265  1  0.45665127  1.02365036  0.84779378  1
  O  O266  1  1.04470025  0.49207733  0.33313904  1
  O  O267  1  0.97872522  0.52233067  0.87124389  1
  O  O268  1  0.84840778  1.05741744  0.42124382  1
  O  O269  1  0.97560289  1.00669897  0.90770832  1
  O  O270  1  0.03969582  -0.01003380  0.12803397  1
  O  O271  1  0.04974549  0.00650346  0.54923740  1
  O  O272  1  -0.02485828  0.46743831  0.07413718  1
  O  O273  1  0.11332672  0.41849031  0.56586136  1
  O  O274  1  0.51861559  -0.03117232  0.05209040  1
  O  O275  1  0.48372370  -0.02340533  0.66513217  1
  O  O276  1  0.48612708  0.44787241  0.15152758  1
  O  O277  1  0.53232850  0.48349511  0.61698547  1
  O  O278  1  0.23312871  0.25150638  0.14591148  1
  O  O279  1  0.25842760  0.42233204  0.75557370  1
  O  O280  1  0.42517051  0.99190351  0.23857796  1
  O  O281  1  0.21107013  0.85338024  0.71258263  1
  O  O282  1  0.67161010  0.26903127  0.30512543  1
  O  O283  1  0.72229256  0.43375963  0.67630807  1
  O  O284  1  0.78052558  0.92312474  0.26904538  1
  O  O285  1  0.69394884  0.96447835  0.80105235  1
  O  O286  1  0.30684512  0.11379619  0.33477866  1
  O  O287  1  0.23127993  0.15085450  0.75774640  1
  O  O288  1  0.34235147  0.51625041  0.25079586  1
  O  O289  1  0.26932268  0.62110870  0.77659063  1
  O  O290  1  0.66598475  0.10776212  0.30291778  1
  O  O291  1  0.80020185  0.09378709  0.74396020  1
  O  O292  1  0.68968495  0.78575221  0.34383374  1
  O  O293  1  0.74739447  0.64253859  0.75057277  1
  O  O294  1  0.29352880  0.10885600  0.49190127  1
  O  O295  1  0.33854534  0.11414399  0.85026343  1
  O  O296  1  0.32672991  0.63569538  0.39683837  1
  O  O297  1  0.40408895  0.58834785  0.91520425  1
  O  O298  1  0.68305255  0.04072806  0.31717842  1
  O  O299  1  0.89711322  0.17461505  0.85218944  1
  O  O300  1  0.90292057  0.59299381  0.43483062  1
  O  O301  1  0.85922509  0.62445494  0.85450659  1
  O  O302  1  0.13477629  0.43831612  0.10968765  1
  O  O303  1  0.08325273  0.41420652  0.63707772  1
  O  O304  1  0.15224323  0.88476696  0.10929326  1
  O  O305  1  0.12298139  0.83692129  0.60407987  1
  O  O306  1  0.63930187  0.37435992  0.17099415  1
  O  O307  1  0.60876182  0.38109403  0.62662821  1
  O  O308  1  0.62403192  0.90510397  0.08709179  1
  O  O309  1  0.62493795  0.89037265  0.62329180  1
  O  O310  1  0.06453372  0.24423616  0.26952499  1
  O  O311  1  0.07472297  0.24845551  0.77968337  1
  O  O312  1  0.07907532  0.78082963  0.27563610  1
  O  O313  1  0.09754459  0.76901939  0.77783662  1
  O  O314  1  0.60455411  0.24844840  0.30913828  1
  O  O315  1  0.56335802  0.24963616  0.68247817  1
  O  O316  1  0.59280704  0.68220213  0.25102738  1
  O  O317  1  0.64916841  0.76243598  0.80293727  1
  O  O318  1  0.48734141  0.15082629  0.24163500  1
  O  O319  1  0.36859361  0.24916655  0.76218907  1
  O  O320  1  0.35339279  0.74845717  0.23606796  1
  O  O321  1  0.36224491  0.74032874  0.70530680  1
  O  O322  1  0.87519352  0.24374719  0.20003843  1
  O  O323  1  0.91124744  0.22209787  0.68386304  1
  O  O324  1  1.03341756  0.97381714  0.35960797  1
  O  O325  1  0.87266097  0.74409468  0.77312594  1
  O  O326  1  0.38401937  0.48807238  0.50777342  1
  O  O327  1  0.41218854  0.47365204  1.01992570  1
  O  O328  1  0.40170995  0.94590011  0.49985620  1
  O  O329  1  0.35126031  1.00321347  0.95534627  1
  O  O330  1  0.82788415  0.59946815  0.46906025  1
  O  O331  1  0.87622130  0.50284119  0.96806485  1
  O  O332  1  0.85463352  0.92851528  0.53883755  1
  O  O333  1  0.89480522  0.99213732  1.05571375  1
  O  O334  1  0.10190429  -0.01012394  -0.01119002  1
  O  O335  1  0.01614650  0.04374946  0.50081634  1
  O  O336  1  0.09292336  0.51005333  -0.03068542  1
  O  O337  1  0.13027728  0.56794484  0.48955780  1
  O  O338  1  0.64148605  0.00231997  -0.03218641  1
  O  O339  1  0.60178978  0.04881718  0.46867262  1
  O  O340  1  0.60919270  0.52615384  0.11765697  1
  O  O341  1  0.65453771  0.46073767  0.52879750  1
  O  O342  1  0.34666454  0.36216038  0.12135400  1
  O  O343  1  0.40230858  0.38404427  0.61452516  1
  O  O344  1  0.34353965  0.90680612  0.10583218  1
  O  O345  1  0.32919855  0.88507559  0.62632919  1
  O  O346  1  0.78916213  0.34271972  0.09166978  1
  O  O347  1  0.85876516  0.36132939  0.63581256  1
  O  O348  1  0.92178029  0.88157981  0.21971497  1
  O  O349  1  0.85600049  0.79363032  0.58922031  1
  O  O350  1  0.15960031  0.16448654  0.36212471  1
  O  O351  1  0.11617695  0.09032457  0.83985458  1
  O  O352  1  0.14900865  0.66139056  0.34854374  1
  O  O353  1  0.12734816  0.65422448  0.86802196  1
  O  O354  1  0.57421810  0.09722513  0.42725539  1
  O  O355  1  0.74129593  0.19254824  0.86005231  1
  O  O356  1  0.59888461  0.67232447  0.31981254  1
  O  O357  1  0.64555417  0.61565023  0.86805759  1
