# generated using pymatgen
data_V51Zn51O256
_symmetry_space_group_name_H-M   'P 1'
_cell_length_a   17.57043497
_cell_length_b   17.42712542
_cell_length_c   17.89950091
_cell_angle_alpha   89.13664421
_cell_angle_beta   90.52275305
_cell_angle_gamma   90.36579474
_symmetry_Int_Tables_number   1
_chemical_formula_structural   V51Zn51O256
_chemical_formula_sum   'V51 Zn51 O256'
_cell_volume   5479.90881611
_cell_formula_units_Z   1
loop_
 _symmetry_equiv_pos_site_id
 _symmetry_equiv_pos_as_xyz
  1  'x, y, z'
loop_
 _atom_site_type_symbol
 _atom_site_label
 _atom_site_symmetry_multiplicity
 _atom_site_fract_x
 _atom_site_fract_y
 _atom_site_fract_z
 _atom_site_occupancy
  V  V0  1  0.88260421  0.05288392  0.41768326  1
  V  V1  1  0.62090055  0.27769222  0.40103741  1
  V  V2  1  0.09909970  0.11103550  -0.04805831  1
  V  V3  1  0.59620925  0.49709537  0.65199409  1
  V  V4  1  0.09351089  0.66189465  0.47969013  1
  V  V5  1  0.55299982  0.83639564  0.88259412  1
  V  V6  1  0.31798410  0.87980960  -0.03038416  1
  V  V7  1  0.23414624  0.53580150  0.77142164  1
  V  V8  1  -0.05034075  0.52335523  0.52384799  1
  V  V9  1  0.37347421  0.11850097  0.24350443  1
  V  V10  1  0.30244657  0.16537482  0.82732082  1
  V  V11  1  0.63455704  -0.01859865  0.66362301  1
  V  V12  1  0.14877495  0.27658227  0.38922419  1
  V  V13  1  0.98510347  0.20077027  0.61918251  1
  V  V14  1  0.75465251  0.09797365  0.28014157  1
  V  V15  1  0.46696657  0.40524990  0.35843840  1
  V  V16  1  0.87738419  0.70666512  0.10888904  1
  V  V17  1  -0.00931683  0.92323849  0.86699178  1
  V  V18  1  0.47941383  0.74174241  0.23620067  1
  V  V19  1  0.35393816  0.40004711  0.00593694  1
  V  V20  1  0.49153032  0.27445470  0.23065182  1
  V  V21  1  0.07455647  -0.02390039  0.60014281  1
  V  V22  1  0.64682390  0.48660011  0.11194885  1
  V  V23  1  0.75421079  0.48080061  0.25639426  1
  V  V24  1  0.83656000  0.94633449  0.00255770  1
  V  V25  1  0.03027243  0.24253340  0.77519562  1
  V  V26  1  0.00249583  0.47988973  -0.01867722  1
  V  V27  1  0.30461297  -0.02396153  0.80139846  1
  V  V28  1  0.48523753  0.38662549  0.89202020  1
  V  V29  1  0.85790700  0.73047861  0.60947270  1
  V  V30  1  -0.04927718  0.78036156  0.25502828  1
  V  V31  1  0.22917820  0.65241838  0.37766353  1
  V  V32  1  -0.00621868  0.38980130  0.38718950  1
  V  V33  1  0.74013363  0.60258876  0.88410121  1
  V  V34  1  0.12153615  0.50900795  0.17036792  1
  V  V35  1  0.24910417  0.20454503  0.00316470  1
  V  V36  1  0.35396786  0.54183441  0.88879993  1
  V  V37  1  0.46493670  0.74020420  0.60935800  1
  V  V38  1  0.41173330  0.92243839  0.46946252  1
  V  V39  1  0.24971542  0.40030584  0.64056648  1
  V  V40  1  0.88885757  0.59426092  0.26566557  1
  V  V41  1  0.38375405  0.23504649  0.10953883  1
  V  V42  1  0.53989314  0.62042697  0.12548717  1
  V  V43  1  0.66459974  0.74040609  0.34932082  1
  V  V44  1  -0.03039181  0.70459587  0.75139100  1
  V  V45  1  0.76484889  0.78600365  0.47803936  1
  V  V46  1  0.12095029  0.38749085  0.76444141  1
  V  V47  1  0.51529952  0.88197708  0.33956391  1
  V  V48  1  0.94400439  0.05255775  0.72518439  1
  V  V49  1  0.21437406  0.35821058  0.11092459  1
  V  V50  1  0.10320781  0.63444594  -0.02350766  1
  Zn  Zn51  1  0.19143033  0.45841513  0.44585902  1
  Zn  Zn52  1  0.95006139  0.43156834  0.19161884  1
  Zn  Zn53  1  0.24034259  0.95010372  0.51603992  1
  Zn  Zn54  1  0.43730613  0.92741921  0.66338003  1
  Zn  Zn55  1  0.23676643  0.53998415  0.04285212  1
  Zn  Zn56  1  0.76506972  0.57237439  0.57886168  1
  Zn  Zn57  1  0.12497915  0.50375073  0.60590612  1
  Zn  Zn58  1  0.31473677  0.07569007  0.40636911  1
  Zn  Zn59  1  0.58440129  0.83509568  0.51715489  1
  Zn  Zn60  1  0.55785216  0.09702028  0.29916213  1
  Zn  Zn61  1  0.66566539  0.70539854  0.62132012  1
  Zn  Zn62  1  0.85248035  0.22433262  0.73281623  1
  Zn  Zn63  1  0.12058333  0.01193521  0.78673964  1
  Zn  Zn64  1  0.42456294  0.70266867  0.97672681  1
  Zn  Zn65  1  0.60124352  0.78959044  0.07768724  1
  Zn  Zn66  1  0.93059045  0.65556235  0.93544713  1
  Zn  Zn67  1  0.71962123  0.66500599  0.18752134  1
  Zn  Zn68  1  0.02135615  0.79308859  0.60328414  1
  Zn  Zn69  1  0.45713639  0.20232642  0.39076144  1
  Zn  Zn70  1  0.14825323  0.94083236  0.96095672  1
  Zn  Zn71  1  0.17071600  0.44753023  0.93410796  1
  Zn  Zn72  1  0.82763580  0.93145356  0.19960091  1
  Zn  Zn73  1  0.06319354  0.53186252  0.33707467  1
  Zn  Zn74  1  0.94301386  0.23219773  0.43102029  1
  Zn  Zn75  1  0.69827718  0.28358469  0.24439296  1
  Zn  Zn76  1  0.04663942  0.55852089  0.81906735  1
  Zn  Zn77  1  0.52562393  0.34689893  0.52243995  1
  Zn  Zn78  1  0.40653148  0.45793493  0.73011809  1
  Zn  Zn79  1  0.86347816  0.87538437  0.35778689  1
  Zn  Zn80  1  0.89106127  -0.07836222  0.55069644  1
  Zn  Zn81  1  0.87665116  0.86534723  0.72799058  1
  Zn  Zn82  1  0.08344649  0.29898517  -0.05984306  1
  Zn  Zn83  1  0.76565136  0.73919553  0.77284095  1
  Zn  Zn84  1  0.82814053  0.52584271  0.06387470  1
  Zn  Zn85  1  0.71923982  0.91408711  0.84721447  1
  Zn  Zn86  1  0.75491204  0.10296179  0.78658137  1
  Zn  Zn87  1  0.27779976  0.38307158  0.30184519  1
  Zn  Zn88  1  0.23908946  0.22972797  0.22396049  1
  Zn  Zn89  1  0.91328947  0.68622514  0.42319121  1
  Zn  Zn90  1  0.44154930  0.20077093  0.92731381  1
  Zn  Zn91  1  0.57743277  0.56895200  0.29757303  1
  Zn  Zn92  1  0.80229093  0.35567481  0.35195871  1
  Zn  Zn93  1  0.37241396  0.06396567  0.03194560  1
  Zn  Zn94  1  0.18366861  0.22246614  0.66747479  1
  Zn  Zn95  1  0.41868069  0.73901806  0.41707962  1
  Zn  Zn96  1  -0.00499919  0.78558486  0.03422489  1
  Zn  Zn97  1  0.08845152  0.66451736  0.24982035  1
  Zn  Zn98  1  0.33380037  0.79504228  0.30288688  1
  Zn  Zn99  1  0.26362855  0.33571274  0.84856844  1
  Zn  Zn100  1  0.51014111  0.40357206  0.10241543  1
  Zn  Zn101  1  0.15922738  0.10915637  0.49750125  1
  O  O102  1  0.20952769  -0.01111883  0.16385642  1
  O  O103  1  0.27487980  0.08505972  0.63192551  1
  O  O104  1  0.11701057  0.60642147  0.15912330  1
  O  O105  1  0.12636472  0.60097436  0.54690255  1
  O  O106  1  0.55850764  0.04926209  0.07392111  1
  O  O107  1  0.67192551  0.05690536  0.72103456  1
  O  O108  1  0.64119349  0.61834721  0.12138843  1
  O  O109  1  0.60102941  0.59080500  0.68604628  1
  O  O110  1  0.37155434  0.42189016  0.33120952  1
  O  O111  1  0.34817381  0.36594813  0.91473346  1
  O  O112  1  0.40923937  0.85202465  0.36747194  1
  O  O113  1  0.46655023  0.88433200  0.87922514  1
  O  O114  1  0.90337938  0.32331291  0.38291623  1
  O  O115  1  0.85047771  0.41520095  0.73743343  1
  O  O116  1  0.91536522  0.97538717  0.37087406  1
  O  O117  1  0.91474121  0.89604577  0.94376117  1
  O  O118  1  0.22530242  0.03776132  0.44866955  1
  O  O119  1  0.30858294  0.06460426  0.85031121  1
  O  O120  1  0.23353947  0.55469356  0.39992241  1
  O  O121  1  0.25075111  0.50909318  0.88049578  1
  O  O122  1  0.87037274  0.02111963  0.50953661  1
  O  O123  1  0.73619209  0.02276183  0.85101803  1
  O  O124  1  0.76839799  0.46783378  0.35056004  1
  O  O125  1  0.71989174  0.51023984  0.85937188  1
  O  O126  1  0.20934181  0.47000238  0.12599869  1
  O  O127  1  0.22199151  0.51662357  0.67561011  1
  O  O128  1  0.27148679  0.96157319  0.14999224  1
  O  O129  1  0.31136168  1.04507180  0.58537774  1
  O  O130  1  0.74931859  0.49006603  0.12850035  1
  O  O131  1  0.69839852  0.49665536  0.63163308  1
  O  O132  1  0.80533104  1.03964086  0.22274389  1
  O  O133  1  0.71208425  0.98263103  0.60433195  1
  O  O134  1  -0.00594323  0.40835506  0.29477856  1
  O  O135  1  0.02677632  0.36693924  0.77376635  1
  O  O136  1  -0.07358954  0.87487755  0.23990388  1
  O  O137  1  -0.03740733  0.86077551  0.80347030  1
  O  O138  1  0.47790042  0.36768624  0.20097224  1
  O  O139  1  0.45344849  0.38582167  0.79580793  1
  O  O140  1  0.49424259  0.84468537  0.24477857  1
  O  O141  1  0.54004740  0.80941525  0.79115938  1
  O  O142  1  0.47936873  0.15606716  0.24755335  1
  O  O143  1  0.42726220  0.13515245  0.65818314  1
  O  O144  1  0.50879322  0.62858918  0.22253220  1
  O  O145  1  0.44364202  0.66501400  0.66177440  1
  O  O146  1  1.06430614  0.03881158  0.22316510  1
  O  O147  1  1.02180778  0.14669077  0.75464609  1
  O  O148  1  0.99346558  0.58906178  0.26487765  1
  O  O149  1  0.99303719  0.60941706  0.73850729  1
  O  O150  1  0.35386018  0.23134513  0.00597579  1
  O  O151  1  0.37959466  0.25265463  0.53115532  1
  O  O152  1  0.22530526  0.75332309  -0.13428426  1
  O  O153  1  0.42584940  0.73226552  0.52087816  1
  O  O154  1  0.85568958  0.36012121  -0.10406767  1
  O  O155  1  0.94238501  0.23552937  0.54074210  1
  O  O156  1  0.89548790  0.72702346  0.01131070  1
  O  O157  1  0.84717506  0.71827275  0.50527033  1
  O  O158  1  0.17241679  0.21264032  0.45813974  1
  O  O159  1  0.14096661  0.20788092  0.98414936  1
  O  O160  1  0.05414976  0.74604553  0.51161169  1
  O  O161  1  0.07792603  0.72948307  0.99764198  1
  O  O162  1  0.61697764  0.29281381  0.49654582  1
  O  O163  1  0.68484181  0.14654322  1.07082194  1
  O  O164  1  0.66433998  0.79634932  0.45631761  1
  O  O165  1  0.69399165  0.77549353  1.03542503  1
  O  O166  1  0.47869789  0.25160260  0.11134535  1
  O  O167  1  0.64580801  0.23757196  0.65460359  1
  O  O168  1  0.53891470  0.74036445  0.14678985  1
  O  O169  1  0.56639874  0.75185929  0.59245210  1
  O  O170  1  0.89795734  0.17302169  0.11856787  1
  O  O171  1  1.08089891  0.20933649  0.61270967  1
  O  O172  1  0.95530067  0.77044103  0.13691887  1
  O  O173  1  0.94451924  0.69090383  0.61295410  1
  O  O174  1  0.04778731  0.29775878  0.40440170  1
  O  O175  1  0.01283863  0.24874906  0.86720293  1
  O  O176  1  -0.07277743  0.77558868  0.35470243  1
  O  O177  1  -0.03341529  0.71000971  0.84785412  1
  O  O178  1  0.45487529  0.29572554  0.32301828  1
  O  O179  1  0.49952902  0.28901746  0.91441621  1
  O  O180  1  0.48598000  0.72062248  0.33162972  1
  O  O181  1  0.51901142  0.74318035  0.91043510  1
  O  O182  1  0.21253543  0.12689138  0.60317616  1
  O  O183  1  0.26121392  0.11058778  1.01086642  1
  O  O184  1  0.18834453  0.70417686  0.45216851  1
  O  O185  1  0.19792292  0.63432003  1.01311121  1
  O  O186  1  0.72460235  0.16674797  0.53309598  1
  O  O187  1  0.69708552  0.11247438  1.00924333  1
  O  O188  1  0.68186901  0.63141501  0.54455024  1
  O  O189  1  0.76215902  0.58222373  0.98047774  1
  O  O190  1  0.23601728  0.37910271  0.01145779  1
  O  O191  1  0.21098330  0.44197772  0.55177355  1
  O  O192  1  0.22305640  0.87212734  -0.00604982  1
  O  O193  1  0.31984515  0.88559702  0.48598371  1
  O  O194  1  0.79493379  0.32767581  -0.11723735  1
  O  O195  1  0.76248776  0.34128220  0.55427229  1
  O  O196  1  0.76194282  0.90990801  -0.05128224  1
  O  O197  1  0.81795989  0.86965346  0.46466556  1
  O  O198  1  0.13473572  0.48981713  0.26367493  1
  O  O199  1  0.13072169  0.48999492  0.79153344  1
  O  O200  1  0.19158362  0.97052691  0.29511413  1
  O  O201  1  0.21945732  0.97186908  0.75680992  1
  O  O202  1  0.65742568  0.50629666  0.24537329  1
  O  O203  1  0.63154006  0.43855084  0.72461784  1
  O  O204  1  0.66049391  1.07134612  0.28160208  1
  O  O205  1  0.67253591  0.92356752  0.74053896  1
  O  O206  1  0.38369108  0.02558779  0.24643657  1
  O  O207  1  0.37485793  -0.02934474  0.73697311  1
  O  O208  1  0.37383421  0.56720191  0.29301819  1
  O  O209  1  0.34433940  0.53535057  0.78185781  1
  O  O210  1  0.79512523  0.08786833  0.37453079  1
  O  O211  1  0.89698485  -0.02643072  0.69385073  1
  O  O212  1  0.87269290  0.49213266  0.23764081  1
  O  O213  1  0.87213738  0.47941093  0.71639935  1
  O  O214  1  0.20990392  0.36021118  0.38803181  1
  O  O215  1  0.15398062  0.35864284  0.87145091  1
  O  O216  1  0.24450183  0.92449355  0.31198592  1
  O  O217  1  0.09260443  0.92540437  0.86724867  1
  O  O218  1  0.57477580  0.35564405  0.36485746  1
  O  O219  1  0.57247131  0.41924594  0.88978334  1
  O  O220  1  0.60242167  0.83110685  0.34183787  1
  O  O221  1  0.65189810  0.81666554  0.87125016  1
  O  O222  1  0.37929785  0.13107411  0.12348755  1
  O  O223  1  0.34434311  0.19013239  0.52983115  1
  O  O224  1  0.34143885  0.57687479  0.23331030  1
  O  O225  1  0.26918077  0.68372377  0.61879379  1
  O  O226  1  0.83325627  0.16667367  0.09440521  1
  O  O227  1  0.95029282  0.10621238  0.63336611  1
  O  O228  1  0.88315994  0.60808771  0.11514735  1
  O  O229  1  0.78896473  0.65923120  0.64281417  1
  O  O230  1  0.24385254  0.24281923  0.09746888  1
  O  O231  1  0.24574580  0.30456224  0.62304038  1
  O  O232  1  0.19579836  0.80927431  0.14009887  1
  O  O233  1  0.26760264  0.80257529  0.71439517  1
  O  O234  1  0.83308748  0.31227612  0.04281542  1
  O  O235  1  0.77778831  0.15814525  0.57770022  1
  O  O236  1  0.78370882  0.73271162  0.12517518  1
  O  O237  1  0.74147139  0.78058738  0.57432298  1
  O  O238  1  0.16018212  0.23372714  0.30628269  1
  O  O239  1  0.25789032  0.22646654  0.89579893  1
  O  O240  1  0.32004802  0.70025292  0.37108045  1
  O  O241  1  0.16497843  0.77966628  0.84438546  1
  O  O242  1  0.71509064  0.28264181  0.36687943  1
  O  O243  1  0.66186842  0.24402876  0.92910054  1
  O  O244  1  0.76117529  0.73238639  0.38772307  1
  O  O245  1  0.75824636  0.70705732  0.88348983  1
  O  O246  1  0.00679712  0.12006926  -0.04547500  1
  O  O247  1  0.07252433  0.05167928  0.53833330  1
  O  O248  1  0.00306354  0.59626736  -0.00411756  1
  O  O249  1  -0.01876004  0.61093891  0.48023310  1
  O  O250  1  0.44854098  0.10267222  -0.03264118  1
  O  O251  1  0.45878827  0.24712612  0.50045537  1
  O  O252  1  0.48762930  0.64686012  0.04653602  1
  O  O253  1  0.29852183  0.63347461  0.58290998  1
  O  O254  1  0.46158336  0.40275025  0.45409861  1
  O  O255  1  0.45717080  0.40325706  1.00636050  1
  O  O256  1  0.51362361  0.88396492  0.45065884  1
  O  O257  1  0.55914774  0.83613347  0.98514649  1
  O  O258  1  0.94499575  0.41732428  0.48985244  1
  O  O259  1  1.03472101  0.38466607  0.98493777  1
  O  O260  1  1.10119347  0.86845314  0.39327272  1
  O  O261  1  0.99170157  0.89044383  0.97751866  1
  O  O262  1  0.50968685  0.49053677  0.33443489  1
  O  O263  1  0.43871880  0.49714737  0.89409917  1
  O  O264  1  0.52896712  0.97676985  0.32279820  1
  O  O265  1  0.59024119  0.93393363  0.87991530  1
  O  O266  1  0.92277877  0.46721328  0.42620154  1
  O  O267  1  0.98619702  0.49426293  0.88714344  1
  O  O268  1  1.07559680  0.91524178  0.34835504  1
  O  O269  1  0.96936386  1.01051302  0.82418936  1
  O  O270  1  0.05629001  -0.02550963  0.19755182  1
  O  O271  1  0.05653889  0.00601026  0.69532862  1
  O  O272  1  0.03720696  0.46840549  0.13860236  1
  O  O273  1  0.01200990  0.50527522  0.59456254  1
  O  O274  1  0.50633192  0.00733448  0.09454499  1
  O  O275  1  0.53830742  -0.03659940  0.70081978  1
  O  O276  1  0.53540413  0.51791034  0.12465619  1
  O  O277  1  0.50180896  0.50448691  0.68542253  1
  O  O278  1  0.24070829  0.34243850  0.21100602  1
  O  O279  1  0.24038356  0.38677231  0.75279955  1
  O  O280  1  0.23949395  0.85218202  0.27978435  1
  O  O281  1  0.31236256  0.89986983  0.86930019  1
  O  O282  1  0.76149812  0.37537984  0.24017769  1
  O  O283  1  0.75433785  0.20641410  0.76066965  1
  O  O284  1  0.78303987  0.88178561  0.28430003  1
  O  O285  1  0.78737585  0.84611663  0.79129504  1
  O  O286  1  0.27317591  0.12799829  0.23448807  1
  O  O287  1  0.26197266  0.18230537  0.74348943  1
  O  O288  1  0.19397807  0.67131725  0.28969108  1
  O  O289  1  0.21688332  0.62698179  0.77252016  1
  O  O290  1  0.76038711  0.19023347  0.24370963  1
  O  O291  1  0.64932565  0.24688135  0.86206592  1
  O  O292  1  0.78009997  0.59087853  0.24375003  1
  O  O293  1  0.74576001  0.61860349  0.78404094  1
  O  O294  1  0.37008366  0.14850010  0.34910333  1
  O  O295  1  0.39274774  0.19783592  0.82349280  1
  O  O296  1  0.41342859  0.56579761  0.48604770  1
  O  O297  1  0.36886579  0.63578998  0.90949395  1
  O  O298  1  0.94947463  0.12656366  0.41143740  1
  O  O299  1  0.86973309  0.10615968  0.75948130  1
  O  O300  1  0.87709442  0.60192309  0.35818217  1
  O  O301  1  0.84518866  0.59166965  0.88833687  1
  O  O302  1  0.12517744  0.33493263  0.10923394  1
  O  O303  1  0.12788627  0.40097029  0.66698576  1
  O  O304  1  0.13658634  0.84495686  0.14597257  1
  O  O305  1  0.19893445  0.79807745  0.70423018  1
  O  O306  1  0.62006511  0.39154925  0.12778690  1
  O  O307  1  0.55804338  0.40710956  0.60833212  1
  O  O308  1  0.60856818  0.90034477  0.12882939  1
  O  O309  1  0.61415570  0.90062172  0.60468187  1
  O  O310  1  0.05057228  0.18523090  0.15412221  1
  O  O311  1  0.12647555  0.26673670  0.75527598  1
  O  O312  1  0.04717838  0.76646394  0.25814661  1
  O  O313  1  0.03488169  0.76704415  0.70841680  1
  O  O314  1  0.58855912  0.26407589  0.23464309  1
  O  O315  1  0.59572104  0.24417024  0.70166399  1
  O  O316  1  0.68134886  0.74208949  0.25530925  1
  O  O317  1  0.67089180  0.73763383  0.72158697  1
  O  O318  1  0.36995199  0.24691649  0.20759950  1
  O  O319  1  0.44566841  0.20177898  0.67100129  1
  O  O320  1  0.38370968  0.74320073  0.21792948  1
  O  O321  1  0.43274838  0.81856933  0.65962050  1
  O  O322  1  0.84513987  0.34138386  0.10574392  1
  O  O323  1  0.94734427  0.26082473  0.69842823  1
  O  O324  1  0.88644975  0.69786762  0.23169776  1
  O  O325  1  0.87013830  0.73553624  0.72924618  1
  O  O326  1  0.37073182  0.51732047  0.51293579  1
  O  O327  1  0.33302705  0.50161070  1.00206028  1
  O  O328  1  0.40260089  1.00882675  0.42519447  1
  O  O329  1  0.35684256  0.95567573  1.01555836  1
  O  O330  1  0.85890780  0.53113501  0.55663922  1
  O  O331  1  0.91194349  0.47247749  1.02326009  1
  O  O332  1  1.00614357  0.90480623  0.57294090  1
  O  O333  1  0.84228795  1.03922998  0.98966287  1
  O  O334  1  0.11940261  0.03062127  0.00946018  1
  O  O335  1  0.16331345  -0.06361725  0.59160725  1
  O  O336  1  0.11061218  0.51476571  -0.00542328  1
  O  O337  1  0.07423815  0.45024154  0.41573367  1
  O  O338  1  0.65775450  -0.05135368  0.11070951  1
  O  O339  1  0.58699813  0.05665548  0.61773259  1
  O  O340  1  0.64104689  0.48933654  0.02034182  1
  O  O341  1  0.58603937  0.52220209  0.55482903  1
  O  O342  1  0.34996762  0.35120703  0.09358020  1
  O  O343  1  0.34558496  0.42385289  0.64656899  1
  O  O344  1  0.36709293  0.79635273  -0.01290963  1
  O  O345  1  0.43731234  0.94999237  0.55973498  1
  O  O346  1  0.91680360  0.33367137  0.13547281  1
  O  O347  1  0.77296889  0.32453612  0.62072141  1
  O  O348  1  0.83408233  0.91826134  0.09555902  1
  O  O349  1  0.87506834  0.83484242  0.61959706  1
  O  O350  1  0.01826323  0.21329562  0.20733999  1
  O  O351  1  0.13022317  0.08973648  0.86244324  1
  O  O352  1  0.08843602  0.62915700  0.38480773  1
  O  O353  1  0.10677110  0.63067440  0.88158814  1
  O  O354  1  0.56923454  0.18873976  0.38419420  1
  O  O355  1  0.68147373  0.22020176  1.07169673  1
  O  O356  1  0.62285448  0.65243616  0.36071155  1
  O  O357  1  0.64729920  0.62219417  0.90395922  1
