# generated using pymatgen
data_V51Zn51O256
_symmetry_space_group_name_H-M   'P 1'
_cell_length_a   17.28682875
_cell_length_b   17.38663360
_cell_length_c   17.20286826
_cell_angle_alpha   88.79932430
_cell_angle_beta   89.96579423
_cell_angle_gamma   90.56096452
_symmetry_Int_Tables_number   1
_chemical_formula_structural   V51Zn51O256
_chemical_formula_sum   'V51 Zn51 O256'
_cell_volume   5169.10523996
_cell_formula_units_Z   1
loop_
 _symmetry_equiv_pos_site_id
 _symmetry_equiv_pos_as_xyz
  1  'x, y, z'
loop_
 _atom_site_type_symbol
 _atom_site_label
 _atom_site_symmetry_multiplicity
 _atom_site_fract_x
 _atom_site_fract_y
 _atom_site_fract_z
 _atom_site_occupancy
  V  V0  1  0.47253651  0.66564013  0.65313011  1
  V  V1  1  0.51276939  0.01164667  0.49534767  1
  V  V2  1  0.52746769  0.13515637  0.16117396  1
  V  V3  1  0.50416562  0.91861935  0.88421100  1
  V  V4  1  0.46690958  0.35430712  0.85494309  1
  V  V5  1  0.36682434  0.60131749  0.21526332  1
  V  V6  1  0.03011467  0.46590890  0.55577438  1
  V  V7  1  0.00794416  0.36823993  0.35049541  1
  V  V8  1  0.86795544  0.25063485  0.10558160  1
  V  V9  1  0.35479937  0.79154812  0.63141007  1
  V  V10  1  0.23190400  0.79102907  0.46739196  1
  V  V11  1  0.15802815  0.35054752  0.74240534  1
  V  V12  1  0.83067148  0.60745731  0.75047360  1
  V  V13  1  0.22609910  0.87042849  0.09589816  1
  V  V14  1  0.47960750  0.44602446  0.37911136  1
  V  V15  1  0.88950212  0.56487730  0.41278717  1
  V  V16  1  0.22094076  0.24585770  0.50600162  1
  V  V17  1  0.78692083  0.70650890  0.00418282  1
  V  V18  1  0.10983289  0.49184952  0.13220632  1
  V  V19  1  0.97521103  0.03469696  0.33963684  1
  V  V20  1  0.25487466  0.64036965  0.88702635  1
  V  V21  1  0.66707504  0.23257889  0.39131261  1
  V  V22  1  -0.00997129  0.09694812  0.65617830  1
  V  V23  1  0.12052953  0.71629879  0.32015215  1
  V  V24  1  0.76864273  0.92703177  0.11007407  1
  V  V25  1  0.88410436  0.22241486  0.67222908  1
  V  V26  1  0.67498734  0.14884201  0.91286389  1
  V  V27  1  0.36791829  0.51120588  0.89662637  1
  V  V28  1  0.01374738  0.72898778  0.74365411  1
  V  V29  1  0.74739899  -0.06397494  0.72323998  1
  V  V30  1  -0.01674756  0.87745177  0.84390649  1
  V  V31  1  0.15103790  0.23515232  0.92191819  1
  V  V32  1  0.09839416  0.59674180  -0.03405416  1
  V  V33  1  -0.00335136  0.84334212  0.36818258  1
  V  V34  1  0.80682262  0.45237401  0.89143803  1
  V  V35  1  0.24695923  0.13973347  0.34176788  1
  V  V36  1  0.90551787  0.32530848  0.51066705  1
  V  V37  1  0.77754193  0.35133879  0.64588867  1
  V  V38  1  0.14173232  0.89867236  0.76094498  1
  V  V39  1  0.61555880  0.76829002  0.36522272  1
  V  V40  1  0.35441063  0.36619090  0.02039574  1
  V  V41  1  0.32552619  0.59064252  0.69889006  1
  V  V42  1  0.24136079  0.37479673  0.16566033  1
  V  V43  1  0.34936236  0.75006521  0.08536122  1
  V  V44  1  0.14798932  0.59908211  0.55037885  1
  V  V45  1  0.25502456  0.60917582  0.38112692  1
  V  V46  1  0.78047866  0.50801572  0.27197048  1
  V  V47  1  0.10084350  0.02622639  0.09058548  1
  V  V48  1  0.13216195  0.00645736  0.58814336  1
  V  V49  1  0.11678316  0.89134259  0.24151524  1
  V  V50  1  0.88365470  0.90996719  -0.01828014  1
  Zn  Zn51  1  0.37637811  0.66743962  0.51654970  1
  Zn  Zn52  1  0.07696510  0.29159727  0.10815728  1
  Zn  Zn53  1  0.85611757  0.25397616  0.89217364  1
  Zn  Zn54  1  0.06448047  0.06461701  0.84366708  1
  Zn  Zn55  1  0.44297795  0.97236370  0.16009847  1
  Zn  Zn56  1  1.05792110  0.18468891  0.41099496  1
  Zn  Zn57  1  0.56317208  -0.03580976  0.29386841  1
  Zn  Zn58  1  0.82548855  0.77897686  0.81614083  1
  Zn  Zn59  1  0.34078309  0.40526424  0.70646630  1
  Zn  Zn60  1  0.07469626  0.52948651  0.33079025  1
  Zn  Zn61  1  0.69330510  0.17745202  0.70041317  1
  Zn  Zn62  1  0.92536360  0.44355252  0.17160707  1
  Zn  Zn63  1  0.06590583  0.27761745  0.59399789  1
  Zn  Zn64  1  0.80100948  0.88289596  0.34301159  1
  Zn  Zn65  1  0.78061022  0.54425238  0.57027300  1
  Zn  Zn66  1  0.96346487  0.93714906  0.16170945  1
  Zn  Zn67  1  0.46937370  0.20077479  0.97341210  1
  Zn  Zn68  1  0.16267040  0.78412800  0.92731012  1
  Zn  Zn69  1  0.17170026  0.44605474  0.88507965  1
  Zn  Zn70  1  0.18390477  0.42665820  0.44357048  1
  Zn  Zn71  1  0.52251858  0.80085830  0.18227802  1
  Zn  Zn72  1  0.17889191  0.18343812  0.18961421  1
  Zn  Zn73  1  0.14749970  0.69199586  0.10852546  1
  Zn  Zn74  1  0.75510515  0.41732472  0.43580947  1
  Zn  Zn75  1  0.66709763  0.64371610  0.66430751  1
  Zn  Zn76  1  0.44312132  0.70808941  0.90416704  1
  Zn  Zn77  1  0.07689670  0.91950481  -0.03352252  1
  Zn  Zn78  1  0.32152293  0.33589090  0.35471378  1
  Zn  Zn79  1  0.99558070  0.73427185  0.95905721  1
  Zn  Zn80  1  0.42686616  0.40256470  0.21250701  1
  Zn  Zn81  1  0.66606593  0.94680134  0.96807045  1
  Zn  Zn82  1  0.99134534  0.70539262  0.46873056  1
  Zn  Zn83  1  0.18052216  0.97543738  0.39863764  1
  Zn  Zn84  1  0.19458723  0.70788422  0.71013728  1
  Zn  Zn85  1  0.78184505  0.51455248  0.07003489  1
  Zn  Zn86  1  0.78844143  0.06421967  0.58921963  1
  Zn  Zn87  1  0.53216406  0.80970713  0.53136289  1
  Zn  Zn88  1  0.28327278  0.30656390  0.86412047  1
  Zn  Zn89  1  0.45629330  0.63470492  0.36436288  1
  Zn  Zn90  1  0.71798562  0.18907689  0.21465224  1
  Zn  Zn91  1  0.61548927  0.46059983  0.95392107  1
  Zn  Zn92  1  0.19759468  0.15624468  0.66599633  1
  Zn  Zn93  1  0.70394913  1.03124621  0.40732256  1
  Zn  Zn94  1  0.09378750  0.54269302  0.72341135  1
  Zn  Zn95  1  0.29710742  0.54422876  0.06337944  1
  Zn  Zn96  1  0.44973352  0.95758932  0.68686364  1
  Zn  Zn97  1  0.46240915  0.23184580  0.32709186  1
  Zn  Zn98  1  0.30039306  0.06141777  0.49903141  1
  Zn  Zn99  1  0.06604560  0.82626431  0.58443270  1
  Zn  Zn100  1  0.28408689  0.02716055  0.18096181  1
  Zn  Zn101  1  0.63114233  0.55413593  0.37136779  1
  O  O102  1  0.14590306  0.10927532  0.11469193  1
  O  O103  1  0.10749883  0.10224195  0.63236529  1
  O  O104  1  0.11660546  0.58872896  0.07723478  1
  O  O105  1  0.16222484  0.61031415  0.65127953  1
  O  O106  1  0.63151550  0.14805399  0.16024461  1
  O  O107  1  0.69119044  0.09254747  0.63814358  1
  O  O108  1  0.57496958  0.76660876  0.07760268  1
  O  O109  1  0.59653789  0.50662727  0.76366951  1
  O  O110  1  0.37964374  0.43256482  0.37745965  1
  O  O111  1  0.36914466  0.37167900  0.90074998  1
  O  O112  1  0.37395352  0.84817529  0.35827467  1
  O  O113  1  0.41101388  0.91305405  0.91843735  1
  O  O114  1  0.92780618  0.37028840  0.41576700  1
  O  O115  1  0.84156764  0.35990818  0.87539113  1
  O  O116  1  0.89909877  0.83234512  0.35840687  1
  O  O117  1  0.88069759  0.86968345  0.87451492  1
  O  O118  1  0.27008069  0.04685324  0.39171283  1
  O  O119  1  0.27700944  0.05112119  0.86942062  1
  O  O120  1  0.24513308  0.51484196  0.40146624  1
  O  O121  1  0.27334640  0.50025521  0.86429082  1
  O  O122  1  0.86187408  -0.00282698  0.32838004  1
  O  O123  1  0.67397461  0.04449372  0.90775658  1
  O  O124  1  0.82347798  0.50729721  0.46996010  1
  O  O125  1  0.70839579  0.44888637  0.89646100  1
  O  O126  1  0.22463881  0.48018643  0.11817183  1
  O  O127  1  0.37931931  0.45753499  0.53536172  1
  O  O128  1  0.21680283  0.97174239  0.11009962  1
  O  O129  1  0.23150842  1.03054731  0.58484252  1
  O  O130  1  0.82440864  0.49843275  0.17492567  1
  O  O131  1  0.75316814  0.43912973  0.60602341  1
  O  O132  1  0.77561056  1.01700755  0.12949516  1
  O  O133  1  0.78586660  0.96039664  0.63110415  1
  O  O134  1  -0.02326896  0.40089886  0.26202233  1
  O  O135  1  0.07948699  0.27163338  0.75929584  1
  O  O136  1  0.00722052  0.87391896  0.25396178  1
  O  O137  1  -0.00989283  0.88324660  0.74768265  1
  O  O138  1  0.51345377  0.41118832  0.29045908  1
  O  O139  1  0.50135708  0.36357354  0.74986639  1
  O  O140  1  0.51804117  0.90904131  0.20710522  1
  O  O141  1  0.49736649  0.91666354  0.77996269  1
  O  O142  1  0.52967287  0.06355060  0.24236369  1
  O  O143  1  0.49553635  0.18764545  0.67952378  1
  O  O144  1  0.44102584  0.65227578  0.25455591  1
  O  O145  1  0.42435789  0.59091285  0.72073967  1
  O  O146  1  1.03675293  0.05865191  0.27080354  1
  O  O147  1  0.99489432  0.08318271  0.75218519  1
  O  O148  1  0.94956984  0.63816365  0.16991780  1
  O  O149  1  1.03546539  0.63445499  0.75013424  1
  O  O150  1  0.40795234  0.28295582  0.01959371  1
  O  O151  1  0.41893773  0.28387353  0.41154116  1
  O  O152  1  0.38943452  0.73490946  -0.00201706  1
  O  O153  1  0.32085822  0.77604064  0.51886451  1
  O  O154  1  0.82957527  0.26986866  0.00881473  1
  O  O155  1  0.91876782  0.23335394  0.50019004  1
  O  O156  1  0.89800199  0.69877471  0.02221075  1
  O  O157  1  0.81500548  0.77839768  0.59538048  1
  O  O158  1  0.11845253  0.23057188  0.50215163  1
  O  O159  1  0.11847092  0.25606375  1.01263036  1
  O  O160  1  0.15726702  0.78269595  0.53122520  1
  O  O161  1  0.10352781  0.71206562  0.99602991  1
  O  O162  1  0.67599365  0.22182229  0.48895896  1
  O  O163  1  0.52339786  0.38397665  1.13144200  1
  O  O164  1  0.62450979  0.79066788  0.46762008  1
  O  O165  1  0.63130304  0.74499665  1.03280395  1
  O  O166  1  0.52202207  0.20702792  0.23344812  1
  O  O167  1  0.42371514  0.34044895  0.74444748  1
  O  O168  1  0.42338113  0.77160578  0.14791709  1
  O  O169  1  0.45311496  0.74937873  0.57310701  1
  O  O170  1  0.96505079  0.27847359  0.08420088  1
  O  O171  1  0.99206633  0.20831181  0.64265334  1
  O  O172  1  0.93353853  0.68622129  0.21809346  1
  O  O173  1  0.99548298  0.75879372  0.64729860  1
  O  O174  1  0.03615855  0.27611774  0.34778497  1
  O  O175  1  0.01120730  0.33633041  0.91511815  1
  O  O176  1  0.02400923  0.71973565  0.35295648  1
  O  O177  1  -0.00977595  0.76337370  0.84473546  1
  O  O178  1  0.56467177  0.23702941  0.38013711  1
  O  O179  1  0.47093425  0.25745224  0.87456839  1
  O  O180  1  0.51894734  0.73015256  0.39458736  1
  O  O181  1  0.48915494  0.81427546  0.88403151  1
  O  O182  1  0.27417616  0.17093504  0.47031712  1
  O  O183  1  0.26291447  0.04217709  0.93845022  1
  O  O184  1  0.22330854  0.63151592  0.49417604  1
  O  O185  1  0.24842761  0.60902443  0.98285067  1
  O  O186  1  0.77519313  0.07197729  0.47858266  1
  O  O187  1  0.70706964  0.12447198  1.00645044  1
  O  O188  1  0.70018804  0.61837420  0.56578653  1
  O  O189  1  0.75547058  0.61858580  1.03411227  1
  O  O190  1  0.26148283  0.35049408  0.00563589  1
  O  O191  1  0.24544522  0.33670852  0.45963337  1
  O  O192  1  0.16946725  0.86141245  0.01230397  1
  O  O193  1  0.23555386  0.88346275  0.43606081  1
  O  O194  1  0.66839333  0.47749382  0.05845451  1
  O  O195  1  0.80556768  0.34404950  0.50762352  1
  O  O196  1  0.77568111  0.91109631  -0.00675065  1
  O  O197  1  0.74032780  0.92857812  0.42225543  1
  O  O198  1  0.10781923  0.52141859  0.22416765  1
  O  O199  1  0.13429943  0.44783726  0.77192959  1
  O  O200  1  0.15579182  0.96784624  0.28666205  1
  O  O201  1  0.13444041  0.99531181  0.77936239  1
  O  O202  1  0.68390736  0.52957585  0.27386649  1
  O  O203  1  0.63209691  0.44903025  0.74585256  1
  O  O204  1  0.66772005  0.99306083  0.31004943  1
  O  O205  1  0.65205888  0.96252974  0.72241944  1
  O  O206  1  0.36500653  -0.02425532  0.23777034  1
  O  O207  1  0.39904912  0.05341371  0.72036358  1
  O  O208  1  0.39616477  0.50985008  0.20685668  1
  O  O209  1  0.29631642  0.49808872  0.67892431  1
  O  O210  1  0.89683330  0.02043912  0.25984023  1
  O  O211  1  0.79069766  -0.00614663  0.78795994  1
  O  O212  1  0.82375643  0.58130734  0.32908947  1
  O  O213  1  0.83938246  0.52902834  0.82276737  1
  O  O214  1  0.08817283  0.42712988  0.38356095  1
  O  O215  1  0.16094808  0.33345075  0.87013752  1
  O  O216  1  0.11397759  0.82579841  0.33134337  1
  O  O217  1  0.10536166  0.86221523  0.86180876  1
  O  O218  1  0.67909628  0.33129255  0.40704078  1
  O  O219  1  0.54064427  0.39156521  0.90879341  1
  O  O220  1  0.57333208  0.86382856  0.35072378  1
  O  O221  1  0.61090568  0.89804562  0.88078178  1
  O  O222  1  0.42712673  0.15048999  0.15703245  1
  O  O223  1  0.32091494  0.05496833  0.71197649  1
  O  O224  1  0.34480446  0.63708514  0.11922340  1
  O  O225  1  0.32113373  0.64361410  0.61524090  1
  O  O226  1  0.88670240  0.15858887  0.07967808  1
  O  O227  1  0.88032367  0.11806304  0.64198270  1
  O  O228  1  0.86135287  0.75937673  0.06309465  1
  O  O229  1  0.84797725  0.57214045  0.66107668  1
  O  O230  1  0.23608489  0.27647684  0.15770594  1
  O  O231  1  0.24265820  0.24210594  0.60322505  1
  O  O232  1  0.24310467  0.74811839  0.09706019  1
  O  O233  1  0.26143288  0.78381386  0.66169025  1
  O  O234  1  0.76239773  0.24897695  0.13231111  1
  O  O235  1  0.77803456  0.23436077  0.65171915  1
  O  O236  1  0.70837113  0.77004637  0.05307532  1
  O  O237  1  0.67133932  0.85078077  0.60548730  1
  O  O238  1  0.27658521  0.23521036  0.33248939  1
  O  O239  1  0.24798874  0.21123411  0.91530894  1
  O  O240  1  0.21952352  0.73125839  0.37812661  1
  O  O241  1  0.25674055  0.73796731  0.88918229  1
  O  O242  1  0.76426926  0.21395427  0.36830362  1
  O  O243  1  0.66625493  0.24518525  0.93831027  1
  O  O244  1  0.70873136  0.80123650  0.34716197  1
  O  O245  1  0.78125060  0.72386593  0.90782857  1
  O  O246  1  -0.06747691  0.18683181  -0.07742650  1
  O  O247  1  -0.09836423  -0.01955914  0.49890611  1
  O  O248  1  0.00494660  0.60817494  -0.05436080  1
  O  O249  1  0.06627745  0.64445041  0.52523376  1
  O  O250  1  0.53221094  0.19084641  0.07358804  1
  O  O251  1  0.51748191  0.11035240  0.50862079  1
  O  O252  1  0.55185743  0.67236841  -0.11945245  1
  O  O253  1  0.47011043  0.60945504  0.57119783  1
  O  O254  1  0.51747445  0.39658031  0.45389840  1
  O  O255  1  0.51138989  0.39987143  1.06109033  1
  O  O256  1  0.49439212  0.90671513  0.50126865  1
  O  O257  1  0.53793348  0.93837991  0.98142599  1
  O  O258  1  1.00735554  0.36535077  0.54637204  1
  O  O259  1  0.99522347  0.39147995  0.95530403  1
  O  O260  1  1.01084584  0.81643824  0.47118715  1
  O  O261  1  0.98156937  0.85393585  0.98084848  1
  O  O262  1  0.51774739  0.54488929  0.38267037  1
  O  O263  1  0.43553974  0.48086424  0.83474900  1
  O  O264  1  0.50895407  1.00420773  0.39212366  1
  O  O265  1  0.49628433  1.01688792  0.86208136  1
  O  O266  1  0.96837402  0.54415765  0.35546664  1
  O  O267  1  0.95236060  0.39987470  0.76235113  1
  O  O268  1  1.01057083  0.94355304  0.38544878  1
  O  O269  1  1.00734049  0.97031877  0.87426755  1
  O  O270  1  0.00313435  0.03647003  0.10914503  1
  O  O271  1  0.00426232  0.01420648  0.60654760  1
  O  O272  1  0.01326326  0.47410553  0.10912910  1
  O  O273  1  0.02229279  0.49481869  0.64839316  1
  O  O274  1  0.52596961  0.04365704  0.11268820  1
  O  O275  1  0.51687445  -0.00822782  0.60054468  1
  O  O276  1  0.56918727  0.55812404  0.10332671  1
  O  O277  1  0.60114974  0.49485694  0.58299021  1
  O  O278  1  0.25476416  0.38971144  0.26102637  1
  O  O279  1  0.26233708  0.34010604  0.75326659  1
  O  O280  1  0.19631656  0.84356211  0.19699844  1
  O  O281  1  0.23377511  0.88545325  0.76903376  1
  O  O282  1  0.79230225  0.42513443  0.32385676  1
  O  O283  1  0.77135938  0.36561952  0.73900255  1
  O  O284  1  0.78606770  0.88455771  0.22324943  1
  O  O285  1  0.76064398  0.83992583  0.74979080  1
  O  O286  1  0.25194265  0.11315284  0.24065163  1
  O  O287  1  0.29110657  0.12299694  0.72750448  1
  O  O288  1  0.28448146  0.61132154  0.28031064  1
  O  O289  1  0.26686520  0.63684218  0.77059404  1
  O  O290  1  0.76144280  0.10477770  0.25644499  1
  O  O291  1  0.66234074  0.15763330  0.80799778  1
  O  O292  1  0.72114123  0.66802729  0.18839342  1
  O  O293  1  0.73522554  0.63363226  0.75083572  1
  O  O294  1  0.40300959  0.14165814  0.34489270  1
  O  O295  1  0.41623985  0.10997244  0.97480408  1
  O  O296  1  0.35470339  0.63507545  0.41359860  1
  O  O297  1  0.37136453  0.61713675  0.88873677  1
  O  O298  1  0.97724878  0.10745137  0.40523635  1
  O  O299  1  0.77378077  0.16869728  0.88040577  1
  O  O300  1  0.89568751  0.65267038  0.45474743  1
  O  O301  1  0.97188127  0.45265574  0.80382669  1
  O  O302  1  0.13045261  0.38338564  0.14191064  1
  O  O303  1  0.13702242  0.35502863  0.64588995  1
  O  O304  1  0.08352926  0.92545586  0.14445351  1
  O  O305  1  0.12160003  0.91353157  0.64239932  1
  O  O306  1  0.62624367  0.51877670  0.12293409  1
  O  O307  1  0.65574151  0.32707476  0.63650216  1
  O  O308  1  0.71286524  0.87841416  0.19644063  1
  O  O309  1  0.60793095  0.81766944  0.62096788  1
  O  O310  1  0.08046494  0.22980463  0.19966192  1
  O  O311  1  0.15076019  0.23524527  0.75350707  1
  O  O312  1  0.11849197  0.70587584  0.22260324  1
  O  O313  1  0.11125318  0.77340420  0.74310340  1
  O  O314  1  0.67086722  0.26194966  0.27844617  1
  O  O315  1  0.62700462  0.27240843  0.67966818  1
  O  O316  1  0.58799112  0.75890049  0.26572815  1
  O  O317  1  0.56454459  0.67569524  0.68616760  1
  O  O318  1  0.40495124  0.30618693  0.26643261  1
  O  O319  1  0.42712103  0.19630841  0.66263285  1
  O  O320  1  0.36597470  0.81324736  0.29747379  1
  O  O321  1  0.40883703  0.74017441  0.70581464  1
  O  O322  1  0.87782743  0.21881387  0.20353578  1
  O  O323  1  0.88499570  0.23022973  0.76797552  1
  O  O324  1  0.77644203  0.70187858  0.21821624  1
  O  O325  1  0.88483536  0.69536793  0.76285309  1
  O  O326  1  0.53647196  0.46857806  0.59318970  1
  O  O327  1  0.37440142  0.48199508  0.99922577  1
  O  O328  1  0.40893792  1.02834912  0.49718630  1
  O  O329  1  0.36598238  1.01704087  1.09911274  1
  O  O330  1  0.96611437  0.51412751  0.50299366  1
  O  O331  1  0.83690609  0.47366737  0.98342113  1
  O  O332  1  0.88402929  0.91419829  0.51541417  1
  O  O333  1  0.90159047  0.99999991  0.96849230  1
  O  O334  1  0.10892002  0.02157226  -0.00997816  1
  O  O335  1  0.11633251  -0.00571576  0.49208403  1
  O  O336  1  0.11488395  0.49728048  -0.03802862  1
  O  O337  1  0.13170186  0.49608816  0.52788919  1
  O  O338  1  0.66493797  -0.06946849  0.07645760  1
  O  O339  1  0.61391770  0.00604593  0.48626628  1
  O  O340  1  0.54729815  0.55787324  -0.05193937  1
  O  O341  1  0.67086185  0.48606393  0.44771992  1
  O  O342  1  0.34842235  0.38360549  0.12608010  1
  O  O343  1  0.38993058  0.39924973  0.57608917  1
  O  O344  1  0.32397519  0.86124415  0.07586275  1
  O  O345  1  0.38107579  0.88591008  0.64228144  1
  O  O346  1  0.87359348  0.35289667  0.12858883  1
  O  O347  1  0.88627396  0.32584606  0.62993118  1
  O  O348  1  0.87737638  0.90414327  0.09481909  1
  O  O349  1  0.81335169  0.77319327  0.52461237  1
  O  O350  1  0.15097850  0.14514199  0.35937485  1
  O  O351  1  0.09633413  0.16043623  0.88622814  1
  O  O352  1  0.14251583  0.61717104  0.35631847  1
  O  O353  1  0.15129884  0.62252558  0.87259494  1
  O  O354  1  0.65139989  0.12927486  0.37841468  1
  O  O355  1  0.57322570  0.14798977  0.92318766  1
  O  O356  1  0.64629903  0.67188168  0.37250420  1
  O  O357  1  0.58991537  0.61163396  0.91056861  1
