# generated using pymatgen
data_V51Zn51O256
_symmetry_space_group_name_H-M   'P 1'
_cell_length_a   17.55806505
_cell_length_b   17.56986831
_cell_length_c   17.75625976
_cell_angle_alpha   89.68259144
_cell_angle_beta   88.09392103
_cell_angle_gamma   86.98692350
_symmetry_Int_Tables_number   1
_chemical_formula_structural   V51Zn51O256
_chemical_formula_sum   'V51 Zn51 O256'
_cell_volume   5467.04126119
_cell_formula_units_Z   1
loop_
 _symmetry_equiv_pos_site_id
 _symmetry_equiv_pos_as_xyz
  1  'x, y, z'
loop_
 _atom_site_type_symbol
 _atom_site_label
 _atom_site_symmetry_multiplicity
 _atom_site_fract_x
 _atom_site_fract_y
 _atom_site_fract_z
 _atom_site_occupancy
  V  V0  1  0.62782262  0.87359808  0.76243204  1
  V  V1  1  0.71525460  0.25209015  -0.03760651  1
  V  V2  1  0.25133252  0.51433606  0.28421986  1
  V  V3  1  -0.04006397  0.35032196  0.33765823  1
  V  V4  1  0.79541897  0.82239004  0.65592253  1
  V  V5  1  0.80343788  0.39553521  0.64237911  1
  V  V6  1  0.47264675  0.37562543  0.81569731  1
  V  V7  1  0.94085306  0.73127599  0.60466937  1
  V  V8  1  0.86709275  0.51177039  0.38008855  1
  V  V9  1  0.23854516  0.25605526  0.39690550  1
  V  V10  1  0.40113989  0.53080470  0.79211981  1
  V  V11  1  0.58929661  0.50465863  0.12104110  1
  V  V12  1  0.36695173  0.58369432  0.42870663  1
  V  V13  1  -0.02234844  -0.00018605  0.49715366  1
  V  V14  1  0.71030637  0.69142489  0.45839839  1
  V  V15  1  0.61077012  0.00264141  0.11434463  1
  V  V16  1  0.86035754  0.35497364  0.00857035  1
  V  V17  1  0.16051324  0.89393133  0.74306166  1
  V  V18  1  0.38450772  0.75326984  0.14718551  1
  V  V19  1  0.36668886  0.06138048  0.77284531  1
  V  V20  1  0.87105063  0.88485706  0.01158969  1
  V  V21  1  0.22486640  0.09924800  0.32524891  1
  V  V22  1  0.81748383  -0.04923221  0.76913074  1
  V  V23  1  0.94305016  0.63716746  0.79259385  1
  V  V24  1  0.62615582  0.11124785  -0.05328780  1
  V  V25  1  0.52406935  0.73822324  0.73148314  1
  V  V26  1  0.79335686  0.23898920  0.13344497  1
  V  V27  1  0.49700323  0.00677083  -0.02412054  1
  V  V28  1  0.58849885  -0.00012852  0.51875167  1
  V  V29  1  0.01067410  0.74453698  0.23531411  1
  V  V30  1  0.81222444  0.59800828  0.22613484  1
  V  V31  1  0.01611021  0.19068119  0.77384058  1
  V  V32  1  0.56490050  0.47534796  0.51347801  1
  V  V33  1  0.51922263  0.19978797  0.31199670  1
  V  V34  1  0.29814663  0.89652055  0.51978980  1
  V  V35  1  0.70477376  0.28125909  0.52272062  1
  V  V36  1  0.64747118  0.72761642  0.87372075  1
  V  V37  1  0.85314202  0.74475855  0.13534987  1
  V  V38  1  0.74971279  0.72125408  0.00489152  1
  V  V39  1  0.00704098  0.88509955  0.32943586  1
  V  V40  1  0.49030422  0.85562428  0.88292964  1
  V  V41  1  -0.05171122  0.11561192  0.10846665  1
  V  V42  1  0.35254988  0.22957623  0.56764300  1
  V  V43  1  0.26515435  0.63096242  0.89080352  1
  V  V44  1  0.37763909  0.09180873  0.25906534  1
  V  V45  1  0.86661761  0.87255769  0.47540732  1
  V  V46  1  0.73957507  0.48943804  0.78107914  1
  V  V47  1  0.35209645  0.32156906  0.02469817  1
  V  V48  1  0.17024819  -0.00476006  0.12344017  1
  V  V49  1  0.72242472  0.87177422  0.10740822  1
  V  V50  1  0.62087290  0.85716451  0.25822668  1
  Zn  Zn51  1  1.00163060  0.23235914  0.97687529  1
  Zn  Zn52  1  0.19590744  0.08819116  0.68462072  1
  Zn  Zn53  1  0.78325789  0.06304049  0.04686958  1
  Zn  Zn54  1  0.56244148  0.79605082  0.04584096  1
  Zn  Zn55  1  0.38844559  0.20272948  0.89824435  1
  Zn  Zn56  1  0.61837442  0.66402400  0.22437532  1
  Zn  Zn57  1  0.76972746  -0.01714115  0.57525524  1
  Zn  Zn58  1  0.27158357  0.44263831  0.88010242  1
  Zn  Zn59  1  0.83715774  0.78527263  0.85015852  1
  Zn  Zn60  1  0.90508793  0.71650422  0.40717700  1
  Zn  Zn61  1  0.13502791  0.39915788  0.33640804  1
  Zn  Zn62  1  0.83182780  0.30838251  0.81770401  1
  Zn  Zn63  1  0.10768840  0.54263833  0.87472251  1
  Zn  Zn64  1  0.32514927  0.94269162  0.92747323  1
  Zn  Zn65  1  0.56071321  0.53795241  0.69305766  1
  Zn  Zn66  1  0.51183220  0.64494777  0.89087344  1
  Zn  Zn67  1  0.53350323  0.99856223  0.67273010  1
  Zn  Zn68  1  0.42165111  0.89462237  0.28901293  1
  Zn  Zn69  1  0.62391913  0.82095076  0.58571858  1
  Zn  Zn70  1  0.79783567  0.53909963  0.07354964  1
  Zn  Zn71  1  0.09094940  0.58897361  0.31084712  1
  Zn  Zn72  1  0.33052107  0.77102688  0.34663092  1
  Zn  Zn73  1  0.09854635  0.05484464  0.85092917  1
  Zn  Zn74  1  0.35538346  0.44661266  0.13582929  1
  Zn  Zn75  1  0.54370103  0.00845309  0.31753410  1
  Zn  Zn76  1  0.63150396  0.43300661  0.93171227  1
  Zn  Zn77  1  0.77274394  0.79106349  0.32148483  1
  Zn  Zn78  1  0.51529438  0.29612320  0.48839161  1
  Zn  Zn79  1  0.15687287  0.92847854  0.42030671  1
  Zn  Zn80  1  0.96346664  0.91695251  0.67369394  1
  Zn  Zn81  1  0.80486106  0.39263821  0.21820456  1
  Zn  Zn82  1  0.41238364  0.55963851  0.59803834  1
  Zn  Zn83  1  0.68653052  0.41801045  0.36930349  1
  Zn  Zn84  1  0.35765782  0.02979600  0.09041011  1
  Zn  Zn85  1  0.52730301  0.29454091  -0.05622051  1
  Zn  Zn86  1  0.23963696  0.10013869  0.50808001  1
  Zn  Zn87  1  0.92152728  0.19292953  0.45654007  1
  Zn  Zn88  1  0.56355555  0.58485361  0.37609174  1
  Zn  Zn89  1  0.70030237  -0.06550870  0.92903291  1
  Zn  Zn90  1  1.01364068  0.91689331  0.13008033  1
  Zn  Zn91  1  0.34126482  0.79077424  0.79784930  1
  Zn  Zn92  1  0.54203867  0.17752353  0.59586438  1
  Zn  Zn93  1  0.10563158  0.17248897  0.18142088  1
  Zn  Zn94  1  0.08511316  0.03493507  0.28461636  1
  Zn  Zn95  1  0.25775951  0.31769898  0.21187344  1
  Zn  Zn96  1  0.64024577  0.31963201  0.20545903  1
  Zn  Zn97  1  0.98147699  0.76945302  0.93644421  1
  Zn  Zn98  1  0.82691051  0.58210394  0.56560423  1
  Zn  Zn99  1  0.14271678  0.87105471  -0.01577493  1
  Zn  Zn100  1  0.39469457  0.59798362  0.02467267  1
  Zn  Zn101  1  0.20297933  0.70983538  0.23588028  1
  O  O102  1  0.14275739  0.09035306  0.11074246  1
  O  O103  1  0.09406757  0.26252112  0.56946575  1
  O  O104  1  0.16563356  0.65485961  0.07368297  1
  O  O105  1  0.11821795  0.63916488  0.64389772  1
  O  O106  1  0.60766762  0.09553567  0.11656338  1
  O  O107  1  0.57350097  0.17862830  0.70302563  1
  O  O108  1  0.60064843  0.60648198  0.12442890  1
  O  O109  1  0.49087913  0.72912032  0.49559567  1
  O  O110  1  0.45556647  0.42165711  0.28683642  1
  O  O111  1  0.37722116  0.43077993  0.82453685  1
  O  O112  1  0.26092738  0.85927257  0.42811376  1
  O  O113  1  0.39309609  0.85557725  0.86972384  1
  O  O114  1  1.00092356  0.43838282  0.69406542  1
  O  O115  1  0.85615219  0.35572311  0.91073413  1
  O  O116  1  0.81982377  0.86399114  0.39519162  1
  O  O117  1  0.89381096  0.84768015  0.91876947  1
  O  O118  1  0.19815968  0.01306309  0.35833570  1
  O  O119  1  0.32607097  -0.00073260  0.83493791  1
  O  O120  1  0.31014042  0.52953017  0.36318296  1
  O  O121  1  0.29212657  0.54761583  0.83501134  1
  O  O122  1  0.81977384  0.06930031  0.38189327  1
  O  O123  1  0.77163625  -0.02541282  0.85317269  1
  O  O124  1  0.78556947  0.46649641  0.37334506  1
  O  O125  1  0.71149531  0.47803177  0.87180540  1
  O  O126  1  0.31803433  0.51484376  0.21107466  1
  O  O127  1  0.19245158  0.41348326  0.56531355  1
  O  O128  1  0.26650688  0.97911297  0.09892270  1
  O  O129  1  0.16562037  1.09727646  0.58733314  1
  O  O130  1  0.69025630  0.49968489  0.09587116  1
  O  O131  1  0.80381792  0.48955676  0.61888047  1
  O  O132  1  0.71892426  0.98079488  0.09831183  1
  O  O133  1  0.78278313  0.97937545  0.68236725  1
  O  O134  1  -0.10497512  0.35438947  0.26976062  1
  O  O135  1  0.07653429  0.25661410  0.74068883  1
  O  O136  1  0.00369793  0.86288835  0.22737795  1
  O  O137  1  0.06209220  0.91801520  0.72755202  1
  O  O138  1  0.52731725  0.22914029  0.10670574  1
  O  O139  1  0.49565587  0.34372540  0.73126483  1
  O  O140  1  0.53111539  0.89540671  0.29844112  1
  O  O141  1  0.52935922  0.85437790  0.76729096  1
  O  O142  1  0.56902081  0.11373182  0.30481668  1
  O  O143  1  0.61090512  0.24471547  0.71115950  1
  O  O144  1  0.53800276  0.62285993  0.27991146  1
  O  O145  1  0.54087242  0.64064291  0.73642696  1
  O  O146  1  0.82876596  0.02001908  0.23205069  1
  O  O147  1  1.00026332  0.10296469  0.83418240  1
  O  O148  1  1.01455427  0.64952015  0.26375308  1
  O  O149  1  1.02244792  0.58307800  0.81393885  1
  O  O150  1  0.33757861  0.23066487  -0.00934630  1
  O  O151  1  0.33580785  0.27911910  0.42561099  1
  O  O152  1  0.34758128  0.78392238  0.06184200  1
  O  O153  1  0.29325568  0.80297841  0.55066398  1
  O  O154  1  0.80440816  0.25675270  0.01184883  1
  O  O155  1  0.81036173  0.23115300  0.50459305  1
  O  O156  1  0.85104799  0.73548483  0.02362053  1
  O  O157  1  0.90479723  0.77949116  0.50537377  1
  O  O158  1  0.04979580  0.31508969  0.59083740  1
  O  O159  1  0.05224670  0.33582436  1.12836170  1
  O  O160  1  0.05419340  0.68633542  0.43999721  1
  O  O161  1  0.16476566  0.71766083  1.04295541  1
  O  O162  1  0.61327384  0.24980405  0.54410019  1
  O  O163  1  0.60885407  0.21868524  0.95792326  1
  O  O164  1  0.67160310  0.77430734  0.49982850  1
  O  O165  1  0.64103296  0.74801587  0.98129539  1
  O  O166  1  0.46881529  0.24384725  0.14351136  1
  O  O167  1  0.45408017  0.24157417  0.56756581  1
  O  O168  1  0.48248714  0.75103150  0.11659693  1
  O  O169  1  0.54794929  0.76282286  0.64135687  1
  O  O170  1  0.99441222  0.17362495  0.16798499  1
  O  O171  1  0.98673060  0.15129511  0.69291314  1
  O  O172  1  0.95313989  0.74038989  0.14945756  1
  O  O173  1  1.03132577  0.73732649  0.58527609  1
  O  O174  1  -0.05544592  0.27957513  0.40496768  1
  O  O175  1  0.03486382  0.22305404  0.87131140  1
  O  O176  1  -0.03343962  0.78019808  0.32963212  1
  O  O177  1  0.07932028  0.80947162  0.93420899  1
  O  O178  1  0.51399422  0.23210288  0.40291886  1
  O  O179  1  0.44561966  0.28966755  0.86479688  1
  O  O180  1  0.42630771  0.81196193  0.36210767  1
  O  O181  1  0.52897750  0.75535481  0.87118866  1
  O  O182  1  0.20244746  0.16485262  0.42334901  1
  O  O183  1  0.12333950  0.24028756  0.99926321  1
  O  O184  1  0.17762452  0.56969159  0.50710860  1
  O  O185  1  0.29978545  0.62054886  0.98096016  1
  O  O186  1  0.75167697  0.18087584  0.51638755  1
  O  O187  1  0.71973231  0.13226877  0.98452275  1
  O  O188  1  0.73364034  0.63021048  0.52942642  1
  O  O189  1  0.75183330  0.62581190  1.01256415  1
  O  O190  1  0.30309079  0.38653325  -0.03008291  1
  O  O191  1  0.17110118  0.32654205  0.41432800  1
  O  O192  1  0.24376227  0.88244208  -0.04692671  1
  O  O193  1  0.19447256  0.92611255  0.52866606  1
  O  O194  1  0.67969768  0.34379015  -0.02039790  1
  O  O195  1  0.73389195  0.33656598  0.59983404  1
  O  O196  1  0.75821064  0.86639586  0.00122213  1
  O  O197  1  0.78908705  0.86395925  0.56251862  1
  O  O198  1  0.14789684  0.50521905  0.34724640  1
  O  O199  1  0.17740719  0.49008674  0.68949348  1
  O  O200  1  0.14922504  0.97109463  0.21435758  1
  O  O201  1  0.19602321  0.97927709  0.69954718  1
  O  O202  1  0.60514678  0.50059557  0.21863253  1
  O  O203  1  0.66302620  0.50372035  0.72754426  1
  O  O204  1  0.60447303  0.97297424  0.20895106  1
  O  O205  1  0.61641767  0.96746640  0.73812838  1
  O  O206  1  0.42577723  0.00758065  0.28978401  1
  O  O207  1  0.43364233  0.01445631  0.71356163  1
  O  O208  1  0.43122744  0.38920799  0.23137501  1
  O  O209  1  0.37995965  0.56234821  0.70199523  1
  O  O210  1  0.76305223  0.03098862  0.25559449  1
  O  O211  1  0.91437663  -0.04181821  0.76521446  1
  O  O212  1  0.80942149  0.50484988  0.19278593  1
  O  O213  1  0.86990779  0.56239032  0.79352591  1
  O  O214  1  0.05134480  0.34491263  0.29863507  1
  O  O215  1  0.16411706  0.44947669  0.87097531  1
  O  O216  1  0.09812283  0.86676987  0.35472070  1
  O  O217  1  0.15135753  0.96311673  0.82381424  1
  O  O218  1  0.60746815  0.48882569  0.41727301  1
  O  O219  1  0.55024107  0.38821793  0.88094542  1
  O  O220  1  0.66838305  0.83444252  0.33747848  1
  O  O221  1  0.65088761  0.86653080  0.85807330  1
  O  O222  1  0.40046879  0.08996869  0.16171423  1
  O  O223  1  0.33174238  0.13964794  0.54310789  1
  O  O224  1  0.38857059  0.65500643  0.12515511  1
  O  O225  1  0.23882440  0.65011276  0.62510598  1
  O  O226  1  0.84227664  0.13624648  0.10598981  1
  O  O227  1  0.82623376  0.09481081  0.77904086  1
  O  O228  1  0.84458622  0.63275661  0.13544412  1
  O  O229  1  0.91403435  0.64302685  0.57769480  1
  O  O230  1  0.12220773  0.33991180  0.13429154  1
  O  O231  1  0.29475815  0.29128595  0.49722676  1
  O  O232  1  0.28289622  0.76139112  0.17422157  1
  O  O233  1  0.25352276  0.65952189  0.69127362  1
  O  O234  1  0.69491654  0.25082488  0.13344946  1
  O  O235  1  0.78433760  0.18309413  0.68228818  1
  O  O236  1  0.73092821  0.75596967  0.10189397  1
  O  O237  1  0.79975362  0.73012737  0.64635867  1
  O  O238  1  0.25425846  0.24987553  0.30075380  1
  O  O239  1  0.16082300  0.28952838  0.96602833  1
  O  O240  1  0.23020255  0.75369373  0.32618618  1
  O  O241  1  0.28969010  0.71596435  0.85152497  1
  O  O242  1  0.69557134  0.33001794  0.44170509  1
  O  O243  1  0.74772510  0.25421764  0.87102756  1
  O  O244  1  0.79448310  0.70923809  0.39795883  1
  O  O245  1  0.75105459  0.73123341  0.89285370  1
  O  O246  1  -0.01628062  0.13543466  0.01829636  1
  O  O247  1  -0.05184051  0.09681418  0.49042949  1
  O  O248  1  0.02890267  0.67016718  -0.01188739  1
  O  O249  1  -0.00620429  0.64201273  0.42315487  1
  O  O250  1  0.51258239  0.10299474  -0.03684113  1
  O  O251  1  0.54532276  0.06989023  0.58351120  1
  O  O252  1  0.48514228  0.64042929  -0.00481598  1
  O  O253  1  0.52889032  0.76349834  0.44913894  1
  O  O254  1  0.50478823  0.40146940  0.50668662  1
  O  O255  1  0.44884308  0.33202369  1.01768735  1
  O  O256  1  0.38587205  0.89357207  0.47471470  1
  O  O257  1  0.49595094  0.85265537  0.97974139  1
  O  O258  1  1.04196913  0.41761581  0.74576737  1
  O  O259  1  0.95489959  0.32262971  1.01822310  1
  O  O260  1  0.96056648  0.90238626  0.43394844  1
  O  O261  1  0.96237961  0.86913328  1.04513148  1
  O  O262  1  0.46395510  0.56390343  0.42514522  1
  O  O263  1  0.49441850  0.48612263  0.77340808  1
  O  O264  1  0.55454324  1.00086094  0.42997840  1
  O  O265  1  0.50949519  0.95949099  0.88592531  1
  O  O266  1  0.94879775  0.44488459  0.38013682  1
  O  O267  1  0.99267255  0.60635789  1.00003663  1
  O  O268  1  0.99682421  0.98382846  0.31416245  1
  O  O269  1  1.04957003  1.00276618  0.94361605  1
  O  O270  1  -0.03153485  0.02249341  0.13145044  1
  O  O271  1  -0.00712343  -0.02407822  0.58929201  1
  O  O272  1  0.10962757  0.51541413  0.12230381  1
  O  O273  1  0.11959057  0.64899185  0.71172455  1
  O  O274  1  0.51609298  -0.01803925  0.07187495  1
  O  O275  1  0.56659745  -0.08044913  0.57386550  1
  O  O276  1  0.49125352  0.52210082  0.13001807  1
  O  O277  1  0.52099006  0.54203659  0.58858290  1
  O  O278  1  0.22995350  0.41332490  0.26749390  1
  O  O279  1  0.17653422  0.32824715  0.76326319  1
  O  O280  1  0.31523877  0.87469377  0.29100396  1
  O  O281  1  0.25619684  0.85856911  0.75424012  1
  O  O282  1  0.70406246  0.37920463  0.26569005  1
  O  O283  1  0.79436842  0.39939999  0.74985652  1
  O  O284  1  0.71937865  0.87187717  0.20624659  1
  O  O285  1  0.80655503  0.84605963  0.76233903  1
  O  O286  1  0.27490141  0.08272763  0.23532512  1
  O  O287  1  0.29098755  0.10422513  0.72211440  1
  O  O288  1  0.19885961  0.60169054  0.25385352  1
  O  O289  1  0.24250103  0.47340584  0.66621207  1
  O  O290  1  0.71986727  0.19431757  0.34231032  1
  O  O291  1  0.82020479  0.12423239  0.84181905  1
  O  O292  1  0.72068237  0.62816353  0.24782839  1
  O  O293  1  0.79418358  0.57897839  0.77320009  1
  O  O294  1  0.32098080  0.10767375  0.35547344  1
  O  O295  1  0.40604553  0.13076956  0.82440026  1
  O  O296  1  0.35032109  0.67723654  0.40757126  1
  O  O297  1  0.42493266  0.60080507  0.85378336  1
  O  O298  1  0.85561920  0.12217539  0.35530486  1
  O  O299  1  0.99305298  -0.02929598  0.91922578  1
  O  O300  1  0.87211221  0.58503511  0.30698738  1
  O  O301  1  0.92305470  0.70661909  0.86218005  1
  O  O302  1  0.16619095  0.49465468  0.08385414  1
  O  O303  1  0.12884713  0.43631662  0.58818840  1
  O  O304  1  0.11340231  0.92968365  0.07204806  1
  O  O305  1  0.15107852  0.84411854  0.66012158  1
  O  O306  1  0.58747103  0.40377329  0.13529437  1
  O  O307  1  0.78613278  0.24582543  0.71360798  1
  O  O308  1  0.62481190  0.86995680  0.09308470  1
  O  O309  1  0.68804746  0.84417654  0.67582703  1
  O  O310  1  0.16408636  0.27020501  0.16728666  1
  O  O311  1  0.11662820  0.12596319  0.76116764  1
  O  O312  1  0.10445525  0.75045913  0.20790439  1
  O  O313  1  0.13944986  0.82414840  0.80972292  1
  O  O314  1  0.56174505  0.26770956  0.25728883  1
  O  O315  1  0.63299707  0.25835396  0.77638789  1
  O  O316  1  0.60082628  0.77172165  0.21988867  1
  O  O317  1  0.63743261  0.74903363  0.77556550  1
  O  O318  1  0.42538268  0.17834559  0.27859119  1
  O  O319  1  0.30664125  0.25326692  0.64651460  1
  O  O320  1  0.39242223  0.72141101  0.24666285  1
  O  O321  1  0.42558880  0.75188034  0.73810434  1
  O  O322  1  0.81308199  0.22713304  0.22292539  1
  O  O323  1  0.93006641  0.24426113  0.78286892  1
  O  O324  1  0.82159500  0.74229272  0.23021706  1
  O  O325  1  0.95137752  0.68641341  0.70974685  1
  O  O326  1  0.33893055  0.57232791  0.52378767  1
  O  O327  1  0.39416584  0.49510806  1.04947820  1
  O  O328  1  0.29321699  0.99778958  0.49446384  1
  O  O329  1  0.39463718  1.00282234  0.98844843  1
  O  O330  1  0.86894161  0.55549773  0.46298427  1
  O  O331  1  0.84661151  0.45175248  1.02712867  1
  O  O332  1  0.86488971  0.97074473  0.51095296  1
  O  O333  1  0.85540576  0.98116652  1.00868537  1
  O  O334  1  0.21549801  0.05784469  -0.04256045  1
  O  O335  1  0.06914693  -0.00562265  0.45926388  1
  O  O336  1  0.02837517  0.54303355  -0.02379802  1
  O  O337  1  0.11153543  0.55746042  0.52469963  1
  O  O338  1  0.62590714  0.00810507  -0.01811216  1
  O  O339  1  0.68562955  0.01084086  0.51599009  1
  O  O340  1  0.58280276  0.49309267  0.02090160  1
  O  O341  1  0.63880582  0.44371077  0.55940441  1
  O  O342  1  0.32359685  0.34224395  0.12448994  1
  O  O343  1  0.17193169  0.31824283  0.69612078  1
  O  O344  1  0.40876279  0.84745641  0.17859249  1
  O  O345  1  0.32532735  0.91498197  0.60934492  1
  O  O346  1  0.82532285  0.33646773  0.12056351  1
  O  O347  1  0.88602422  0.35455171  0.61990572  1
  O  O348  1  0.83776004  0.84972276  0.11528356  1
  O  O349  1  0.90706728  0.82833226  0.64880298  1
  O  O350  1  0.13176449  0.13296239  0.28286114  1
  O  O351  1  0.18117126  0.10179471  0.91150312  1
  O  O352  1  0.11628821  0.66937390  0.40161414  1
  O  O353  1  0.16744281  0.62979437  0.89779752  1
  O  O354  1  0.69828957  0.14295098  0.38292775  1
  O  O355  1  0.64219330  0.09984210  0.85752071  1
  O  O356  1  0.63950401  0.65437713  0.40667408  1
  O  O357  1  0.62662395  0.63500305  0.87826295  1
