# generated using pymatgen
data_V51Zn51O256
_symmetry_space_group_name_H-M   'P 1'
_cell_length_a   17.51741220
_cell_length_b   17.46154092
_cell_length_c   17.46592057
_cell_angle_alpha   90.07938397
_cell_angle_beta   90.95248443
_cell_angle_gamma   90.51502265
_symmetry_Int_Tables_number   1
_chemical_formula_structural   V51Zn51O256
_chemical_formula_sum   'V51 Zn51 O256'
_cell_volume   5341.53312360
_cell_formula_units_Z   1
loop_
 _symmetry_equiv_pos_site_id
 _symmetry_equiv_pos_as_xyz
  1  'x, y, z'
loop_
 _atom_site_type_symbol
 _atom_site_label
 _atom_site_symmetry_multiplicity
 _atom_site_fract_x
 _atom_site_fract_y
 _atom_site_fract_z
 _atom_site_occupancy
  V  V0  1  0.76219001  0.63050235  0.82463442  1
  V  V1  1  0.19090321  0.25113771  -0.00817052  1
  V  V2  1  0.01992835  0.73036737  0.74128535  1
  V  V3  1  -0.02932346  0.37052669  0.87210068  1
  V  V4  1  0.38698437  0.77174920  0.11468381  1
  V  V5  1  0.63038600  -0.03641437  0.10728106  1
  V  V6  1  0.26474175  -0.00499245  0.20719001  1
  V  V7  1  0.52142197  0.37163126  0.40539330  1
  V  V8  1  0.11761005  0.87354897  0.22934702  1
  V  V9  1  0.38996878  -0.04477904  0.35474918  1
  V  V10  1  0.35207402  0.04063260  0.87753194  1
  V  V11  1  0.79524906  -0.04864828  0.74088412  1
  V  V12  1  0.39800950  0.49679789  0.38357292  1
  V  V13  1  0.39267948  0.36801835  0.00395859  1
  V  V14  1  0.48385175  0.72350236  0.26465170  1
  V  V15  1  0.61801468  0.38999155  0.23475334  1
  V  V16  1  0.04666225  0.61522883  0.59394177  1
  V  V17  1  0.16152047  0.78163610  0.37321831  1
  V  V18  1  0.64028952  0.27924626  0.86103920  1
  V  V19  1  0.26302330  0.48708036  0.23833369  1
  V  V20  1  0.27430034  0.81934009  0.52455772  1
  V  V21  1  0.27615654  0.39117456  0.67321516  1
  V  V22  1  0.87354062  0.10537099  0.28232667  1
  V  V23  1  0.28688465  0.12838698  0.34522447  1
  V  V24  1  0.00603631  0.86897184  0.87491400  1
  V  V25  1  0.70880868  0.74688158  0.50744488  1
  V  V26  1  0.09986905  0.00274849  0.10721474  1
  V  V27  1  0.85324115  0.41836584  0.03718711  1
  V  V28  1  0.12108485  0.61868513  0.01984873  1
  V  V29  1  0.23260357  0.58860393  0.87169185  1
  V  V30  1  0.27785646  0.27005074  0.51766648  1
  V  V31  1  0.24726504  0.77986937  0.01545681  1
  V  V32  1  0.10963382  0.47575985  0.14862491  1
  V  V33  1  0.46202323  0.63007040  0.65006591  1
  V  V34  1  0.13385318  0.74821709  0.88016742  1
  V  V35  1  0.14936248  0.49528308  0.64295999  1
  V  V36  1  0.34822282  0.76104660  0.65864778  1
  V  V37  1  0.73075312  0.84023779  0.63729735  1
  V  V38  1  0.63922961  0.87284556  0.26486107  1
  V  V39  1  0.12826400  0.03575654  0.67064931  1
  V  V40  1  -0.00333338  0.50252851  0.00184022  1
  V  V41  1  0.88176131  0.83242860  -0.01843624  1
  V  V42  1  0.49621022  -0.02326716  0.52139190  1
  V  V43  1  0.24207666  0.61456546  0.35794775  1
  V  V44  1  0.33393334  0.26089778  0.15285628  1
  V  V45  1  0.57980877  0.62592025  0.50021000  1
  V  V46  1  0.81258959  0.05002026  0.85935902  1
  V  V47  1  0.89421215  0.63700846  0.26840373  1
  V  V48  1  0.86661870  0.22460141  0.10055619  1
  V  V49  1  0.72944566  0.73077639  0.01967186  1
  V  V50  1  0.93742073  0.86343979  0.47455533  1
  Zn  Zn51  1  0.86328211  0.63046668  0.05521696  1
  Zn  Zn52  1  0.85459532  0.77339495  0.78985046  1
  Zn  Zn53  1  0.73946064  0.91227274  0.95601131  1
  Zn  Zn54  1  0.30751088  0.26690693  0.83771748  1
  Zn  Zn55  1  0.30597758  0.80777682  0.27503155  1
  Zn  Zn56  1  0.43534574  0.44584693  0.56746895  1
  Zn  Zn57  1  1.00017456  0.14269657  0.17090000  1
  Zn  Zn58  1  0.58259279  0.77162809  0.10902953  1
  Zn  Zn59  1  0.26702516  0.62477689  0.55873460  1
  Zn  Zn60  1  0.19073380  0.15593207  0.15980636  1
  Zn  Zn61  1  0.34778488  0.08766445  0.51399574  1
  Zn  Zn62  1  0.01110853  0.06615722  0.81513754  1
  Zn  Zn63  1  0.82175741  0.03958706  0.03565765  1
  Zn  Zn64  1  0.27605988  0.51891065  0.04769935  1
  Zn  Zn65  1  0.73184291  0.22855706  0.24423173  1
  Zn  Zn66  1  0.25649186  0.46387122  0.46971968  1
  Zn  Zn67  1  0.39711430  0.67733395  0.43064536  1
  Zn  Zn68  1  0.29397914  0.32555837  0.33505632  1
  Zn  Zn69  1  0.45180316  -0.03971860  0.17395472  1
  Zn  Zn70  1  0.89507273  0.72287043  0.59793652  1
  Zn  Zn71  1  0.52403226  0.11517357  0.83103039  1
  Zn  Zn72  1  0.18892628  0.69414570  0.69751093  1
  Zn  Zn73  1  0.74597957  0.02376370  0.24314448  1
  Zn  Zn74  1  0.30384245  0.09297380  0.06567758  1
  Zn  Zn75  1  0.37096212  0.65520110  0.97157089  1
  Zn  Zn76  1  0.76749156  0.44925735  0.89802325  1
  Zn  Zn77  1  0.18063567  0.94476521  0.93424897  1
  Zn  Zn78  1  0.94969635  0.67600342  0.91564569  1
  Zn  Zn79  1  0.29033569  0.84398464  0.82912103  1
  Zn  Zn80  1  0.03358361  0.31937432  0.07210636  1
  Zn  Zn81  1  0.94413250  0.45925809  0.19561405  1
  Zn  Zn82  1  0.95164258  0.96675495  0.22266420  1
  Zn  Zn83  1  1.00380868  0.70187474  0.43564620  1
  Zn  Zn84  1  0.93466787  0.16809036  0.94316339  1
  Zn  Zn85  1  0.49971388  0.77232200  0.54550885  1
  Zn  Zn86  1  0.57258890  0.55359978  0.31899302  1
  Zn  Zn87  1  0.36050712  0.15499189  0.71087924  1
  Zn  Zn88  1  0.58295360  0.35704646  0.03815446  1
  Zn  Zn89  1  0.83135876  0.28833531  0.91901925  1
  Zn  Zn90  1  0.61448077  0.88835109  0.46958592  1
  Zn  Zn91  1  0.43681586  0.20101446  0.42225821  1
  Zn  Zn92  1  0.15924271  0.40721593  0.81533838  1
  Zn  Zn93  1  0.98883553  0.92209151  0.69307249  1
  Zn  Zn94  1  0.66051699  0.67162220  0.66101448  1
  Zn  Zn95  1  0.08072346  0.03682946  0.30847689  1
  Zn  Zn96  1  0.21388531  0.97446000  0.41185411  1
  Zn  Zn97  1  0.80158132  0.80685996  0.34790424  1
  Zn  Zn98  1  0.07836751  0.83146677  0.03736112  1
  Zn  Zn99  1  0.20185506  0.68619270  0.18921059  1
  Zn  Zn100  1  0.42168614  0.38218276  0.23405081  1
  Zn  Zn101  1  0.13431782  0.32701177  0.53735926  1
  O  O102  1  0.09543121  0.10931537  0.13423828  1
  O  O103  1  0.15357530  0.12968629  0.65324110  1
  O  O104  1  0.12779671  0.63440602  0.11514891  1
  O  O105  1  0.14403754  0.60283535  0.64921124  1
  O  O106  1  0.68004592  0.06263434  0.11073874  1
  O  O107  1  0.51493110  0.14820104  0.56967123  1
  O  O108  1  0.43030765  0.56325524  0.10629059  1
  O  O109  1  0.56089940  0.66020966  0.62123283  1
  O  O110  1  0.38331095  0.40015777  0.34606506  1
  O  O111  1  0.37282982  0.31000276  0.92464570  1
  O  O112  1  0.36869293  0.86064327  0.35289036  1
  O  O113  1  0.35493109  0.93899401  0.86150334  1
  O  O114  1  0.91613302  0.34594326  0.30098115  1
  O  O115  1  0.86408688  0.39754218  0.91832825  1
  O  O116  1  0.87092985  0.87278722  0.40000753  1
  O  O117  1  0.90005955  0.83691559  0.87835135  1
  O  O118  1  0.30063569  -0.00619669  0.32188484  1
  O  O119  1  0.25085066  0.03204055  0.89765574  1
  O  O120  1  0.27299187  0.50885404  0.35661702  1
  O  O121  1  0.20593840  0.49494720  0.86876329  1
  O  O122  1  0.68681857  0.15964598  0.43127627  1
  O  O123  1  0.79512425  -0.05250510  0.85249989  1
  O  O124  1  0.89123228  0.44869203  0.42810165  1
  O  O125  1  0.77363228  0.53470924  0.83549526  1
  O  O126  1  0.21875911  0.49266484  0.13874000  1
  O  O127  1  0.25386129  0.48942767  0.68236758  1
  O  O128  1  0.22168264  1.02696637  0.11717442  1
  O  O129  1  0.21895322  1.00350862  0.66486490  1
  O  O130  1  0.63898665  0.54255178  0.06967071  1
  O  O131  1  0.76457511  0.45716688  0.52054609  1
  O  O132  1  0.74975712  1.01921914  0.12220305  1
  O  O133  1  0.73388836  0.94640476  0.65857335  1
  O  O134  1  -0.02175986  0.39107461  0.28013563  1
  O  O135  1  -0.06544681  0.37965194  0.78605261  1
  O  O136  1  0.02366661  0.88229829  0.25157249  1
  O  O137  1  0.01482918  0.84844957  0.77242299  1
  O  O138  1  0.52567418  0.37256309  0.27079169  1
  O  O139  1  0.56515828  0.49137932  0.76734740  1
  O  O140  1  0.52796017  0.82777832  0.24248789  1
  O  O141  1  0.50703792  0.77255290  0.79708379  1
  O  O142  1  0.50223067  0.14043611  0.22795159  1
  O  O143  1  0.46904237  0.14273311  0.74319281  1
  O  O144  1  0.51546050  0.63237348  0.25305303  1
  O  O145  1  0.46880048  0.63101559  0.74366978  1
  O  O146  1  0.98825273  0.06993098  0.26341116  1
  O  O147  1  0.99227499  0.19633887  0.76461258  1
  O  O148  1  0.97569727  0.67160402  0.22159398  1
  O  O149  1  1.01011254  0.64265736  0.77375083  1
  O  O150  1  0.28085621  0.30791431  0.03844569  1
  O  O151  1  0.35254630  0.20659967  0.49537955  1
  O  O152  1  0.35447104  0.75862193  0.00637987  1
  O  O153  1  0.34693276  0.77762176  0.47965541  1
  O  O154  1  0.84915648  0.30221073  0.03382872  1
  O  O155  1  0.80540497  0.26559616  0.47738747  1
  O  O156  1  0.89819656  0.73433128  0.00819538  1
  O  O157  1  0.93492767  0.76087074  0.49829355  1
  O  O158  1  0.18467571  0.23408298  0.51142955  1
  O  O159  1  0.09325155  0.25986308  1.00302498  1
  O  O160  1  0.18475037  0.78086484  0.47002577  1
  O  O161  1  0.14399563  0.74236690  1.01183600  1
  O  O162  1  0.74073393  0.11632405  0.58552005  1
  O  O163  1  0.63273029  0.29144545  0.96822531  1
  O  O164  1  0.61184622  0.76363867  0.48535913  1
  O  O165  1  0.62946445  0.72955523  1.02266920  1
  O  O166  1  0.49829541  0.17435421  0.01075853  1
  O  O167  1  0.51296044  0.21954010  0.56494232  1
  O  O168  1  0.47716346  0.73296980  0.10586954  1
  O  O169  1  0.44830399  0.76303065  0.64592826  1
  O  O170  1  0.96465232  0.25000562  0.12569387  1
  O  O171  1  0.95548033  0.21864419  0.54465367  1
  O  O172  1  0.90590216  0.83119093  0.12978398  1
  O  O173  1  1.06396552  0.71827878  0.65279141  1
  O  O174  1  -0.07981114  0.31496623  0.36624803  1
  O  O175  1  -0.06124538  0.26749910  0.89646435  1
  O  O176  1  0.07191378  0.74665852  0.36366814  1
  O  O177  1  0.02443602  0.74874040  0.87260772  1
  O  O178  1  0.50377199  0.27334537  0.38531200  1
  O  O179  1  0.55546891  0.32898884  0.85766871  1
  O  O180  1  0.46594123  0.73528897  0.35659097  1
  O  O181  1  0.47856467  0.82934013  0.94289840  1
  O  O182  1  0.26691050  0.08246757  0.43546552  1
  O  O183  1  0.21968865  0.16328692  1.03194402  1
  O  O184  1  0.29130703  0.63887228  0.44661598  1
  O  O185  1  0.22225053  0.60317318  0.99478443  1
  O  O186  1  0.77689780  0.08382374  0.53595201  1
  O  O187  1  0.76325670  0.07257717  0.93899026  1
  O  O188  1  0.68552132  0.65179079  0.54376583  1
  O  O189  1  0.76452109  0.63759782  1.00818449  1
  O  O190  1  0.21238165  0.34732058  0.03903139  1
  O  O191  1  0.27600862  0.35327125  0.45879041  1
  O  O192  1  0.24171451  0.87481172  0.01495843  1
  O  O193  1  0.25918122  0.91005798  0.48903900  1
  O  O194  1  0.76076165  0.43929198  0.01255562  1
  O  O195  1  0.65852929  0.31182180  0.58231752  1
  O  O196  1  0.77428923  0.80595681  -0.04368532  1
  O  O197  1  0.70760874  0.85798457  0.53583131  1
  O  O198  1  0.11072088  0.49572774  0.24122676  1
  O  O199  1  0.11313153  0.46751337  0.72782896  1
  O  O200  1  0.13807545  0.98393023  0.22471153  1
  O  O201  1  0.12628538  1.05872048  0.77222524  1
  O  O202  1  0.63845255  0.48305843  0.26562431  1
  O  O203  1  0.69889158  0.45556511  0.54279699  1
  O  O204  1  0.65098273  0.97194673  0.22947001  1
  O  O205  1  0.59696506  1.02843830  0.79686888  1
  O  O206  1  0.35411605  0.01449279  0.17135779  1
  O  O207  1  0.33969516  0.05254490  0.77770742  1
  O  O208  1  0.35548209  0.47634801  0.21301434  1
  O  O209  1  0.49893004  0.47009398  0.77560260  1
  O  O210  1  0.85282193  0.00295740  0.27369020  1
  O  O211  1  0.88682355  -0.03457142  0.71841291  1
  O  O212  1  0.91529091  0.53766839  0.27326271  1
  O  O213  1  0.80211003  0.47402812  0.68578734  1
  O  O214  1  0.12492940  0.39066229  0.43254372  1
  O  O215  1  0.06852191  0.36218863  0.86083602  1
  O  O216  1  0.16506814  0.87645958  0.33689943  1
  O  O217  1  0.10658598  0.85416238  0.91526315  1
  O  O218  1  0.61490020  0.37750018  0.41309895  1
  O  O219  1  0.69243199  0.37255316  0.86224381  1
  O  O220  1  0.61844298  0.88853393  0.35812463  1
  O  O221  1  0.61415048  0.97322299  0.84034881  1
  O  O222  1  0.36250992  0.17353414  0.11913247  1
  O  O223  1  0.34311977  0.09887447  0.62140297  1
  O  O224  1  0.36232335  0.60303717  0.07594161  1
  O  O225  1  0.35708395  0.65466647  0.62915870  1
  O  O226  1  0.87308358  0.14282765  0.03537879  1
  O  O227  1  0.83682154  0.20825351  0.67330971  1
  O  O228  1  0.86366677  0.63193139  0.16816030  1
  O  O229  1  0.94928784  0.62432993  0.60327738  1
  O  O230  1  0.23686236  0.25460992  0.16993355  1
  O  O231  1  0.28684757  0.29381643  0.61324657  1
  O  O232  1  0.27086727  0.74861472  0.11584898  1
  O  O233  1  0.24597000  0.73489483  0.60548829  1
  O  O234  1  0.78339983  0.23784706  0.14783998  1
  O  O235  1  0.87525260  0.35461057  0.57577415  1
  O  O236  1  0.75776825  0.75937988  0.10570056  1
  O  O237  1  0.78661046  0.76024382  0.59602174  1
  O  O238  1  0.25621079  0.22098679  0.35367302  1
  O  O239  1  0.21355466  0.25829102  0.89741951  1
  O  O240  1  0.23978541  0.72795583  0.32758821  1
  O  O241  1  0.23994138  0.76861253  0.90460673  1
  O  O242  1  0.77319342  0.32062897  0.44867208  1
  O  O243  1  0.73880499  0.24406640  0.88167002  1
  O  O244  1  0.75734261  0.73922691  0.42595875  1
  O  O245  1  0.69840161  0.70056885  0.88248101  1
  O  O246  1  0.04442543  0.12686201  -0.03531959  1
  O  O247  1  -0.08759360  0.16279220  0.54840986  1
  O  O248  1  0.01541542  0.61750673  -0.00928865  1
  O  O249  1  0.06594493  0.64353595  0.50436964  1
  O  O250  1  0.54122701  0.11803730  0.00787265  1
  O  O251  1  0.47893147  0.10874551  0.50313606  1
  O  O252  1  0.49719974  0.64740314  -0.07051072  1
  O  O253  1  0.48034309  0.66720939  0.50450856  1
  O  O254  1  0.48671040  0.38013330  0.49823702  1
  O  O255  1  0.48866955  0.39230722  0.99822320  1
  O  O256  1  0.50368406  0.87443709  0.50928073  1
  O  O257  1  0.53353724  0.87225669  0.93158542  1
  O  O258  1  1.02502542  0.36002506  0.50135890  1
  O  O259  1  0.97293016  0.40112230  1.02185422  1
  O  O260  1  1.02108466  0.88662074  0.44170667  1
  O  O261  1  0.98251794  0.86100195  0.98936240  1
  O  O262  1  0.49995963  0.48346610  0.37738719  1
  O  O263  1  0.51152721  0.58707307  0.89623345  1
  O  O264  1  0.45791461  0.96778076  0.28630302  1
  O  O265  1  0.45425183  1.04256724  0.88057216  1
  O  O266  1  1.04989035  0.40110863  0.44235940  1
  O  O267  1  0.99242369  0.48402909  0.90607739  1
  O  O268  1  1.12207343  1.02850648  0.40451804  1
  O  O269  1  1.00726376  0.96501939  0.86594282  1
  O  O270  1  0.00210156  -0.00623800  0.11880849  1
  O  O271  1  0.01972403  0.03924854  0.70165226  1
  O  O272  1  0.01163570  0.50861105  0.12534334  1
  O  O273  1  0.05774859  0.51090646  0.58832569  1
  O  O274  1  0.53565257  -0.01225355  0.10963234  1
  O  O275  1  0.47892568  -0.00580340  0.61124657  1
  O  O276  1  0.48320309  0.55585739  0.06025933  1
  O  O277  1  0.46111672  0.53536154  0.62602176  1
  O  O278  1  0.23624894  0.39777489  0.26649442  1
  O  O279  1  0.25490694  0.35832234  0.76653123  1
  O  O280  1  0.25985032  0.89469939  0.21359568  1
  O  O281  1  0.20721850  0.91262658  0.83090611  1
  O  O282  1  0.68118824  0.31828297  0.26693798  1
  O  O283  1  0.77152958  0.41079829  0.67984448  1
  O  O284  1  0.72948847  0.83805482  0.27142016  1
  O  O285  1  0.78816735  0.84404155  0.73524100  1
  O  O286  1  0.24008644  0.09932826  0.25302032  1
  O  O287  1  0.26703773  0.19177142  0.75547491  1
  O  O288  1  0.24596665  0.60011729  0.24927228  1
  O  O289  1  0.22910391  0.62788960  0.78305164  1
  O  O290  1  0.76771256  0.13095639  0.27800925  1
  O  O291  1  0.77073998  0.06040096  0.76921154  1
  O  O292  1  0.79788925  0.60917212  0.29359978  1
  O  O293  1  0.74151157  0.64939859  0.72972565  1
  O  O294  1  0.38465587  0.13505358  0.34430353  1
  O  O295  1  0.34784222  0.14193320  0.88271445  1
  O  O296  1  0.39669720  0.58877193  0.34866006  1
  O  O297  1  0.33067904  0.59478399  0.89321988  1
  O  O298  1  0.89937878  0.14405094  0.36455837  1
  O  O299  1  0.90784359  0.08951668  0.86196605  1
  O  O300  1  0.93938147  0.64442261  0.35891593  1
  O  O301  1  0.85304742  0.67629739  0.84954207  1
  O  O302  1  0.09833915  0.37843825  0.14263690  1
  O  O303  1  0.17771938  0.39317459  0.61232733  1
  O  O304  1  0.11336478  0.89097912  0.12310456  1
  O  O305  1  0.10726338  0.93243133  0.67509310  1
  O  O306  1  0.61196546  0.38666267  0.13580092  1
  O  O307  1  0.71913766  0.28381127  0.60360440  1
  O  O308  1  0.63071295  0.86594460  0.14294897  1
  O  O309  1  0.65266296  0.79545164  0.66795480  1
  O  O310  1  0.07503090  0.23220243  0.34683859  1
  O  O311  1  0.00793358  0.23109296  0.70467556  1
  O  O312  1  0.14067338  0.77774399  0.22032704  1
  O  O313  1  0.13809506  0.75655795  0.78100767  1
  O  O314  1  0.53872137  0.18196959  0.18545095  1
  O  O315  1  0.64803043  0.27589501  0.76292809  1
  O  O316  1  0.58691982  0.76496416  0.24039624  1
  O  O317  1  0.57216323  0.75622490  0.81652283  1
  O  O318  1  0.36818927  0.28072836  0.24589702  1
  O  O319  1  0.39138838  0.24849647  0.76599717  1
  O  O320  1  0.38524947  0.74442117  0.22040636  1
  O  O321  1  0.32771874  0.77770867  0.75333163  1
  O  O322  1  0.89055279  0.15062563  0.19006055  1
  O  O323  1  0.84096105  0.26658228  0.71255652  1
  O  O324  1  0.85637544  0.73004659  0.28568194  1
  O  O325  1  0.92399572  0.75208191  0.70509748  1
  O  O326  1  0.37405402  0.49640879  0.47988055  1
  O  O327  1  0.34264078  0.45132721  0.99766836  1
  O  O328  1  0.41052584  0.99249340  0.45074268  1
  O  O329  1  0.35744723  1.03699814  0.98290054  1
  O  O330  1  0.91116965  0.49707954  0.47587060  1
  O  O331  1  0.89507300  0.52456097  1.02382041  1
  O  O332  1  0.90852597  0.94100475  0.54681589  1
  O  O333  1  0.84430425  0.92682439  1.01134177  1
  O  O334  1  0.11800196  -0.00621526  0.01090255  1
  O  O335  1  0.08928378  0.03884397  0.57810942  1
  O  O336  1  0.10576656  0.51303995  0.02416890  1
  O  O337  1  0.21485366  0.52816411  0.54458270  1
  O  O338  1  0.65434503  -0.05531814  0.01296242  1
  O  O339  1  0.59131941  -0.00390631  0.50033217  1
  O  O340  1  0.62120475  0.55524298  0.00317010  1
  O  O341  1  0.57078364  0.53555929  0.52221234  1
  O  O342  1  0.39627450  0.33585023  0.10765647  1
  O  O343  1  0.37088180  0.40320174  0.65218703  1
  O  O344  1  0.40175718  0.86592851  0.12058871  1
  O  O345  1  0.32530540  0.85011670  0.61376919  1
  O  O346  1  0.85863961  0.41908723  0.13573808  1
  O  O347  1  0.92789784  0.37487166  0.61782254  1
  O  O348  1  0.87404329  0.87660231  0.17394959  1
  O  O349  1  0.95000545  0.88869214  0.59064135  1
  O  O350  1  0.04065641  0.22593651  0.40673647  1
  O  O351  1  0.07770380  0.12038404  0.90016357  1
  O  O352  1  0.15358298  0.60468199  0.37995614  1
  O  O353  1  0.13511237  0.64844267  0.89831462  1
  O  O354  1  0.64683165  0.18023512  0.48403936  1
  O  O355  1  0.59871578  0.18676705  0.86608202  1
  O  O356  1  0.59933853  0.62272621  0.40365563  1
  O  O357  1  0.66212653  0.63199919  0.86879793  1
