# generated using pymatgen
data_V51Zn51O256
_symmetry_space_group_name_H-M   'P 1'
_cell_length_a   17.46220966
_cell_length_b   17.63310609
_cell_length_c   17.39525298
_cell_angle_alpha   89.84391352
_cell_angle_beta   91.83274888
_cell_angle_gamma   88.76769892
_symmetry_Int_Tables_number   1
_chemical_formula_structural   V51Zn51O256
_chemical_formula_sum   'V51 Zn51 O256'
_cell_volume   5352.21507399
_cell_formula_units_Z   1
loop_
 _symmetry_equiv_pos_site_id
 _symmetry_equiv_pos_as_xyz
  1  'x, y, z'
loop_
 _atom_site_type_symbol
 _atom_site_label
 _atom_site_symmetry_multiplicity
 _atom_site_fract_x
 _atom_site_fract_y
 _atom_site_fract_z
 _atom_site_occupancy
  V  V0  1  0.30561765  0.00481236  0.63423859  1
  V  V1  1  0.86994179  0.11800418  0.73665097  1
  V  V2  1  0.03707451  0.43148975  0.46799171  1
  V  V3  1  0.88561582  0.76003705  0.17281473  1
  V  V4  1  0.23741495  0.65442248  0.90565038  1
  V  V5  1  -0.00736338  0.62352012  0.13443057  1
  V  V6  1  0.36239568  0.50909486  0.88811940  1
  V  V7  1  -0.02468565  0.33909658  0.86199526  1
  V  V8  1  0.23467727  0.84642325  0.13678774  1
  V  V9  1  0.84423076  0.87145246  0.52050915  1
  V  V10  1  0.78395023  0.24987074  -0.00440653  1
  V  V11  1  0.12556047  0.41433091  0.77936906  1
  V  V12  1  0.14832413  0.43976697  0.13033306  1
  V  V13  1  0.13137825  0.91948707  0.76349730  1
  V  V14  1  0.46009870  0.66439943  0.13028943  1
  V  V15  1  0.72561979  -0.00406355  0.74187407  1
  V  V16  1  0.10612810  0.66436961  0.00683680  1
  V  V17  1  0.74127539  0.45290416  0.16684339  1
  V  V18  1  0.85399956  0.13089658  0.21653614  1
  V  V19  1  0.77557393  0.63282799  0.36552535  1
  V  V20  1  0.52548399  0.58734380  0.62803698  1
  V  V21  1  0.76582053  0.24768271  0.49555443  1
  V  V22  1  0.47436023  0.74827100  0.29838770  1
  V  V23  1  0.56495749  0.81115530  0.84249948  1
  V  V24  1  0.87514528  0.00510561  0.88514676  1
  V  V25  1  0.64413011  0.74439558  0.36005440  1
  V  V26  1  0.47230030  0.05705712  0.08959188  1
  V  V27  1  0.11045069  0.11885353  -0.02259806  1
  V  V28  1  0.49012906  0.53927600  0.02416678  1
  V  V29  1  0.73439552  0.73905196  0.55772861  1
  V  V30  1  0.24270223  0.52847438  0.74655529  1
  V  V31  1  0.76102349  0.77476496  -0.03033754  1
  V  V32  1  0.03463768  0.19769182  0.75935858  1
  V  V33  1  0.64174595  0.62853347  0.00728555  1
  V  V34  1  0.30123959  -0.00068088  0.88028833  1
  V  V35  1  0.89425465  -0.00589362  0.40851518  1
  V  V36  1  0.37178821  0.35952516  -0.00152143  1
  V  V37  1  0.55816664  0.28745191  0.28707096  1
  V  V38  1  0.14031237  -0.01791311  0.10283474  1
  V  V39  1  0.75135307  0.87391098  0.13942913  1
  V  V40  1  -0.00988941  0.88285504  0.90788131  1
  V  V41  1  0.69978267  0.48163969  0.79094111  1
  V  V42  1  0.29694468  0.42903063  0.25344955  1
  V  V43  1  0.63485516  0.11586917  -0.00359947  1
  V  V44  1  0.92189112  0.67369120  0.74310143  1
  V  V45  1  0.73341719  -0.01208065  0.28060658  1
  V  V46  1  0.11326021  0.85945434  0.26855213  1
  V  V47  1  0.50052939  0.21265255  0.57317317  1
  V  V48  1  0.11679034  0.16364377  0.48781126  1
  V  V49  1  0.74041804  0.12518513  0.86802162  1
  V  V50  1  0.25570808  0.62048030  0.37740907  1
  Zn  Zn51  1  0.82402943  0.57409622  0.59200727  1
  Zn  Zn52  1  0.66300536  0.68192130  0.72160988  1
  Zn  Zn53  1  0.32817629  -0.01733710  0.07997073  1
  Zn  Zn54  1  -0.02106042  0.11298414  0.11804963  1
  Zn  Zn55  1  0.16793514  0.91735125  0.94114134  1
  Zn  Zn56  1  0.83325148  0.30300819  0.31359881  1
  Zn  Zn57  1  0.94539822  0.18662006  0.42679057  1
  Zn  Zn58  1  0.15556016  0.68667110  0.19819127  1
  Zn  Zn59  1  0.19798919  0.44534239  0.96051370  1
  Zn  Zn60  1  0.44795783  0.85881686  0.14812044  1
  Zn  Zn61  1  0.44850380  0.43917493  0.16477222  1
  Zn  Zn62  1  0.59705282  0.36355608  0.47874597  1
  Zn  Zn63  1  0.78073104  0.44509706  0.44869269  1
  Zn  Zn64  1  0.93206795  0.69226231  0.93570303  1
  Zn  Zn65  1  0.08954005  0.97693550  0.39979644  1
  Zn  Zn66  1  0.21376361  0.16593561  0.67491165  1
  Zn  Zn67  1  0.04940585  0.32132129  0.04348824  1
  Zn  Zn68  1  0.53818292  0.71502647  0.49965088  1
  Zn  Zn69  1  0.44312899  0.67518044  0.91537488  1
  Zn  Zn70  1  0.81332839  0.82221713  0.33111066  1
  Zn  Zn71  1  0.43758127  0.92551144  0.74710377  1
  Zn  Zn72  1  0.70499768  0.68218160  0.19417211  1
  Zn  Zn73  1  0.09664746  0.61481742  0.79813058  1
  Zn  Zn74  1  0.78997662  0.28867545  0.79696828  1
  Zn  Zn75  1  -0.01628837  0.81578161  0.65945750  1
  Zn  Zn76  1  0.81800277  0.61300777  0.06509358  1
  Zn  Zn77  1  0.69023855  0.94479308  0.93983617  1
  Zn  Zn78  1  0.83087085  0.83430586  0.78934774  1
  Zn  Zn79  1  0.06702072  0.53239271  0.28706676  1
  Zn  Zn80  1  0.91814820  0.91401271  0.23349517  1
  Zn  Zn81  1  0.22258718  0.37769218  0.41819493  1
  Zn  Zn82  1  0.27522550  0.79111881  0.31482120  1
  Zn  Zn83  1  0.21666347  0.51194313  0.54487711  1
  Zn  Zn84  1  0.90113805  0.45701719  0.13070137  1
  Zn  Zn85  1  0.55484549  0.56952007  0.83865013  1
  Zn  Zn86  1  0.79217469  0.05448432  0.56910200  1
  Zn  Zn87  1  0.78991012  0.04890034  0.05582740  1
  Zn  Zn88  1  0.35534169  0.26812205  0.33204564  1
  Zn  Zn89  1  0.64003918  0.52794794  0.37321341  1
  Zn  Zn90  1  0.60049446  0.77142775  0.08481206  1
  Zn  Zn91  1  0.55683677  0.07945309  0.27047889  1
  Zn  Zn92  1  0.43608751  0.54471203  0.32712953  1
  Zn  Zn93  1  0.68344902  0.90580545  0.44921795  1
  Zn  Zn94  1  0.04145957  0.82331331  0.08004013  1
  Zn  Zn95  1  0.64619261  0.27659420  0.64249384  1
  Zn  Zn96  1  0.66241211  0.28057373  0.11181054  1
  Zn  Zn97  1  0.93830424  0.17153416  0.92941132  1
  Zn  Zn98  1  0.67706674  0.42646691  0.99613263  1
  Zn  Zn99  1  0.33911288  0.15939501  0.97781313  1
  Zn  Zn100  1  0.17493782  0.33484905  0.60015793  1
  Zn  Zn101  1  0.90979156  0.70246738  0.48678146  1
  O  O102  1  0.14919022  0.20705573  0.20956311  1
  O  O103  1  0.15121048  0.13232958  0.57838326  1
  O  O104  1  0.09928734  0.63734700  0.11527871  1
  O  O105  1  0.21477559  0.71856519  0.62809214  1
  O  O106  1  0.50277738  0.09523603  0.17474328  1
  O  O107  1  0.60813793  0.17778147  0.60777263  1
  O  O108  1  0.62970215  0.65757365  0.10915183  1
  O  O109  1  0.62812647  0.60624147  0.64224712  1
  O  O110  1  0.37744322  0.39305822  0.43056327  1
  O  O111  1  0.37672598  0.41031868  0.89436691  1
  O  O112  1  0.34596959  1.03268846  0.31241260  1
  O  O113  1  0.49143938  1.06359334  0.86381833  1
  O  O114  1  0.83968587  0.39102701  0.37725860  1
  O  O115  1  0.87967797  0.34316073  0.84383800  1
  O  O116  1  0.86956190  0.85729241  0.42519499  1
  O  O117  1  0.89195020  0.89910974  0.86214437  1
  O  O118  1  0.10742470  0.05320107  0.29604030  1
  O  O119  1  0.21248506  -0.04473571  0.84677844  1
  O  O120  1  0.24743915  0.44635145  0.33614195  1
  O  O121  1  0.26947813  0.52028797  0.92113041  1
  O  O122  1  0.72040457  -0.01785090  0.37759239  1
  O  O123  1  0.74858278  0.01308439  0.87242172  1
  O  O124  1  0.75859499  0.53457529  0.38438633  1
  O  O125  1  0.69442732  0.47906366  0.89461622  1
  O  O126  1  0.24565269  0.45105868  0.16671077  1
  O  O127  1  0.24159346  0.54090914  0.64893411  1
  O  O128  1  0.22681541  1.01019392  0.13863357  1
  O  O129  1  0.30168274  1.02883874  0.54299394  1
  O  O130  1  0.79877358  0.50549087  0.10087728  1
  O  O131  1  0.68946579  0.46359338  0.69442815  1
  O  O132  1  0.76616862  0.96946224  0.13748071  1
  O  O133  1  0.72605824  1.01816531  0.64241564  1
  O  O134  1  -0.03805640  0.36155080  0.12238505  1
  O  O135  1  -0.12888253  0.37054206  0.68495875  1
  O  O136  1  0.02241127  0.89913332  0.26106105  1
  O  O137  1  0.10741809  1.00249729  0.73231661  1
  O  O138  1  0.51868726  0.36906512  0.23691285  1
  O  O139  1  0.44487357  0.27479474  0.82562248  1
  O  O140  1  0.49204180  0.82960650  0.24994475  1
  O  O141  1  0.51903479  0.85996642  0.76693341  1
  O  O142  1  0.57963833  0.19267810  0.31545631  1
  O  O143  1  0.53094838  0.28711207  0.64919123  1
  O  O144  1  0.48055259  0.66698597  0.23573352  1
  O  O145  1  0.52887017  0.59971248  0.73178036  1
  O  O146  1  0.94626166  0.11515075  0.24462756  1
  O  O147  1  0.97460341  0.11710805  0.75103430  1
  O  O148  1  1.01125520  0.61344178  0.23198866  1
  O  O149  1  1.01936436  0.66058845  0.73333529  1
  O  O150  1  0.37284190  0.26292733  -0.02306742  1
  O  O151  1  0.36274868  0.41039735  0.59940495  1
  O  O152  1  0.35331761  0.78478903  -0.00354056  1
  O  O153  1  0.35107148  0.72383881  0.53559783  1
  O  O154  1  0.88174466  0.24546829  -0.01038551  1
  O  O155  1  0.86791959  0.22987691  0.49930025  1
  O  O156  1  0.83651434  0.71076244  -0.00235834  1
  O  O157  1  0.83705168  0.76434846  0.53922821  1
  O  O158  1  0.12583224  0.25574248  0.52971048  1
  O  O159  1  0.12179626  0.23477046  0.99147574  1
  O  O160  1  0.07191961  0.69631774  0.54342848  1
  O  O161  1  0.10615006  0.76000866  1.01193195  1
  O  O162  1  0.66598925  0.26319910  0.47004748  1
  O  O163  1  0.62072142  0.19942394  1.04576181  1
  O  O164  1  0.64441333  0.74929101  0.50842337  1
  O  O165  1  0.67057508  0.73542920  0.99506226  1
  O  O166  1  0.58816782  0.25722404  0.19181926  1
  O  O167  1  0.51039082  0.30087726  0.51887495  1
  O  O168  1  0.49207974  0.76229016  0.10611427  1
  O  O169  1  0.51825585  0.69461650  0.61239495  1
  O  O170  1  0.94986879  0.28954923  0.15517249  1
  O  O171  1  1.00196564  0.25849752  0.69526701  1
  O  O172  1  0.98310433  0.75375077  0.13840660  1
  O  O173  1  0.99249230  0.73071332  0.55978045  1
  O  O174  1  -0.07126354  0.25787329  0.34786510  1
  O  O175  1  0.00347393  0.23856691  0.85494687  1
  O  O176  1  0.08318815  0.68714895  0.47306882  1
  O  O177  1  -0.02010689  0.78781032  0.90400886  1
  O  O178  1  0.54433180  0.32267409  0.37937202  1
  O  O179  1  0.50162576  0.23285310  0.83729851  1
  O  O180  1  0.53255886  0.72677000  0.38561553  1
  O  O181  1  0.49397718  0.76408473  0.89113016  1
  O  O182  1  0.19726777  0.17449886  0.43543859  1
  O  O183  1  0.21505877  0.15394086  1.02385327  1
  O  O184  1  0.24753719  0.57932997  0.46676784  1
  O  O185  1  0.21069444  0.64327350  1.00683372  1
  O  O186  1  0.75847931  0.14653951  0.50205155  1
  O  O187  1  0.74811702  0.14046355  0.98889402  1
  O  O188  1  0.75475589  0.64414433  0.53888880  1
  O  O189  1  0.73063075  0.59184270  0.99647471  1
  O  O190  1  0.28007907  0.38155248  0.01519534  1
  O  O191  1  0.22509741  0.40065041  0.52698108  1
  O  O192  1  0.19473414  0.88939869  0.04563201  1
  O  O193  1  0.18309535  0.81045073  0.51149789  1
  O  O194  1  0.75136298  0.34254897  -0.02387190  1
  O  O195  1  0.78563095  0.34258383  0.51220309  1
  O  O196  1  0.76400081  0.86239192  0.01875981  1
  O  O197  1  0.74282527  0.86917575  0.53736241  1
  O  O198  1  0.09075614  0.46751953  0.20400389  1
  O  O199  1  0.12209294  0.51315917  0.75456213  1
  O  O200  1  0.17882943  1.05950565  0.29498089  1
  O  O201  1  0.22484081  0.93313905  0.63650501  1
  O  O202  1  0.68708994  0.50633992  0.21995425  1
  O  O203  1  0.59507342  0.46941270  0.80155219  1
  O  O204  1  0.64421761  1.01509275  0.24676001  1
  O  O205  1  0.63309833  1.00301963  0.76024432  1
  O  O206  1  0.38081575  -0.06445317  0.44081685  1
  O  O207  1  0.37237711  -0.03544417  0.82494583  1
  O  O208  1  0.38834389  0.47323042  0.25137500  1
  O  O209  1  0.34512039  0.53002107  0.78864171  1
  O  O210  1  0.86445192  -0.03734363  0.31379425  1
  O  O211  1  0.84830533  0.01907115  0.76864000  1
  O  O212  1  0.83881720  0.44134851  0.22913655  1
  O  O213  1  0.78896958  0.51752696  0.79103741  1
  O  O214  1  0.26684696  0.28415784  0.39261891  1
  O  O215  1  0.15317160  0.39057000  0.87376766  1
  O  O216  1  0.14304979  0.89463609  0.35899976  1
  O  O217  1  0.08228170  0.89634884  0.86274667  1
  O  O218  1  0.67147368  0.42829681  0.42524524  1
  O  O219  1  0.58517822  0.34681903  0.95804177  1
  O  O220  1  0.63078912  0.84023545  0.38122725  1
  O  O221  1  0.61839776  0.87165926  0.90259617  1
  O  O222  1  0.37834489  0.09076366  0.06214868  1
  O  O223  1  0.40521679  0.21984924  0.54863525  1
  O  O224  1  0.36877195  0.67512623  0.12677825  1
  O  O225  1  0.42997445  0.57809123  0.64092999  1
  O  O226  1  0.86482732  0.10866299  0.11614825  1
  O  O227  1  0.86259100  0.10424619  0.63980509  1
  O  O228  1  0.88653793  0.65532405  0.14135245  1
  O  O229  1  0.87260895  0.61863506  0.67555680  1
  O  O230  1  0.19626313  0.23194162  0.02465810  1
  O  O231  1  0.24668616  0.25429003  0.62387439  1
  O  O232  1  0.22728836  0.75213321  0.13723810  1
  O  O233  1  0.24074905  0.84830478  0.50704927  1
  O  O234  1  0.76557414  0.24760425  0.09362090  1
  O  O235  1  0.75034422  0.24380013  0.59807844  1
  O  O236  1  0.77792668  0.76072336  0.15019272  1
  O  O237  1  0.72249478  0.74029126  0.65566202  1
  O  O238  1  0.39047209  0.18668516  0.38588437  1
  O  O239  1  0.27012710  0.25877640  0.79988647  1
  O  O240  1  0.24652637  0.71787963  0.38811392  1
  O  O241  1  0.22463843  0.74560400  0.89013795  1
  O  O242  1  0.77056424  0.25138428  0.39281523  1
  O  O243  1  0.75155993  0.22662515  0.88220452  1
  O  O244  1  0.75085923  0.74398628  0.37651856  1
  O  O245  1  0.77137301  0.78740732  0.87476646  1
  O  O246  1  0.01431894  0.13119779  0.00837370  1
  O  O247  1  0.01280117  0.15622779  0.51784146  1
  O  O248  1  0.00028196  0.64620204  0.01367418  1
  O  O249  1  0.02439392  0.47494677  0.37282303  1
  O  O250  1  0.53522780  0.07974231  0.01667944  1
  O  O251  1  0.52837169  0.15311712  0.50306727  1
  O  O252  1  0.47993084  0.64142343  0.02288867  1
  O  O253  1  0.52193052  0.59979207  0.52564259  1
  O  O254  1  0.53501781  0.45071221  0.46777662  1
  O  O255  1  0.52088813  0.37598281  0.94063708  1
  O  O256  1  0.39489925  0.71558946  0.48128731  1
  O  O257  1  0.34873109  0.81808777  0.93467576  1
  O  O258  1  1.06756365  0.39157634  0.55807095  1
  O  O259  1  0.99777232  0.36329083  0.95531669  1
  O  O260  1  0.91822187  0.87534258  0.58825017  1
  O  O261  1  1.00635369  0.89915488  1.00512754  1
  O  O262  1  0.53798030  0.51969677  0.34253234  1
  O  O263  1  0.46347573  0.55730021  0.89563632  1
  O  O264  1  0.43092877  0.92075665  0.39535975  1
  O  O265  1  0.51677413  1.00134155  0.88358816  1
  O  O266  1  0.97087410  0.36091325  0.46135211  1
  O  O267  1  1.02134184  0.39677944  0.79450279  1
  O  O268  1  0.98696801  0.96667659  0.42852305  1
  O  O269  1  0.97262138  1.00715842  0.89059449  1
  O  O270  1  0.06877343  0.04017509  0.13568128  1
  O  O271  1  -0.00463861  -0.00103731  0.61694608  1
  O  O272  1  -0.02917110  0.53328478  0.10553233  1
  O  O273  1  0.10843261  0.50191823  0.49937033  1
  O  O274  1  0.45493897  -0.04015017  0.10291783  1
  O  O275  1  0.46618612  0.15991085  0.64926020  1
  O  O276  1  0.48105205  0.54608402  0.12795330  1
  O  O277  1  0.54453576  0.49366601  0.61631134  1
  O  O278  1  0.31843766  0.33343700  0.25232671  1
  O  O279  1  0.23934004  0.43339890  0.76555930  1
  O  O280  1  0.22908424  0.86261283  0.24392718  1
  O  O281  1  0.22696410  0.90188049  0.70917822  1
  O  O282  1  0.79803140  0.37188602  0.22258360  1
  O  O283  1  0.73180067  0.38906887  0.80342807  1
  O  O284  1  0.75026238  0.88394789  0.25168851  1
  O  O285  1  0.75275051  0.90008326  0.74821281  1
  O  O286  1  0.21642517  0.20402351  0.23292899  1
  O  O287  1  0.28135759  0.08254644  0.69111370  1
  O  O288  1  0.20883368  0.60883311  0.27054791  1
  O  O289  1  0.21495259  0.61574325  0.80092158  1
  O  O290  1  0.78106190  0.07718707  0.26115664  1
  O  O291  1  0.74020479  0.11832516  0.76857352  1
  O  O292  1  0.78003948  0.63520856  0.26727207  1
  O  O293  1  0.67434227  0.58585873  0.78958622  1
  O  O294  1  0.51475847  0.05828352  0.36209081  1
  O  O295  1  0.30818916  0.09732814  0.89117251  1
  O  O296  1  0.34923817  0.60081391  0.35393569  1
  O  O297  1  0.33843411  0.64315299  0.90671436  1
  O  O298  1  0.89854954  0.09080979  0.40210977  1
  O  O299  1  0.85793532  0.11528205  0.87429335  1
  O  O300  1  0.86824271  0.64153136  0.40986701  1
  O  O301  1  0.89782441  0.65290873  0.83571486  1
  O  O302  1  0.13184660  0.34483396  0.11417789  1
  O  O303  1  0.13673467  0.35560931  0.70014894  1
  O  O304  1  0.12033782  0.88833741  0.15629024  1
  O  O305  1  0.07328783  0.85636197  0.71092807  1
  O  O306  1  0.67765333  0.39404443  0.10719940  1
  O  O307  1  0.64792148  0.36795071  0.58035949  1
  O  O308  1  0.65571219  0.85729183  0.12322736  1
  O  O309  1  0.49683979  0.83060661  0.51947826  1
  O  O310  1  -0.00160594  0.23943132  0.12330879  1
  O  O311  1  0.12940505  0.17927235  0.73953572  1
  O  O312  1  0.11121622  0.76263842  0.26792859  1
  O  O313  1  0.26376802  0.74738185  0.66999288  1
  O  O314  1  0.64901604  0.32690427  0.29720856  1
  O  O315  1  0.68737184  0.27800510  0.74055878  1
  O  O316  1  0.63405616  0.73850222  0.26239902  1
  O  O317  1  0.61954280  0.74186858  0.79714920  1
  O  O318  1  0.45659308  0.26110279  0.27924328  1
  O  O319  1  0.23220311  0.25112652  0.85686637  1
  O  O320  1  0.38232127  0.76208649  0.32380792  1
  O  O321  1  0.39566207  0.96461246  0.65511524  1
  O  O322  1  0.82926183  0.22405804  0.23795878  1
  O  O323  1  0.84977929  0.21420309  0.74562376  1
  O  O324  1  0.89332046  0.76911613  0.26990757  1
  O  O325  1  0.90365604  0.77403810  0.72725440  1
  O  O326  1  0.38039196  0.46333856  0.43466269  1
  O  O327  1  0.41037104  0.48598103  1.00468809  1
  O  O328  1  0.33141993  1.08110417  0.26302317  1
  O  O329  1  0.31331554  0.96263079  0.97158412  1
  O  O330  1  0.96702340  0.49631344  0.49609110  1
  O  O331  1  0.93052687  0.50143126  0.88679462  1
  O  O332  1  0.83932671  0.98276689  0.49855871  1
  O  O333  1  0.85409254  0.99830946  0.98046636  1
  O  O334  1  0.13821535  0.01919969  0.00218509  1
  O  O335  1  0.11573682  0.06778120  0.45907348  1
  O  O336  1  0.13437750  0.48458102  0.04229031  1
  O  O337  1  0.10705703  0.37935705  0.41015227  1
  O  O338  1  0.67611103  0.02496237  0.02244472  1
  O  O339  1  0.59835781  -0.02521030  0.52138354  1
  O  O340  1  0.59059677  0.51673279  0.01559389  1
  O  O341  1  0.80935436  0.48259048  0.54574469  1
  O  O342  1  0.42572526  0.36730598  0.08512895  1
  O  O343  1  0.35806926  0.39185289  0.66747143  1
  O  O344  1  0.33143198  0.87261464  0.12952655  1
  O  O345  1  0.45669499  0.84971468  0.57422848  1
  O  O346  1  0.88669895  0.50198446  -0.05914775  1
  O  O347  1  0.90633047  0.43024086  0.68000172  1
  O  O348  1  0.87333032  0.86132632  0.14596996  1
  O  O349  1  0.96387849  0.98613211  0.67651042  1
  O  O350  1  0.05987837  0.20109374  0.40305958  1
  O  O351  1  0.10697618  0.11883585  0.88503195  1
  O  O352  1  0.15471948  0.59283033  0.33142699  1
  O  O353  1  0.10928826  0.63495180  0.90729759  1
  O  O354  1  0.52852420  -0.01799572  0.50724147  1
  O  O355  1  0.63649742  0.12499529  0.89410417  1
  O  O356  1  0.66427292  0.64007731  0.38603808  1
  O  O357  1  0.59349772  0.63396879  0.91913874  1
