# generated using pymatgen
data_V51Zn51O256
_symmetry_space_group_name_H-M   'P 1'
_cell_length_a   17.29532444
_cell_length_b   17.41114394
_cell_length_c   17.71966971
_cell_angle_alpha   89.90105640
_cell_angle_beta   88.89823203
_cell_angle_gamma   89.86263809
_symmetry_Int_Tables_number   1
_chemical_formula_structural   V51Zn51O256
_chemical_formula_sum   'V51 Zn51 O256'
_cell_volume   5334.93926787
_cell_formula_units_Z   1
loop_
 _symmetry_equiv_pos_site_id
 _symmetry_equiv_pos_as_xyz
  1  'x, y, z'
loop_
 _atom_site_type_symbol
 _atom_site_label
 _atom_site_symmetry_multiplicity
 _atom_site_fract_x
 _atom_site_fract_y
 _atom_site_fract_z
 _atom_site_occupancy
  V  V0  1  0.12084608  0.88309440  0.24897680  1
  V  V1  1  -0.02673518  0.89789006  0.35895171  1
  V  V2  1  0.22138441  0.45198970  0.74005911  1
  V  V3  1  0.59744434  0.01755422  0.13750669  1
  V  V4  1  0.78593556  0.90636830  0.66490395  1
  V  V5  1  0.77028093  0.37376785  0.64617243  1
  V  V6  1  0.48047931  0.27955170  0.76267661  1
  V  V7  1  0.23966483  0.23970033  0.48677656  1
  V  V8  1  0.88230593  0.76039198  0.10254010  1
  V  V9  1  -0.07106598  0.25123504  0.27000013  1
  V  V10  1  0.85499489  0.63635778  0.24335997  1
  V  V11  1  0.63880642  0.64225403  -0.02184101  1
  V  V12  1  0.24571143  0.09629088  0.36030164  1
  V  V13  1  0.63945459  0.87194631  0.77859393  1
  V  V14  1  0.24284364  0.60359728  0.36698050  1
  V  V15  1  0.07175508  0.37992962  0.28877993  1
  V  V16  1  0.24083750  0.79564629  0.47818034  1
  V  V17  1  0.60538188  0.25562476  0.38247869  1
  V  V18  1  0.76220628  0.26833836  0.48536716  1
  V  V19  1  0.41274295  0.26055601  0.57161353  1
  V  V20  1  0.86722585  0.49741836  0.88625299  1
  V  V21  1  0.35585798  0.03179511  0.93180361  1
  V  V22  1  0.02969930  0.67164518  0.77179280  1
  V  V23  1  0.11013833  -0.00534507  0.12382411  1
  V  V24  1  0.71464425  0.25353845  0.04920281  1
  V  V25  1  0.72136506  0.87216152  0.12038290  1
  V  V26  1  0.63708907  0.75593858  0.35800338  1
  V  V27  1  0.66402961  0.41230719  0.29335397  1
  V  V28  1  0.91306452  0.86034000  0.53157825  1
  V  V29  1  0.84477611  0.09705798  0.20761521  1
  V  V30  1  0.46828013  0.41216166  0.35374921  1
  V  V31  1  0.88184054  0.90106078  0.00204016  1
  V  V32  1  0.60770512  0.13106864  -0.01628955  1
  V  V33  1  0.29654004  0.84546074  0.09289781  1
  V  V34  1  0.38206246  0.72506976  0.60424208  1
  V  V35  1  0.48143421  0.85183862  0.32003934  1
  V  V36  1  0.00125857  0.03827722  0.55064946  1
  V  V37  1  0.48007895  0.27287714  0.23286865  1
  V  V38  1  -0.00502076  0.75271064  0.25191681  1
  V  V39  1  0.63881767  0.27495732  0.87645093  1
  V  V40  1  0.85577380  0.34899166  0.05506209  1
  V  V41  1  0.74825605  0.09275246  0.41152505  1
  V  V42  1  0.43714804  0.51271199  0.50817107  1
  V  V43  1  0.39950913  0.12825212  0.71162224  1
  V  V44  1  0.66988805  0.49690115  0.56723803  1
  V  V45  1  0.00341764  0.63274358  0.10231844  1
  V  V46  1  0.23513507  0.37714917  0.11383979  1
  V  V47  1  0.00438378  0.92676027  0.88815557  1
  V  V48  1  0.11464890  0.50482399  0.09858229  1
  V  V49  1  0.64019906  0.46518487  0.14715724  1
  V  V50  1  0.40611720  0.00359773  0.31373025  1
  Zn  Zn51  1  0.55882208  0.35808927  0.51745431  1
  Zn  Zn52  1  1.00533335  0.92496762  0.68987900  1
  Zn  Zn53  1  0.80393972  0.57519010  0.07287064  1
  Zn  Zn54  1  0.14291684  0.95431601  0.42873678  1
  Zn  Zn55  1  0.87723642  0.74274593  0.40129298  1
  Zn  Zn56  1  0.39222660  0.20058396  0.37503075  1
  Zn  Zn57  1  0.24712041  0.02004077  0.05903549  1
  Zn  Zn58  1  0.41621728  0.42426128  0.66048070  1
  Zn  Zn59  1  0.94293112  0.94492821  0.17808279  1
  Zn  Zn60  1  0.97710431  0.37691176  0.67776584  1
  Zn  Zn61  1  0.30671144  0.10963280  0.56919105  1
  Zn  Zn62  1  0.26281770  0.57077168  0.55836914  1
  Zn  Zn63  1  0.03468173  0.31970568  0.10926579  1
  Zn  Zn64  1  0.25752981  0.39607241  0.36782599  1
  Zn  Zn65  1  0.91406853  0.16304571  0.44298683  1
  Zn  Zn66  1  0.04047043  0.57232889  0.29108308  1
  Zn  Zn67  1  0.73146131  0.70041303  0.80406477  1
  Zn  Zn68  1  0.31774813  0.52070822  0.10169997  1
  Zn  Zn69  1  0.13930310  0.79660987  0.63863894  1
  Zn  Zn70  1  0.48345217  0.16539822  0.88067988  1
  Zn  Zn71  1  0.45756315  0.95804747  0.79127994  1
  Zn  Zn72  1  0.51376933  0.83313527  0.11870910  1
  Zn  Zn73  1  0.68634514  0.70825041  0.16242039  1
  Zn  Zn74  1  0.80791537  0.82835814  0.27721742  1
  Zn  Zn75  1  0.30408599  0.81001823  0.74785213  1
  Zn  Zn76  1  0.20274357  0.87270021  0.92311998  1
  Zn  Zn77  1  0.16353135  -0.08586803  0.77353330  1
  Zn  Zn78  1  0.89514783  0.81076820  0.80906439  1
  Zn  Zn79  1  0.73535132  0.24444468  0.23525314  1
  Zn  Zn80  1  0.56180035  0.65574849  0.52292239  1
  Zn  Zn81  1  0.45484746  0.39394444  0.12619966  1
  Zn  Zn82  1  0.60426775  0.37408950  0.70561896  1
  Zn  Zn83  1  0.17377537  0.70013059  0.17511351  1
  Zn  Zn84  1  0.05518883  0.82651543  0.05905948  1
  Zn  Zn85  1  0.21408438  0.64900920  0.69862602  1
  Zn  Zn86  1  0.81353772  0.01792441  0.55903355  1
  Zn  Zn87  1  0.04789590  0.22788080  0.55575594  1
  Zn  Zn88  1  0.93786542  0.46752894  0.18626827  1
  Zn  Zn89  1  0.41315710  0.69792881  0.43507645  1
  Zn  Zn90  1  0.20549706  0.17419974  0.17637990  1
  Zn  Zn91  1  0.22243975  0.46285356  0.94859190  1
  Zn  Zn92  1  0.54548527  0.57201645  0.28890516  1
  Zn  Zn93  1  0.71573667  0.95856106  0.94583938  1
  Zn  Zn94  1  0.40861427  0.96912430  0.11586124  1
  Zn  Zn95  1  0.54986749  0.10653482  0.30015165  1
  Zn  Zn96  1  0.78734100  0.45252405  0.42226787  1
  Zn  Zn97  1  0.69307983  0.43257190  0.95744425  1
  Zn  Zn98  1  0.28490737  0.25715054  0.69248633  1
  Zn  Zn99  1  0.29804286  0.80500072  0.30919891  1
  Zn  Zn100  1  0.82558707  0.09942810  1.00556284  1
  Zn  Zn101  1  0.65915704  0.94484947  0.29696751  1
  O  O102  1  0.17507863  0.08288810  0.12215852  1
  O  O103  1  0.19579967  0.05870001  0.67866146  1
  O  O104  1  0.11049279  0.61495121  0.12923289  1
  O  O105  1  0.17195299  0.60041800  0.61383932  1
  O  O106  1  0.59676343  0.10597648  0.09692689  1
  O  O107  1  0.66885112  0.14524725  0.68467240  1
  O  O108  1  0.63033682  0.65011501  0.08094597  1
  O  O109  1  0.62791734  0.58580718  0.57897784  1
  O  O110  1  0.37414377  0.38804622  0.35917050  1
  O  O111  1  0.41168722  0.42653224  0.90742166  1
  O  O112  1  0.37985992  0.88082641  0.31542619  1
  O  O113  1  0.25975812  0.99974861  0.89271404  1
  O  O114  1  0.93761239  0.50533456  0.39769298  1
  O  O115  1  0.86365869  0.40140323  0.93158537  1
  O  O116  1  0.87605483  0.85444044  0.35888116  1
  O  O117  1  0.88219904  0.88533694  0.90470671  1
  O  O118  1  0.31248050  0.01586638  0.35841637  1
  O  O119  1  0.24196849  0.05927238  0.94433391  1
  O  O120  1  0.26061871  0.50975238  0.35479860  1
  O  O121  1  0.22485638  0.44792109  0.84141154  1
  O  O122  1  0.70062270  0.02365259  0.36084140  1
  O  O123  1  0.79618895  0.04100326  0.90679828  1
  O  O124  1  0.88059120  0.51441105  0.44992986  1
  O  O125  1  0.76275997  0.48009592  0.88122927  1
  O  O126  1  0.21280745  0.49124128  0.13723861  1
  O  O127  1  0.22161092  0.46949628  0.64052104  1
  O  O128  1  0.26964524  0.93274852  0.13138654  1
  O  O129  1  0.24684818  1.02630758  0.62895480  1
  O  O130  1  0.72138391  0.50435628  0.10336988  1
  O  O131  1  0.75861257  0.47324006  0.61560906  1
  O  O132  1  0.68544470  0.97431025  0.11182587  1
  O  O133  1  0.81714895  0.99957654  0.67032124  1
  O  O134  1  0.00964378  0.31195804  0.22763327  1
  O  O135  1  -0.00315579  0.36381222  0.77821649  1
  O  O136  1  -0.00983078  0.86800840  0.25127335  1
  O  O137  1  0.00195400  0.75992378  0.82723463  1
  O  O138  1  0.49216144  0.37620167  0.25566220  1
  O  O139  1  0.49354256  0.37739991  0.72308642  1
  O  O140  1  0.50221723  0.83204532  0.22903682  1
  O  O141  1  0.54223776  0.89440635  0.77575400  1
  O  O142  1  0.55402933  0.20788124  0.24926344  1
  O  O143  1  0.48160723  0.16491575  0.76199595  1
  O  O144  1  0.47945136  0.63313843  0.21265088  1
  O  O145  1  0.50451875  0.64010248  0.76512222  1
  O  O146  1  0.92863387  0.16080818  0.22685170  1
  O  O147  1  0.89835596  0.18009828  0.88190249  1
  O  O148  1  0.98541260  0.64688227  0.22961492  1
  O  O149  1  1.02114436  0.58425048  0.73066696  1
  O  O150  1  0.35370661  0.23168657  0.02237941  1
  O  O151  1  0.39050254  0.23149242  0.47975807  1
  O  O152  1  0.35881244  0.58369086  -0.04937906  1
  O  O153  1  0.33975263  0.75894436  0.51193944  1
  O  O154  1  0.82334600  0.25767429  0.07862879  1
  O  O155  1  0.83867038  0.21446182  0.51287530  1
  O  O156  1  0.88038988  0.76187922  0.00974132  1
  O  O157  1  0.88604178  0.76836380  0.50589021  1
  O  O158  1  0.14322213  0.22478000  0.49782806  1
  O  O159  1  0.11121616  0.31563752  0.90199637  1
  O  O160  1  0.16647265  0.76784593  0.53661917  1
  O  O161  1  0.13100976  0.78647464  0.97777008  1
  O  O162  1  0.64052361  0.29578569  0.46729785  1
  O  O163  1  0.62869655  0.25563761  0.98912167  1
  O  O164  1  0.61538171  0.72161637  0.44716484  1
  O  O165  1  0.62328734  0.73952713  0.96740784  1
  O  O166  1  0.46775950  0.28357979  0.13746870  1
  O  O167  1  0.51094090  0.27072272  0.57186191  1
  O  O168  1  0.49330942  0.74728872  0.05798772  1
  O  O169  1  0.47667020  0.70993436  0.57921727  1
  O  O170  1  1.09759414  0.18067192  0.27117104  1
  O  O171  1  1.07300321  0.16397035  0.74364362  1
  O  O172  1  0.99386437  0.74551902  0.11869868  1
  O  O173  1  1.06340430  0.72413970  0.68829818  1
  O  O174  1  -0.05656533  0.23442241  0.36324183  1
  O  O175  1  0.06915068  0.19950937  0.97845411  1
  O  O176  1  -0.01074649  0.74487771  0.34624019  1
  O  O177  1  0.03304507  0.63230967  0.86020425  1
  O  O178  1  0.51441919  0.29870903  0.37868937  1
  O  O179  1  0.43923409  0.28478238  0.84779652  1
  O  O180  1  0.47398208  0.76900293  0.37571817  1
  O  O181  1  0.38962288  0.75516872  0.92379215  1
  O  O182  1  0.26406209  0.11788674  0.47151071  1
  O  O183  1  0.21023828  0.18785199  0.86310455  1
  O  O184  1  0.22886135  0.61489416  0.46103547  1
  O  O185  1  0.16772825  0.71428589  0.99209908  1
  O  O186  1  0.73537978  0.06769008  0.50645790  1
  O  O187  1  0.72554319  0.15711219  1.01085080  1
  O  O188  1  0.82098669  0.66013117  0.59809472  1
  O  O189  1  0.74058670  0.64580077  1.01086971  1
  O  O190  1  0.23519722  0.37453620  0.01796763  1
  O  O191  1  0.24753264  0.33395198  0.46023906  1
  O  O192  1  0.27900485  0.85244221  -0.00210010  1
  O  O193  1  0.23137064  0.89269177  0.46476697  1
  O  O194  1  0.74599780  0.35738430  0.02041926  1
  O  O195  1  0.80349349  0.34370281  0.44062817  1
  O  O196  1  0.76755324  0.89075917  0.02270875  1
  O  O197  1  0.80958807  0.89053534  0.56499349  1
  O  O198  1  0.03659917  0.46964865  0.25055888  1
  O  O199  1  0.12265742  0.44557790  0.73891667  1
  O  O200  1  0.12809534  0.98208892  0.23077270  1
  O  O201  1  0.19508038  1.03038719  0.74676204  1
  O  O202  1  0.62446086  0.50862716  0.23676185  1
  O  O203  1  0.54389994  0.58119949  0.75990537  1
  O  O204  1  0.59477501  1.02388128  0.23814228  1
  O  O205  1  0.68542124  0.90687470  0.69125200  1
  O  O206  1  0.40590668  0.00995826  0.21854920  1
  O  O207  1  0.40892386  0.03086753  0.72765671  1
  O  O208  1  0.44112129  0.57958622  0.17534468  1
  O  O209  1  0.33016988  0.44660510  0.72913648  1
  O  O210  1  0.86251090  0.00221553  0.23053882  1
  O  O211  1  0.97195822  -0.10191416  0.79175414  1
  O  O212  1  0.87653447  0.53976110  0.24270841  1
  O  O213  1  0.86646621  0.47525169  0.79201198  1
  O  O214  1  0.03404022  0.37372260  0.37314996  1
  O  O215  1  0.10176903  0.27249792  0.84819836  1
  O  O216  1  0.08819929  0.89198555  0.34992152  1
  O  O217  1  0.10668993  0.91438298  0.87342076  1
  O  O218  1  0.59458857  0.42827965  0.35974824  1
  O  O219  1  0.62607582  0.37297877  0.89747251  1
  O  O220  1  0.60139070  0.85353210  0.34308749  1
  O  O221  1  0.68439739  0.90887553  0.85472422  1
  O  O222  1  0.35987492  0.18904665  0.07681494  1
  O  O223  1  0.40671897  0.13907492  0.61028839  1
  O  O224  1  0.37927283  0.60793457  0.13730873  1
  O  O225  1  0.33434921  0.63979750  0.62406630  1
  O  O226  1  0.83699610  0.10275350  0.11361306  1
  O  O227  1  0.79280151  0.10020085  0.79124053  1
  O  O228  1  0.88633573  0.64306394  0.11507744  1
  O  O229  1  0.83942628  0.59769902  0.57211639  1
  O  O230  1  0.22574030  0.28383110  0.14720282  1
  O  O231  1  0.27471385  0.22823928  0.58516051  1
  O  O232  1  0.25296839  0.76271089  0.13136495  1
  O  O233  1  0.23391825  0.75321615  0.68286967  1
  O  O234  1  0.67977742  0.24529950  0.13768456  1
  O  O235  1  0.73505797  0.30594750  0.57997972  1
  O  O236  1  0.77522872  0.77671591  0.12473319  1
  O  O237  1  0.65504991  0.73530948  0.62503535  1
  O  O238  1  0.26796635  0.20413522  0.38499667  1
  O  O239  1  0.24590310  0.22929488  0.90579136  1
  O  O240  1  0.23389028  0.75479057  0.38989313  1
  O  O241  1  0.24880624  0.86221668  0.81949551  1
  O  O242  1  0.73100265  0.19881748  0.41054897  1
  O  O243  1  0.73059238  0.26091419  0.86017298  1
  O  O244  1  0.73374732  0.76990890  0.35067220  1
  O  O245  1  0.81528914  0.74522346  0.84822167  1
  O  O246  1  0.06671500  0.20828118  0.10598295  1
  O  O247  1  -0.00797169  0.13855439  0.52081937  1
  O  O248  1  0.01415610  0.64364077  0.01250384  1
  O  O249  1  -0.00890983  0.61878544  0.53989054  1
  O  O250  1  0.50931855  0.13349243  -0.00944145  1
  O  O251  1  0.56822147  0.05541832  0.58443319  1
  O  O252  1  0.54252644  0.62031676  -0.02960555  1
  O  O253  1  0.46877705  0.60403461  0.46952889  1
  O  O254  1  0.48444411  0.42871092  0.46400473  1
  O  O255  1  0.40439810  0.40104094  0.97575347  1
  O  O256  1  0.52378277  0.89415300  0.52795616  1
  O  O257  1  0.41418584  0.75390078  0.85823188  1
  O  O258  1  1.06611534  0.43814488  0.51264280  1
  O  O259  1  0.95312110  0.33052543  1.03648438  1
  O  O260  1  0.98558408  0.87302888  0.45850209  1
  O  O261  1  0.99445360  0.88586665  0.98713901  1
  O  O262  1  0.46623172  0.50901954  0.33261246  1
  O  O263  1  0.47468642  0.45874949  0.88419839  1
  O  O264  1  0.49218807  0.95542608  0.34762177  1
  O  O265  1  0.41300399  0.96211205  0.89063144  1
  O  O266  1  1.05173824  0.64075590  0.51038355  1
  O  O267  1  0.96510734  0.48570555  0.88608785  1
  O  O268  1  0.96203159  0.98972971  0.35646191  1
  O  O269  1  0.98984669  1.01868288  0.89142245  1
  O  O270  1  0.01447932  0.01611859  0.12415734  1
  O  O271  1  0.00685250  0.02942803  0.64641564  1
  O  O272  1  0.00534580  0.52195020  0.10874324  1
  O  O273  1  -0.01956322  0.47374424  0.63915456  1
  O  O274  1  0.52462332  -0.04442761  0.10618174  1
  O  O275  1  0.64455358  0.09010419  0.72037422  1
  O  O276  1  0.55108376  0.45062428  0.10523343  1
  O  O277  1  0.46001904  0.50903247  0.60092756  1
  O  O278  1  0.17140586  0.37764657  0.29705338  1
  O  O279  1  0.23299790  0.34945243  0.73126611  1
  O  O280  1  0.21334367  0.85680390  0.26106052  1
  O  O281  1  0.38004968  0.92817943  0.58416231  1
  O  O282  1  0.75002225  0.44644930  0.32066366  1
  O  O283  1  0.71198495  0.36822138  0.72505406  1
  O  O284  1  0.73391238  0.88940961  0.22168108  1
  O  O285  1  0.83297436  0.84544740  0.72187004  1
  O  O286  1  0.24667320  0.12700482  0.26753035  1
  O  O287  1  0.30714181  0.15652297  0.73884029  1
  O  O288  1  0.20017609  0.63199346  0.26835850  1
  O  O289  1  0.23166631  0.55404284  0.75480801  1
  O  O290  1  0.76343057  0.13639714  0.25188526  1
  O  O291  1  0.76025596  0.09585029  0.85420533  1
  O  O292  1  0.76234344  0.64181946  0.21023889  1
  O  O293  1  0.74541527  0.61849626  0.74260783  1
  O  O294  1  0.44015801  0.09698226  0.34121544  1
  O  O295  1  0.38398910  0.11759844  0.89442047  1
  O  O296  1  0.34488989  0.65082620  0.34741830  1
  O  O297  1  0.34436966  0.60032166  0.88350779  1
  O  O298  1  0.84577046  0.08693290  0.39683747  1
  O  O299  1  0.90590176  0.17505785  0.95769648  1
  O  O300  1  0.85051487  0.65689742  0.33911774  1
  O  O301  1  0.86122996  0.59556903  0.87562863  1
  O  O302  1  0.11487788  0.39777126  0.11870953  1
  O  O303  1  0.03779684  0.30280951  0.62782057  1
  O  O304  1  0.10080039  0.88299305  0.14192320  1
  O  O305  1  0.11213386  0.89043261  0.68399465  1
  O  O306  1  0.67259370  0.38208050  0.19017128  1
  O  O307  1  0.60640374  0.42171900  0.59653858  1
  O  O308  1  0.63456706  0.82648400  0.11713115  1
  O  O309  1  0.70906882  0.76833243  0.59324852  1
  O  O310  1  0.11044887  0.22237638  0.32592158  1
  O  O311  1  0.07379355  0.12062112  0.79789406  1
  O  O312  1  0.09597104  0.76462754  0.23265048  1
  O  O313  1  0.13591250  0.68153277  0.77782869  1
  O  O314  1  0.66864413  0.30236022  0.30947761  1
  O  O315  1  0.58523382  0.27721754  0.77958204  1
  O  O316  1  0.61149451  0.72129427  0.25185294  1
  O  O317  1  0.65530788  0.77426280  0.77676740  1
  O  O318  1  0.39534316  0.24045341  0.27268090  1
  O  O319  1  0.40291417  0.26192936  0.69125796  1
  O  O320  1  0.34407789  0.69899935  0.28455949  1
  O  O321  1  0.38581310  0.78757935  0.68054085  1
  O  O322  1  0.84069878  0.28951914  0.25618480  1
  O  O323  1  0.95527686  0.20670756  0.84467609  1
  O  O324  1  0.88444364  0.75300703  0.22519836  1
  O  O325  1  0.93180993  0.68736579  0.74534867  1
  O  O326  1  0.33868008  0.50748837  0.50742733  1
  O  O327  1  0.29674433  0.53735782  0.99203589  1
  O  O328  1  0.53292980  1.04598503  0.52604459  1
  O  O329  1  0.36217654  1.02721842  1.03299327  1
  O  O330  1  0.98649043  0.56384220  0.39544807  1
  O  O331  1  0.85820250  0.52683294  0.98706959  1
  O  O332  1  0.91682962  0.98732050  0.52388516  1
  O  O333  1  0.88210155  0.99618696  1.01102293  1
  O  O334  1  0.14223950  -0.03175611  0.03345323  1
  O  O335  1  0.08021880  -0.00514779  0.51237492  1
  O  O336  1  0.13158295  0.50712126  0.00467677  1
  O  O337  1  0.10750229  0.48845945  0.48538358  1
  O  O338  1  0.63604550  0.03987163  -0.03965163  1
  O  O339  1  0.59397380  -0.11525889  0.52384841  1
  O  O340  1  0.64925049  0.53658313  -0.02786314  1
  O  O341  1  0.69441811  0.48886048  0.47493668  1
  O  O342  1  0.33852808  0.41028898  0.12740809  1
  O  O343  1  0.38097674  0.35401347  0.58014224  1
  O  O344  1  0.39870742  0.85334533  0.10381429  1
  O  O345  1  0.37928438  0.97601649  0.53294765  1
  O  O346  1  0.86187339  0.40793158  0.13131427  1
  O  O347  1  0.86360884  0.35531909  0.66538058  1
  O  O348  1  0.89794082  0.86778135  0.10779906  1
  O  O349  1  0.96111966  0.85276877  0.61294128  1
  O  O350  1  0.15887512  0.05590386  0.37733535  1
  O  O351  1  0.05260025  0.16690375  1.03970538  1
  O  O352  1  0.14028216  0.61978475  0.32613333  1
  O  O353  1  0.22546041  0.69897555  0.95034874  1
  O  O354  1  0.58941932  0.15897584  0.39045283  1
  O  O355  1  0.59905137  0.17052054  0.88244494  1
  O  O356  1  0.61862746  0.65878248  0.30682243  1
  O  O357  1  0.67052493  0.64615362  0.88255188  1
