# generated using pymatgen
data_V51Zn51O256
_symmetry_space_group_name_H-M   'P 1'
_cell_length_a   17.21460272
_cell_length_b   17.17694563
_cell_length_c   17.21959792
_cell_angle_alpha   90.32122367
_cell_angle_beta   90.83099845
_cell_angle_gamma   89.91444462
_symmetry_Int_Tables_number   1
_chemical_formula_structural   V51Zn51O256
_chemical_formula_sum   'V51 Zn51 O256'
_cell_volume   5091.11625148
_cell_formula_units_Z   1
loop_
 _symmetry_equiv_pos_site_id
 _symmetry_equiv_pos_as_xyz
  1  'x, y, z'
loop_
 _atom_site_type_symbol
 _atom_site_label
 _atom_site_symmetry_multiplicity
 _atom_site_fract_x
 _atom_site_fract_y
 _atom_site_fract_z
 _atom_site_occupancy
  V  V0  1  0.88062947  0.63246991  0.74927365  1
  V  V1  1  0.11398815  0.14245042  0.50200573  1
  V  V2  1  0.20898804  0.87354149  0.72796162  1
  V  V3  1  0.87665925  0.87136326  -0.01637442  1
  V  V4  1  0.15576549  0.36472346  0.26917994  1
  V  V5  1  0.73137586  0.77175755  -0.01126522  1
  V  V6  1  0.85635835  0.61439347  0.24311741  1
  V  V7  1  0.75704317  0.92854977  0.67951577  1
  V  V8  1  0.94728662  0.40249610  -0.05280905  1
  V  V9  1  0.00265523  0.63046662  0.59614203  1
  V  V10  1  0.52282627  0.35344763  0.32322761  1
  V  V11  1  0.89626732  0.26085275  0.15412962  1
  V  V12  1  0.26892679  0.27056002  0.03524963  1
  V  V13  1  0.22873747  0.87044297  0.11317735  1
  V  V14  1  0.75284900  0.50816562  0.73682906  1
  V  V15  1  0.10989907  0.01621430  0.11997027  1
  V  V16  1  0.74445126  0.61644113  0.88522379  1
  V  V17  1  0.48950396  -0.02281989  -0.07650985  1
  V  V18  1  0.59209271  0.72921409  0.81982444  1
  V  V19  1  0.81238201  0.35881832  0.65142341  1
  V  V20  1  0.23202305  0.04279879  0.82577948  1
  V  V21  1  0.02084910  0.74802769  0.27884215  1
  V  V22  1  0.11236712  0.36759495  0.78038175  1
  V  V23  1  0.45110904  0.10194110  0.68732414  1
  V  V24  1  0.74880777  0.12714683  0.35032153  1
  V  V25  1  0.17631369  0.62666156  0.49285366  1
  V  V26  1  0.39008042  0.77674901  0.12777052  1
  V  V27  1  0.86584455  0.01321815  0.86940365  1
  V  V28  1  0.23887137  0.34248078  0.62757531  1
  V  V29  1  0.37889576  0.50809021  0.89898818  1
  V  V30  1  0.74235645  0.72849507  0.47841056  1
  V  V31  1  -0.02731883  0.14462413  0.61677014  1
  V  V32  1  -0.01030803  0.00740363  -0.00123378  1
  V  V33  1  0.40424217  0.58866060  0.71614611  1
  V  V34  1  -0.00156714  0.61260614  0.12819321  1
  V  V35  1  0.35995848  0.86821621  -0.02199246  1
  V  V36  1  0.63563399  0.36400609  0.76166667  1
  V  V37  1  0.14304530  0.73845065  0.91624560  1
  V  V38  1  0.23534704  0.08945589  0.39102226  1
  V  V39  1  0.73106087  0.12059159  0.91408607  1
  V  V40  1  0.13236717  0.50410139  0.60662748  1
  V  V41  1  -0.00925288  -0.02518685  0.49923688  1
  V  V42  1  0.22961004  0.52602772  0.77994141  1
  V  V43  1  0.57666595  0.11389720  0.53243618  1
  V  V44  1  0.86999311  0.75761025  0.11659061  1
  V  V45  1  -0.08901410  0.41866123  0.43871368  1
  V  V46  1  0.61367742  0.46727878  0.60666772  1
  V  V47  1  0.49440981  0.37421084  0.84939767  1
  V  V48  1  0.16354301  0.75421955  0.39079372  1
  V  V49  1  0.12486771  0.60465355  0.01715338  1
  V  V50  1  0.12553213  0.00651883  0.63396760  1
  Zn  Zn51  1  0.84922381  0.08046360  0.06510224  1
  Zn  Zn52  1  0.34903322  0.32217982  0.21692505  1
  Zn  Zn53  1  0.08399895  0.81001090  0.57691908  1
  Zn  Zn54  1  0.24464547  0.42705194  0.45286605  1
  Zn  Zn55  1  0.78610382  0.29476280  0.31797563  1
  Zn  Zn56  1  0.92318548  0.68236062  0.42416686  1
  Zn  Zn57  1  0.44383390  0.48277727  0.18964384  1
  Zn  Zn58  1  0.28971887  0.81584522  0.27998118  1
  Zn  Zn59  1  0.14529819  0.18818195  0.70299578  1
  Zn  Zn60  1  0.95891720  0.14520083  0.39740859  1
  Zn  Zn61  1  0.95536812  0.46806600  0.70192607  1
  Zn  Zn62  1  0.16609891  0.92862584  0.93370693  1
  Zn  Zn63  1  0.38043912  0.94912912  0.75900465  1
  Zn  Zn64  1  0.64722934  0.91678861  0.53142868  1
  Zn  Zn65  1  0.28560132  0.35454049  0.83366149  1
  Zn  Zn66  1  0.82490841  0.56066184  0.06067758  1
  Zn  Zn67  1  0.04631816  0.55645791  0.84491653  1
  Zn  Zn68  1  0.95785940  0.45139372  0.24342901  1
  Zn  Zn69  1  0.18478276  0.43847689  0.94915303  1
  Zn  Zn70  1  0.65964045  0.29523728  0.56849707  1
  Zn  Zn71  1  0.79020213  0.82036860  0.28936796  1
  Zn  Zn72  1  0.40194558  0.45368283  0.59088283  1
  Zn  Zn73  1  0.52574481  0.16861767  0.87909731  1
  Zn  Zn74  1  0.55013705  0.05080762  0.35468167  1
  Zn  Zn75  1  0.93057713  0.94873835  0.67289047  1
  Zn  Zn76  1  0.80343591  0.80834260  0.80978742  1
  Zn  Zn77  1  0.69596460  0.66148940  0.14417912  1
  Zn  Zn78  1  0.31172728  0.66755436  -0.01595423  1
  Zn  Zn79  1  0.38303693  0.72274105  0.83720511  1
  Zn  Zn80  1  0.07512194  0.30627049  0.08176868  1
  Zn  Zn81  1  0.57418231  0.53406036  0.82231044  1
  Zn  Zn82  1  0.34238767  0.55519025  0.43460044  1
  Zn  Zn83  1  0.23702077  1.00940374  0.22810394  1
  Zn  Zn84  1  0.83151469  0.31500883  0.81370449  1
  Zn  Zn85  1  0.04893304  0.32925551  0.56188744  1
  Zn  Zn86  1  0.06012313  0.03928317  0.31114302  1
  Zn  Zn87  1  0.65843833  0.65191142  0.65502923  1
  Zn  Zn88  1  0.82754182  0.55034470  0.57560090  1
  Zn  Zn89  1  0.67687867  0.92281790  0.87440528  1
  Zn  Zn90  1  0.28671427  0.04542939  0.02037294  1
  Zn  Zn91  1  0.95130299  0.91027083  0.17236550  1
  Zn  Zn92  1  0.27374228  0.13501741  0.60341501  1
  Zn  Zn93  1  0.54656126  0.82045960  0.03574846  1
  Zn  Zn94  1  0.47205373  0.21023753  0.40317595  1
  Zn  Zn95  1  0.92530943  0.20317005  0.94248334  1
  Zn  Zn96  1  0.81285479  0.05414530  0.54234843  1
  Zn  Zn97  1  0.01273804  0.06245347  0.79513369  1
  Zn  Zn98  1  0.75350742  0.41047818  0.48100835  1
  Zn  Zn99  1  0.14217864  0.94746708  0.43346830  1
  Zn  Zn100  1  0.18042069  0.68858277  0.18661203  1
  Zn  Zn101  1  0.05015447  0.81051389  0.05390971  1
  O  O102  1  0.10333329  0.10940321  0.10780602  1
  O  O103  1  0.10093931  0.12546110  0.61221404  1
  O  O104  1  0.10737274  0.62837779  0.12741454  1
  O  O105  1  0.11649562  0.61953783  0.58241652  1
  O  O106  1  0.59488179  0.06761834  0.07730863  1
  O  O107  1  0.51676908  0.12793601  0.61015721  1
  O  O108  1  0.65117886  0.55909661  0.11022402  1
  O  O109  1  0.62973979  0.56612462  0.58956362  1
  O  O110  1  0.41143256  0.34979110  0.31246712  1
  O  O111  1  0.38975578  0.38969286  0.85543345  1
  O  O112  1  0.49225568  0.81107452  0.31262402  1
  O  O113  1  0.35578615  0.82929957  0.88646563  1
  O  O114  1  0.81925657  0.36447521  0.39976324  1
  O  O115  1  0.90816698  0.31496355  0.89531917  1
  O  O116  1  0.82852479  0.89763453  0.35331232  1
  O  O117  1  0.86324840  0.88466207  0.88281779  1
  O  O118  1  0.24348070  -0.00872672  0.40657309  1
  O  O119  1  0.22118787  0.04219832  0.92676217  1
  O  O120  1  0.27706321  0.49049843  0.37026339  1
  O  O121  1  0.26448693  0.47525433  0.87707537  1
  O  O122  1  0.78520057  0.06095229  0.28644258  1
  O  O123  1  0.75579068  0.01865694  0.88599203  1
  O  O124  1  0.71301251  0.49988659  0.36087396  1
  O  O125  1  0.73050616  0.52087872  0.84092124  1
  O  O126  1  0.33408533  0.61393413  0.17640704  1
  O  O127  1  0.21088487  0.52248179  0.66624611  1
  O  O128  1  0.22200176  1.00296562  0.10725733  1
  O  O129  1  0.21913790  1.03566857  0.64748612  1
  O  O130  1  0.75397582  0.47529571  0.10327619  1
  O  O131  1  0.76258874  0.47090618  0.63307997  1
  O  O132  1  0.80734352  1.01849095  0.16409665  1
  O  O133  1  0.76378779  1.01978249  0.63692864  1
  O  O134  1  0.05793121  0.39791961  0.28049232  1
  O  O135  1  0.01907347  0.39913076  0.75893459  1
  O  O136  1  -0.00318065  0.83826890  0.24211257  1
  O  O137  1  0.00846277  0.86597577  0.71384667  1
  O  O138  1  0.50718087  0.39623299  0.22705708  1
  O  O139  1  0.51324777  0.36077293  0.75337163  1
  O  O140  1  0.49392229  0.97986755  0.20872401  1
  O  O141  1  0.47499286  0.81648915  0.66270183  1
  O  O142  1  0.43434184  0.02143824  0.33185324  1
  O  O143  1  0.49057193  0.13593693  0.77318347  1
  O  O144  1  0.60577590  0.71157374  0.21875455  1
  O  O145  1  0.49942257  0.57858156  0.74668768  1
  O  O146  1  0.98310456  0.11394633  0.29767823  1
  O  O147  1  0.97439091  0.13404652  0.71707506  1
  O  O148  1  0.98007492  0.66275664  0.23682906  1
  O  O149  1  0.97535221  0.61714199  0.77573491  1
  O  O150  1  0.36519578  0.29923824  0.04502480  1
  O  O151  1  0.41281448  0.24505210  0.51290391  1
  O  O152  1  0.36960608  0.75988790  0.01854108  1
  O  O153  1  0.54123692  0.81131736  0.45184461  1
  O  O154  1  0.90246514  0.26489560  0.04914269  1
  O  O155  1  0.92838299  0.28914967  0.44488140  1
  O  O156  1  0.85907535  0.76967664  -0.00488715  1
  O  O157  1  0.84565334  0.75409714  0.48157213  1
  O  O158  1  0.10708649  0.23885434  0.49787922  1
  O  O159  1  0.16386931  0.25397319  1.04532233  1
  O  O160  1  0.15458755  0.74159554  0.49812458  1
  O  O161  1  0.12177707  0.73206289  1.01593969  1
  O  O162  1  0.63595829  0.19396336  0.53471852  1
  O  O163  1  0.57595534  0.19520851  1.06612117  1
  O  O164  1  0.65932631  0.68202971  0.44510960  1
  O  O165  1  0.63384964  0.76070212  1.00782161  1
  O  O166  1  0.59703621  0.13615039  0.10655711  1
  O  O167  1  0.45132345  0.28446163  0.56086376  1
  O  O168  1  0.48879324  0.78048857  0.12475877  1
  O  O169  1  0.47652855  0.69585681  0.55280907  1
  O  O170  1  1.00161147  0.24895865  0.14509783  1
  O  O171  1  0.99396218  0.24188202  0.60369353  1
  O  O172  1  0.97217040  0.74450099  0.10628390  1
  O  O173  1  1.01711330  0.72661920  0.61584701  1
  O  O174  1  -0.02292544  0.26238187  0.39655635  1
  O  O175  1  0.08816935  0.18780884  0.89334142  1
  O  O176  1  -0.00180267  0.74895427  0.37495679  1
  O  O177  1  -0.01244912  0.82704968  0.77861812  1
  O  O178  1  0.52098232  0.24584925  0.30264312  1
  O  O179  1  0.50701038  0.28398792  0.89188757  1
  O  O180  1  0.54629446  0.83771213  0.27643146  1
  O  O181  1  0.49657600  0.72913994  0.84229696  1
  O  O182  1  0.22171904  0.12453112  0.50402692  1
  O  O183  1  0.28037821  0.17173238  1.01968850  1
  O  O184  1  0.27525711  0.62645914  0.49094802  1
  O  O185  1  0.22352047  0.61151794  1.02404395  1
  O  O186  1  0.75478117  0.07975144  0.44072346  1
  O  O187  1  0.76454998  0.12837862  1.00948978  1
  O  O188  1  0.78591785  0.63209811  0.49379637  1
  O  O189  1  0.75408332  0.59991139  0.98223102  1
  O  O190  1  0.23086452  0.37186489  0.03361981  1
  O  O191  1  0.23029292  0.34877369  0.52653923  1
  O  O192  1  0.24941449  0.87934794  0.00520979  1
  O  O193  1  0.40701591  0.88515937  0.43693297  1
  O  O194  1  0.84270630  0.42564372  -0.02592865  1
  O  O195  1  0.77241048  0.32178709  0.56420645  1
  O  O196  1  0.74570659  0.86997299  -0.01743696  1
  O  O197  1  0.70591062  0.82218075  0.48886688  1
  O  O198  1  0.20101692  0.44871964  0.23526540  1
  O  O199  1  0.13087933  0.49503877  0.79516241  1
  O  O200  1  0.11647799  1.00388638  0.22439487  1
  O  O201  1  0.08338082  1.00876873  0.72469194  1
  O  O202  1  0.69039699  0.49731399  0.14086324  1
  O  O203  1  0.64175479  0.48801820  0.71990788  1
  O  O204  1  0.54259664  1.02870150  0.23526145  1
  O  O205  1  0.52247729  0.86709838  0.67779026  1
  O  O206  1  0.41434609  -0.02063527  0.27428073  1
  O  O207  1  0.32634218  0.04191779  0.80296438  1
  O  O208  1  0.42999898  0.56924604  0.29007447  1
  O  O209  1  0.34315215  0.51988402  0.76794291  1
  O  O210  1  0.85634996  -0.00829558  0.21167996  1
  O  O211  1  0.88171758  0.00053670  0.77299142  1
  O  O212  1  0.86364067  0.51597294  0.23301209  1
  O  O213  1  0.85958239  0.51257413  0.74947269  1
  O  O214  1  0.15231048  0.38299114  0.37034693  1
  O  O215  1  0.13204511  0.36678113  0.87918284  1
  O  O216  1  0.13233944  0.84741211  0.38776434  1
  O  O217  1  0.11209869  0.83266884  0.90041816  1
  O  O218  1  0.61778037  0.36452631  0.29991818  1
  O  O219  1  0.60352772  0.41516745  0.85130022  1
  O  O220  1  0.65000562  0.92959526  0.40644848  1
  O  O221  1  0.62677906  0.81731340  0.84993753  1
  O  O222  1  0.37183272  0.07315869  0.12151886  1
  O  O223  1  0.36644005  0.14816992  0.65936621  1
  O  O224  1  0.35553277  0.66202499  0.11444052  1
  O  O225  1  0.39302522  0.56425606  0.61950942  1
  O  O226  1  0.88360476  0.16013670  0.15722074  1
  O  O227  1  0.87906223  0.13651131  0.58255185  1
  O  O228  1  0.88151177  0.63158297  0.12799862  1
  O  O229  1  0.90069777  0.61430352  0.63845113  1
  O  O230  1  0.27799687  0.26516632  0.14168866  1
  O  O231  1  0.23012854  0.24114368  0.64223852  1
  O  O232  1  0.23325456  0.77185784  0.13051106  1
  O  O233  1  0.18609224  0.78640496  0.75616517  1
  O  O234  1  0.80091686  0.28447293  0.13203332  1
  O  O235  1  0.83774894  0.27880470  0.70659108  1
  O  O236  1  0.76087343  0.73077783  0.08646729  1
  O  O237  1  0.72115854  0.72250254  0.57893946  1
  O  O238  1  0.31980770  0.16607972  0.41381471  1
  O  O239  1  0.27190615  0.28435043  0.93286138  1
  O  O240  1  0.26058050  0.76113427  0.37099527  1
  O  O241  1  0.23976508  0.73020297  0.91049034  1
  O  O242  1  0.72364450  0.22649068  0.38978257  1
  O  O243  1  0.76567957  0.22248997  0.86935144  1
  O  O244  1  0.75455965  0.74662141  0.37510462  1
  O  O245  1  0.74814322  0.73362132  0.89150198  1
  O  O246  1  -0.03984487  0.10387010  0.01553106  1
  O  O247  1  0.00813646  0.11339915  0.49177714  1
  O  O248  1  0.00116544  0.60328408  0.02979784  1
  O  O249  1  -0.02578447  0.62121274  0.50227899  1
  O  O250  1  0.47771471  0.07736650  -0.06823902  1
  O  O251  1  0.52081003  0.11687176  0.44142303  1
  O  O252  1  0.53753294  0.62226214  0.03760446  1
  O  O253  1  0.45226005  0.69383228  0.48542421  1
  O  O254  1  0.52952355  0.30784460  0.42048504  1
  O  O255  1  0.56144028  0.42981105  1.04768990  1
  O  O256  1  0.54976040  0.83869709  0.51913072  1
  O  O257  1  0.47070071  0.88560436  0.99033271  1
  O  O258  1  0.99363356  0.40133487  0.49593741  1
  O  O259  1  1.01839417  0.36924445  1.01101556  1
  O  O260  1  1.00775467  0.87965512  0.52613846  1
  O  O261  1  0.97831611  0.87931799  0.99507451  1
  O  O262  1  0.51474514  0.43464429  0.37895110  1
  O  O263  1  0.48387413  0.48774349  0.88568848  1
  O  O264  1  0.58209889  0.94139930  0.37664149  1
  O  O265  1  0.46486213  0.94453339  0.83332565  1
  O  O266  1  0.94256821  0.45739176  0.35575055  1
  O  O267  1  0.98177894  0.47331442  0.89076344  1
  O  O268  1  1.02907514  0.97778649  0.40100531  1
  O  O269  1  0.97647603  0.99965017  0.89089236  1
  O  O270  1  0.00007377  -0.01175785  0.11195999  1
  O  O271  1  -0.00910962  0.01705408  0.60703295  1
  O  O272  1  -0.00001614  0.52050222  0.16365991  1
  O  O273  1  0.03179713  0.52637765  0.63778002  1
  O  O274  1  0.43667836  0.10211061  0.10849629  1
  O  O275  1  0.44024586  0.00376959  0.67981859  1
  O  O276  1  0.50180611  0.56463452  0.14842453  1
  O  O277  1  0.51663736  0.45360528  0.59876369  1
  O  O278  1  0.25754626  0.33111077  0.28398047  1
  O  O279  1  0.21822492  0.37508701  0.74200757  1
  O  O280  1  0.25092693  0.89857355  0.21820493  1
  O  O281  1  0.19498043  0.94174849  0.81015372  1
  O  O282  1  0.66847475  0.52987432  0.31259352  1
  O  O283  1  0.75298152  0.38760074  0.75641647  1
  O  O284  1  0.69336817  0.86982922  0.24414289  1
  O  O285  1  0.74095769  0.90101701  0.78034218  1
  O  O286  1  0.25694504  0.09619952  0.29332379  1
  O  O287  1  0.18887958  0.12288039  0.78491872  1
  O  O288  1  0.28235859  0.64110765  0.22587035  1
  O  O289  1  0.22047184  0.61749884  0.79760127  1
  O  O290  1  0.74093844  0.19110173  0.26156029  1
  O  O291  1  0.75517895  0.16657397  0.81292226  1
  O  O292  1  0.75729121  0.62886632  0.23128117  1
  O  O293  1  0.75279575  0.60876878  0.71054162  1
  O  O294  1  0.37127028  0.17707048  0.35827495  1
  O  O295  1  0.36236153  0.19459538  0.83109902  1
  O  O296  1  0.43499045  0.58198829  0.36308240  1
  O  O297  1  0.37039400  0.61412593  0.90045158  1
  O  O298  1  0.84871334  0.15345194  0.37735704  1
  O  O299  1  0.87413344  0.11320395  0.88639366  1
  O  O300  1  0.87377032  0.62966813  0.34107203  1
  O  O301  1  0.83825375  0.62192192  0.85055206  1
  O  O302  1  0.12500276  0.36157901  0.16461225  1
  O  O303  1  0.12726613  0.39746873  0.62198498  1
  O  O304  1  0.12710225  0.88076317  0.10560627  1
  O  O305  1  0.14805686  0.89245580  0.63718461  1
  O  O306  1  0.59550929  0.36718651  0.05263785  1
  O  O307  1  0.62915679  0.35762199  0.65529606  1
  O  O308  1  0.61551981  0.89523030  0.14061135  1
  O  O309  1  0.67885310  0.88628499  0.63212190  1
  O  O310  1  0.13927452  0.26416113  0.26455536  1
  O  O311  1  0.10020308  0.27061890  0.75776443  1
  O  O312  1  0.12680505  0.73302350  0.27988312  1
  O  O313  1  0.02108031  0.76249291  0.78990585  1
  O  O314  1  0.74669281  0.36681778  0.24917211  1
  O  O315  1  0.64470968  0.27417032  0.78907115  1
  O  O316  1  0.67538838  0.85856064  0.16620421  1
  O  O317  1  0.60722511  0.72178843  0.72019619  1
  O  O318  1  0.41844195  0.24268997  0.19552946  1
  O  O319  1  0.32637436  0.23932143  0.78768441  1
  O  O320  1  0.37387742  0.76811765  0.22722935  1
  O  O321  1  0.37070181  0.68226730  0.73261245  1
  O  O322  1  0.88673038  0.26224280  0.25765803  1
  O  O323  1  1.03508078  0.23795080  0.91826931  1
  O  O324  1  0.84812985  0.75798937  0.21627131  1
  O  O325  1  0.85854818  0.73036786  0.75031528  1
  O  O326  1  0.35673624  0.45630657  0.48574195  1
  O  O327  1  0.36975283  0.49001769  0.99134144  1
  O  O328  1  0.42131298  0.93061189  0.49057693  1
  O  O329  1  0.36396393  0.97338670  0.97044123  1
  O  O330  1  0.84699170  0.48349859  0.48840725  1
  O  O331  1  0.89017711  0.47245799  1.02023987  1
  O  O332  1  0.89212308  0.98923896  0.49027559  1
  O  O333  1  0.87229126  0.98390300  0.99812858  1
  O  O334  1  0.09220282  -0.00621793  0.00042258  1
  O  O335  1  0.11186165  0.00143879  0.52692670  1
  O  O336  1  0.11848325  0.50627103  0.00601940  1
  O  O337  1  0.16572873  0.50952853  0.50734870  1
  O  O338  1  0.58922414  -0.03564848  -0.07171515  1
  O  O339  1  0.61927445  0.02474494  0.53294407  1
  O  O340  1  0.49328946  0.57233492  0.06617693  1
  O  O341  1  0.65101409  0.41754123  0.51930550  1
  O  O342  1  0.35699811  0.42411910  0.17190452  1
  O  O343  1  0.33174366  0.37595519  0.63818033  1
  O  O344  1  0.35361756  0.87241685  0.10602699  1
  O  O345  1  0.30751415  0.87658691  0.71290249  1
  O  O346  1  0.92056259  0.36268391  0.17274178  1
  O  O347  1  0.89979426  0.39779666  0.62952299  1
  O  O348  1  0.86702482  0.86251455  0.10651167  1
  O  O349  1  0.84179819  0.88097570  0.65432914  1
  O  O350  1  0.13213548  0.11049577  0.39200515  1
  O  O351  1  0.06564647  0.11391692  0.89060595  1
  O  O352  1  0.14431020  0.63571218  0.39871616  1
  O  O353  1  0.10032630  0.63609400  0.91000090  1
  O  O354  1  0.65416969  0.09285136  0.34108824  1
  O  O355  1  0.63477829  0.13421834  0.91180116  1
  O  O356  1  0.56599836  0.67119328  0.26278106  1
  O  O357  1  0.63619616  0.63462626  0.85807620  1
