# generated using pymatgen
data_V51Zn51O256
_symmetry_space_group_name_H-M   'P 1'
_cell_length_a   17.30068650
_cell_length_b   17.17032528
_cell_length_c   17.64727221
_cell_angle_alpha   88.85266713
_cell_angle_beta   91.72118709
_cell_angle_gamma   89.60639747
_symmetry_Int_Tables_number   1
_chemical_formula_structural   V51Zn51O256
_chemical_formula_sum   'V51 Zn51 O256'
_cell_volume   5238.70857139
_cell_formula_units_Z   1
loop_
 _symmetry_equiv_pos_site_id
 _symmetry_equiv_pos_as_xyz
  1  'x, y, z'
loop_
 _atom_site_type_symbol
 _atom_site_label
 _atom_site_symmetry_multiplicity
 _atom_site_fract_x
 _atom_site_fract_y
 _atom_site_fract_z
 _atom_site_occupancy
  V  V0  1  0.03362958  0.64746380  0.65004500  1
  V  V1  1  0.62346309  0.25188136  0.83467045  1
  V  V2  1  0.74497339  0.51107021  0.77138611  1
  V  V3  1  0.12710880  0.37776257  0.71916326  1
  V  V4  1  0.75616191  0.13956422  0.83417160  1
  V  V5  1  0.88328910  0.39506091  -0.00603349  1
  V  V6  1  0.12038250  0.11893139  0.50079938  1
  V  V7  1  0.09790696  0.62017024  0.48997939  1
  V  V8  1  0.50138319  0.36883606  0.86339712  1
  V  V9  1  0.49639456  0.72417270  0.76039616  1
  V  V10  1  0.15651932  0.88795669  0.22695622  1
  V  V11  1  0.35888508  0.12054912  0.25774771  1
  V  V12  1  0.52131938  0.48649540  0.00865100  1
  V  V13  1  0.25967652  0.37692601  0.59642277  1
  V  V14  1  0.24526591  0.09036583  0.37678233  1
  V  V15  1  0.27991146  0.35752754  0.15757137  1
  V  V16  1  0.12488982  0.27355346  0.89204576  1
  V  V17  1  0.85568486  -0.00550400  0.88253617  1
  V  V18  1  0.17098871  0.49008133  0.10804519  1
  V  V19  1  0.85499711  0.75965494  0.10646362  1
  V  V20  1  0.87044832  0.37893994  0.52395058  1
  V  V21  1  0.37953958  0.73170366  0.11336913  1
  V  V22  1  0.51549388  0.38691541  0.37303786  1
  V  V23  1  0.16544480  0.01084029  0.11785401  1
  V  V24  1  0.52266453  0.49202848  0.52333358  1
  V  V25  1  0.38254202  0.36231338  0.00732922  1
  V  V26  1  0.00641528  0.37469137  0.33975165  1
  V  V27  1  0.28076229  0.85537223  0.57097709  1
  V  V28  1  0.13465849  0.25557309  0.36384092  1
  V  V29  1  0.10268765  0.75226793  0.30510694  1
  V  V30  1  0.76003409  0.26512414  0.03762020  1
  V  V31  1  0.03458661  0.92169150  0.87554774  1
  V  V32  1  0.75948627  0.50853384  0.23610001  1
  V  V33  1  0.37592253  0.39028760  0.47436741  1
  V  V34  1  0.11416155  0.13955903  0.01324976  1
  V  V35  1  0.91790160  0.26567098  0.11079918  1
  V  V36  1  0.39669968  0.18639186  0.68271064  1
  V  V37  1  0.64715579  0.13423924  0.04510548  1
  V  V38  1  0.93229016  0.14355495  0.21765673  1
  V  V39  1  -0.03192550  0.89141910  0.35405841  1
  V  V40  1  0.51020045  0.61060011  0.15090363  1
  V  V41  1  0.47946762  0.76402103  0.27473089  1
  V  V42  1  0.77073583  0.14926827  0.38036431  1
  V  V43  1  -0.00236941  0.38770204  0.87535927  1
  V  V44  1  0.00989378  -0.00941259  0.51030228  1
  V  V45  1  0.64404323  0.76336967  0.35251048  1
  V  V46  1  0.47506006  0.97111018  0.89374074  1
  V  V47  1  0.26369778  0.15270913  0.91441565  1
  V  V48  1  0.24471565  0.51419418  0.71215540  1
  V  V49  1  0.88951799  0.12588583  0.73907527  1
  V  V50  1  -0.00278205  0.25375238  0.74762721  1
  Zn  Zn51  1  0.08063596  0.55409684  0.81024051  1
  Zn  Zn52  1  0.54351830  0.28076795  0.05197441  1
  Zn  Zn53  1  0.14719032  0.92269099  0.42173556  1
  Zn  Zn54  1  0.36938075  0.86146200  0.00680803  1
  Zn  Zn55  1  0.69084203  0.70860930  0.80533950  1
  Zn  Zn56  1  0.64973175  1.01465897  0.89855703  1
  Zn  Zn57  1  0.25154336  0.06870291  0.59540002  1
  Zn  Zn58  1  0.57350657  0.56207793  0.86838412  1
  Zn  Zn59  1  0.33884136  0.19976249  0.08219218  1
  Zn  Zn60  1  0.85346425  0.95013442  0.20671755  1
  Zn  Zn61  1  0.36647762  0.85877872  0.76525414  1
  Zn  Zn62  1  0.70612855  0.03398892  0.21625207  1
  Zn  Zn63  1  0.46094677  0.17691155  0.95176503  1
  Zn  Zn64  1  0.08338614  0.79919952  0.53905465  1
  Zn  Zn65  1  0.58355915  0.56046944  0.33575487  1
  Zn  Zn66  1  0.82358849  0.59762095  -0.01725350  1
  Zn  Zn67  1  0.04196071  0.85829332  0.05938271  1
  Zn  Zn68  1  0.91284818  0.53454004  0.40689741  1
  Zn  Zn69  1  0.66918244  0.69980727  0.18778696  1
  Zn  Zn70  1  0.77821980  0.86281626  0.34589525  1
  Zn  Zn71  1  0.35408658  0.52237881  0.09254712  1
  Zn  Zn72  1  0.33047098  0.28982746  0.33437442  1
  Zn  Zn73  1  0.27891857  0.22232376  0.50111717  1
  Zn  Zn74  1  0.68579107  0.41221525  0.93924511  1
  Zn  Zn75  1  0.66982607  0.37497977  0.48398595  1
  Zn  Zn76  1  0.96182892  0.69639698  0.38364598  1
  Zn  Zn77  1  0.81626790  0.78323161  0.89912555  1
  Zn  Zn78  1  0.05201863  0.08261317  0.85098755  1
  Zn  Zn79  1  0.84062610  0.31355155  0.28417214  1
  Zn  Zn80  1  0.93036814  0.44065514  0.69701017  1
  Zn  Zn81  1  0.50462282  0.69201341  0.46508402  1
  Zn  Zn82  1  0.33340539  0.28481907  0.83539250  1
  Zn  Zn83  1  0.58075549  0.11975962  0.32094816  1
  Zn  Zn84  1  0.07595712  0.05618331  0.30952818  1
  Zn  Zn85  1  0.52052669  0.12991095  0.81310019  1
  Zn  Zn86  1  0.81938334  0.31117306  0.81680307  1
  Zn  Zn87  1  0.96538011  0.19513142  0.43159001  1
  Zn  Zn88  1  0.03490672  0.55601146  0.28156453  1
  Zn  Zn89  1  0.18935644  0.18877696  0.19557561  1
  Zn  Zn90  1  0.51485802  0.82239685  0.60210578  1
  Zn  Zn91  1  0.98176212  0.44671324  0.15364390  1
  Zn  Zn92  1  0.28400742  0.70689515  0.26379333  1
  Zn  Zn93  1  0.43443907  0.42075455  0.68092039  1
  Zn  Zn94  1  0.19928063  0.97794949  0.92857551  1
  Zn  Zn95  1  0.36338194  0.89997985  0.21030773  1
  Zn  Zn96  1  0.18257741  0.44729644  0.41769773  1
  Zn  Zn97  1  0.07240245  0.28586794  0.56566057  1
  Zn  Zn98  1  0.08643723  0.34578107  0.05564735  1
  Zn  Zn99  1  0.47826910  0.26824349  0.53562446  1
  Zn  Zn100  1  0.82917562  0.07936009  0.06349588  1
  Zn  Zn101  1  0.43950997  0.66880875  0.95427155  1
  O  O102  1  0.14345876  0.12102244  0.11803615  1
  O  O103  1  0.14406176  0.11609530  0.59518517  1
  O  O104  1  0.15002890  0.58163595  0.16728444  1
  O  O105  1  0.10667628  0.60631567  0.59227878  1
  O  O106  1  0.65564683  0.11387364  0.13851983  1
  O  O107  1  0.62641909  0.05787494  0.58279890  1
  O  O108  1  0.59422860  0.65014680  0.12044938  1
  O  O109  1  0.66892500  0.67465750  0.70785797  1
  O  O110  1  0.39692741  0.37678260  0.37678882  1
  O  O111  1  0.40303051  0.34918366  0.89592904  1
  O  O112  1  0.50079336  0.90742745  0.41932442  1
  O  O113  1  0.41277983  0.93532973  0.82367166  1
  O  O114  1  0.90878153  0.35814407  0.35865378  1
  O  O115  1  0.89213605  0.36903292  0.88212490  1
  O  O116  1  0.87951394  0.87566526  0.39289324  1
  O  O117  1  0.84677688  0.89655916  0.87776782  1
  O  O118  1  0.22856502  -0.00576172  0.37222884  1
  O  O119  1  0.26647494  0.05755762  0.88856731  1
  O  O120  1  0.25957999  0.48194889  0.33373947  1
  O  O121  1  0.31032198  0.47746976  0.79602932  1
  O  O122  1  0.78915086  0.05220223  0.40116713  1
  O  O123  1  0.74863438  0.03179102  0.85226163  1
  O  O124  1  0.83432363  0.51953225  0.30919577  1
  O  O125  1  0.74287041  0.49102641  0.87452841  1
  O  O126  1  0.27508054  0.47633457  0.14964201  1
  O  O127  1  0.20732113  0.48271597  0.60359837  1
  O  O128  1  0.25845993  0.99762835  0.12132616  1
  O  O129  1  0.27591550  0.95982242  0.57963325  1
  O  O130  1  0.69289658  0.47492664  0.16771772  1
  O  O131  1  0.71758287  0.52444562  0.67786200  1
  O  O132  1  0.78398512  1.01181843  0.14032965  1
  O  O133  1  0.73986549  1.00018712  0.60508327  1
  O  O134  1  0.01161328  0.37908074  0.24459253  1
  O  O135  1  0.00145588  0.37262981  0.75825862  1
  O  O136  1  -0.05776587  0.90027367  0.25889076  1
  O  O137  1  -0.03466978  0.74775752  0.82533630  1
  O  O138  1  0.51430483  0.38189260  0.28068266  1
  O  O139  1  0.48322944  0.37242109  0.76870583  1
  O  O140  1  0.46457216  0.86077699  0.25893894  1
  O  O141  1  0.48046711  0.82498707  0.71595709  1
  O  O142  1  0.44394508  0.04486829  0.27177381  1
  O  O143  1  0.44120003  0.11452912  0.73981998  1
  O  O144  1  0.52189810  0.58921100  0.24591541  1
  O  O145  1  0.50853524  0.62586751  0.79136025  1
  O  O146  1  1.02785971  0.13189756  0.23787912  1
  O  O147  1  0.99696608  0.14633140  0.77426003  1
  O  O148  1  0.97040376  0.54615880  0.19351778  1
  O  O149  1  1.06154034  0.64262420  0.74354699  1
  O  O150  1  0.41793546  0.25448867  0.02738671  1
  O  O151  1  0.37340345  0.27895066  0.48987887  1
  O  O152  1  0.38296650  0.74233173  0.00951798  1
  O  O153  1  0.46394107  0.75016935  0.54539600  1
  O  O154  1  0.87585024  0.26416114  0.01678844  1
  O  O155  1  0.92031303  0.27558149  0.50203685  1
  O  O156  1  0.82830252  0.79196211  0.00651839  1
  O  O157  1  0.80179383  0.61631827  0.55312540  1
  O  O158  1  0.11440382  0.22778865  0.48445423  1
  O  O159  1  0.12257310  0.25406114  0.99536630  1
  O  O160  1  0.12335838  0.71554944  0.47086626  1
  O  O161  1  0.05787836  0.63117244  1.01947367  1
  O  O162  1  0.53824923  0.17755324  0.46649609  1
  O  O163  1  0.65819877  0.26345567  1.02712910  1
  O  O164  1  0.63806963  0.69615378  0.44511612  1
  O  O165  1  0.60312682  0.81412836  1.05467004  1
  O  O166  1  0.54249924  0.22852370  0.20344635  1
  O  O167  1  0.47278228  0.22694167  0.63311454  1
  O  O168  1  0.46961181  0.72198577  0.17223049  1
  O  O169  1  0.50877017  0.68187099  0.67315834  1
  O  O170  1  1.01437745  0.27095488  0.10888586  1
  O  O171  1  1.01338677  0.24652194  0.65461746  1
  O  O172  1  0.94903513  0.79599526  0.08118279  1
  O  O173  1  1.02772313  0.74172038  0.61743821  1
  O  O174  1  0.02372454  0.25889955  0.36183523  1
  O  O175  1  0.02304089  0.26709306  0.86274433  1
  O  O176  1  0.01324782  0.79127158  0.36024084  1
  O  O177  1  -0.00249725  0.71652500  0.88040410  1
  O  O178  1  0.51121620  0.13810562  0.41175332  1
  O  O179  1  0.52089469  0.24128506  0.86587113  1
  O  O180  1  0.52085116  0.74275623  0.36867926  1
  O  O181  1  0.47782144  0.73572072  0.86330056  1
  O  O182  1  0.23859246  0.11664143  0.48263761  1
  O  O183  1  0.25799041  0.15324309  1.01075210  1
  O  O184  1  0.32100840  0.61977285  0.46655805  1
  O  O185  1  0.28187108  0.63974551  0.88262071  1
  O  O186  1  0.77596630  0.17342597  0.47573512  1
  O  O187  1  0.75494382  0.15856404  1.02067429  1
  O  O188  1  0.73168919  0.62397010  0.54407802  1
  O  O189  1  0.71930326  0.60244660  0.99939527  1
  O  O190  1  0.28993026  0.35488371  -0.01287212  1
  O  O191  1  0.26735858  0.40495897  0.48931801  1
  O  O192  1  0.25689577  0.81918783  -0.10901840  1
  O  O193  1  0.22731360  0.85871891  0.48047008  1
  O  O194  1  0.77636287  0.36491334  -0.01211484  1
  O  O195  1  0.77556859  0.35643422  0.49642030  1
  O  O196  1  0.64127012  0.86979010  0.03192916  1
  O  O197  1  0.74370639  0.78226142  0.54498082  1
  O  O198  1  0.13298568  0.52644543  0.22048543  1
  O  O199  1  0.14369260  0.47790985  0.75522612  1
  O  O200  1  0.13660182  0.99462748  0.22490774  1
  O  O201  1  0.11553928  0.98198514  0.85120472  1
  O  O202  1  0.68231054  0.51342574  0.30385296  1
  O  O203  1  0.64152653  0.51714279  0.78659546  1
  O  O204  1  0.61752968  1.03059095  0.27946129  1
  O  O205  1  0.67821084  1.03129419  0.63267420  1
  O  O206  1  0.37677438  0.00170325  0.26757545  1
  O  O207  1  0.27913509  0.00807015  0.75248664  1
  O  O208  1  0.25402453  0.55858262  0.32221587  1
  O  O209  1  0.35490396  0.50028062  0.73466171  1
  O  O210  1  0.89150270  0.05965097  0.24273798  1
  O  O211  1  0.88005168  0.03169020  0.77569310  1
  O  O212  1  0.82383189  0.52416321  0.16405689  1
  O  O213  1  0.84618098  0.49606547  0.75273292  1
  O  O214  1  0.11596820  0.36428165  0.38208080  1
  O  O215  1  0.11483140  0.37357225  0.89395843  1
  O  O216  1  0.12913268  0.86987516  0.32353847  1
  O  O217  1  0.05515540  0.85941325  0.95340585  1
  O  O218  1  0.60240565  0.33878613  0.40309340  1
  O  O219  1  0.61374162  0.35071842  0.87718248  1
  O  O220  1  0.64145505  0.85406684  0.38520437  1
  O  O221  1  0.56874551  0.94704963  0.86924713  1
  O  O222  1  0.36354836  0.12326331  0.16144805  1
  O  O223  1  0.32868571  0.14368800  0.62043429  1
  O  O224  1  0.41116294  0.61916654  0.09863472  1
  O  O225  1  0.27854947  0.52367177  0.61079190  1
  O  O226  1  0.90927596  0.15017938  0.11685187  1
  O  O227  1  0.89883076  0.11928965  0.64885080  1
  O  O228  1  0.86372141  0.66401131  0.06374915  1
  O  O229  1  0.93142972  0.60885477  0.64206908  1
  O  O230  1  0.26321583  0.25461739  0.14134949  1
  O  O231  1  0.22581803  0.28690522  0.58003294  1
  O  O232  1  0.29476547  0.70614326  0.15291212  1
  O  O233  1  0.28711811  0.75592595  0.59306878  1
  O  O234  1  0.77953482  0.27583782  0.12906651  1
  O  O235  1  0.67468125  0.22792733  0.60062894  1
  O  O236  1  0.75768492  0.73621866  0.13143082  1
  O  O237  1  0.71125961  0.86968388  0.70345415  1
  O  O238  1  0.23835323  0.25594174  0.39207934  1
  O  O239  1  0.22509329  0.25064846  0.86727882  1
  O  O240  1  0.19648424  0.72336179  0.32394387  1
  O  O241  1  0.26420880  0.83752391  0.81952197  1
  O  O242  1  0.76981430  0.25140975  0.34475270  1
  O  O243  1  0.73374586  0.24867167  0.85547967  1
  O  O244  1  0.74217213  0.75801065  0.33088561  1
  O  O245  1  0.70300730  0.77930491  0.89074186  1
  O  O246  1  0.02181454  0.12996255  0.01148368  1
  O  O247  1  0.01326244  0.10868339  0.48938692  1
  O  O248  1  0.05851584  0.59008296  -0.03931198  1
  O  O249  1  0.00090166  0.61628024  0.46456548  1
  O  O250  1  0.54861883  0.16655534  0.02835696  1
  O  O251  1  0.47143616  0.06800559  0.57919955  1
  O  O252  1  0.51076299  0.58511282  -0.03788912  1
  O  O253  1  0.52118714  0.59127042  0.50648968  1
  O  O254  1  0.48969012  0.37329110  0.49469056  1
  O  O255  1  0.50694957  0.37476592  0.99914155  1
  O  O256  1  0.49995921  0.92403042  0.58306554  1
  O  O257  1  0.45292745  0.92474930  0.97776085  1
  O  O258  1  0.97559370  0.33852141  0.50460427  1
  O  O259  1  0.99246670  0.38284072  0.97858826  1
  O  O260  1  1.04836947  0.88746997  0.47698087  1
  O  O261  1  0.97024691  0.96200081  1.05558329  1
  O  O262  1  0.53004108  0.48632695  0.39552584  1
  O  O263  1  0.51247596  0.46832363  0.87977221  1
  O  O264  1  0.49554128  0.97814425  0.41947859  1
  O  O265  1  0.47718259  1.07402798  0.90168374  1
  O  O266  1  1.00344172  0.48071777  0.35890088  1
  O  O267  1  1.00205572  0.48455046  0.85420736  1
  O  O268  1  1.01083800  0.98609459  0.36802966  1
  O  O269  1  0.96811336  1.00264373  0.89291297  1
  O  O270  1  -0.05128559  -0.01273498  0.11832249  1
  O  O271  1  0.03287276  -0.01555306  0.60147675  1
  O  O272  1  0.07115007  0.45671792  0.09025883  1
  O  O273  1  -0.02671582  0.53984903  0.64953645  1
  O  O274  1  0.50703654  0.00521120  0.12145477  1
  O  O275  1  0.62467192  -0.03048723  0.52178094  1
  O  O276  1  0.51749779  0.51294099  0.10585437  1
  O  O277  1  0.49912458  0.48024147  0.61784877  1
  O  O278  1  0.28291460  0.35513631  0.25300083  1
  O  O279  1  0.23141907  0.37834159  0.70076357  1
  O  O280  1  0.25336277  0.87296393  0.22946733  1
  O  O281  1  0.32368085  0.86857906  0.66488999  1
  O  O282  1  0.78166032  0.40736530  0.25790795  1
  O  O283  1  0.75163557  0.40363456  0.76968978  1
  O  O284  1  0.76110949  0.93825223  0.26757043  1
  O  O285  1  0.67252656  0.91044141  0.74414153  1
  O  O286  1  0.25142572  0.12187120  0.26983991  1
  O  O287  1  0.21849676  0.02592982  0.71605909  1
  O  O288  1  0.30875785  0.58819144  0.27997614  1
  O  O289  1  0.23065476  0.60495623  0.73146950  1
  O  O290  1  0.74489643  0.12291343  0.28384400  1
  O  O291  1  0.77711521  0.14760155  0.73997234  1
  O  O292  1  0.73568660  0.61162907  0.23010085  1
  O  O293  1  0.77704555  0.60554698  0.79028430  1
  O  O294  1  0.34332669  0.09811902  0.37922308  1
  O  O295  1  0.35688352  0.18395628  0.89649222  1
  O  O296  1  0.36459182  0.66518805  0.43378446  1
  O  O297  1  0.34012564  0.60320434  0.90776045  1
  O  O298  1  0.87359385  0.16327089  0.36470714  1
  O  O299  1  0.84639977  0.14323893  0.87197530  1
  O  O300  1  0.87308480  0.63725168  0.38131423  1
  O  O301  1  0.85573874  0.67103972  0.91083468  1
  O  O302  1  0.18468292  0.37699357  0.11180985  1
  O  O303  1  0.09411012  0.37982062  0.62750429  1
  O  O304  1  0.12466335  0.90646596  0.11859258  1
  O  O305  1  0.17615136  0.84433686  0.59606826  1
  O  O306  1  0.57412366  0.28613073  0.16586062  1
  O  O307  1  0.63182549  0.26888537  0.55848827  1
  O  O308  1  0.55994216  0.96406179  0.14660826  1
  O  O309  1  0.61659598  0.79666400  0.61292199  1
  O  O310  1  0.14236004  0.25560974  0.26888398  1
  O  O311  1  0.11853239  0.28529863  0.76198243  1
  O  O312  1  0.10448922  0.79011943  0.21059077  1
  O  O313  1  0.00703126  0.87140654  0.80176769  1
  O  O314  1  0.56477052  0.22473104  0.27743281  1
  O  O315  1  0.61568722  0.26732388  0.74419337  1
  O  O316  1  0.60289903  0.75569717  0.25404910  1
  O  O317  1  0.58622265  0.76620258  0.78118905  1
  O  O318  1  0.39195386  0.20941939  0.28706034  1
  O  O319  1  0.35375201  0.25799514  0.73511639  1
  O  O320  1  0.38750294  0.73476669  0.29537035  1
  O  O321  1  0.39021050  0.73327337  0.75672380  1
  O  O322  1  0.90013172  0.24950773  0.21912216  1
  O  O323  1  0.89373843  0.25327649  0.75363316  1
  O  O324  1  0.90048465  0.72096828  0.18712806  1
  O  O325  1  0.79136484  0.75505789  0.79616357  1
  O  O326  1  0.40423429  0.48369905  0.49117832  1
  O  O327  1  0.40127915  0.47009739  1.00758041  1
  O  O328  1  0.43046950  1.05878188  0.52267338  1
  O  O329  1  0.27106979  0.88599445  0.94764119  1
  O  O330  1  0.88326448  0.47178246  0.49032129  1
  O  O331  1  0.87020739  0.49343460  0.98748501  1
  O  O332  1  0.91434740  0.97961976  0.50411674  1
  O  O333  1  0.84411722  1.01554884  0.97546001  1
  O  O334  1  0.14206762  0.02718959  0.01450650  1
  O  O335  1  0.12497092  0.01676282  0.48017146  1
  O  O336  1  0.19417605  0.53001442  0.02724253  1
  O  O337  1  0.14967381  0.55036329  0.44394647  1
  O  O338  1  0.64893211  0.04589724  0.00225979  1
  O  O339  1  0.68302162  -0.06728758  0.53850676  1
  O  O340  1  0.61896659  0.47494031  -0.00233222  1
  O  O341  1  0.61958889  0.46297323  0.52352042  1
  O  O342  1  0.37298104  0.36326810  0.11541381  1
  O  O343  1  0.35922337  0.37636531  0.60729276  1
  O  O344  1  0.37358953  0.83841471  0.11882103  1
  O  O345  1  0.36015498  0.85342415  0.51619824  1
  O  O346  1  0.90394334  0.38031700  0.09920803  1
  O  O347  1  0.87462090  0.38564676  0.62098318  1
  O  O348  1  0.82875815  0.85231284  0.14078380  1
  O  O349  1  0.78958445  0.79473829  0.59706683  1
  O  O350  1  0.13708807  0.13548794  0.37275243  1
  O  O351  1  0.13350211  0.14440258  0.90658302  1
  O  O352  1  0.05227448  0.66351240  0.30385302  1
  O  O353  1  0.11163877  0.60962376  0.90772131  1
  O  O354  1  0.66824440  0.15080721  0.39470896  1
  O  O355  1  0.63564604  0.13950976  0.84304943  1
  O  O356  1  0.65144421  0.64240768  0.38938620  1
  O  O357  1  0.64899455  0.63864461  0.88216471  1
