# generated using pymatgen
data_V51Zn51O256
_symmetry_space_group_name_H-M   'P 1'
_cell_length_a   17.23872250
_cell_length_b   17.12821123
_cell_length_c   17.28643884
_cell_angle_alpha   89.39921361
_cell_angle_beta   90.02152353
_cell_angle_gamma   89.93474342
_symmetry_Int_Tables_number   1
_chemical_formula_structural   V51Zn51O256
_chemical_formula_sum   'V51 Zn51 O256'
_cell_volume   5103.85623324
_cell_formula_units_Z   1
loop_
 _symmetry_equiv_pos_site_id
 _symmetry_equiv_pos_as_xyz
  1  'x, y, z'
loop_
 _atom_site_type_symbol
 _atom_site_label
 _atom_site_symmetry_multiplicity
 _atom_site_fract_x
 _atom_site_fract_y
 _atom_site_fract_z
 _atom_site_occupancy
  V  V0  1  0.22811861  0.87225269  0.08528574  1
  V  V1  1  -0.06499446  0.78398095  0.20878326  1
  V  V2  1  0.87007135  0.61318903  0.25899824  1
  V  V3  1  0.56727321  0.73799582  0.75516560  1
  V  V4  1  0.67321684  0.90717814  0.25379514  1
  V  V5  1  0.69677493  0.46538436  0.30259198  1
  V  V6  1  -0.03143199  0.75528426  0.74374004  1
  V  V7  1  0.25264441  0.37371614  0.61419523  1
  V  V8  1  0.49096408  0.12771272  0.61230132  1
  V  V9  1  0.87837689  0.87519946  0.52154341  1
  V  V10  1  0.34495460  0.05299495  0.25857457  1
  V  V11  1  0.00236316  0.37790716  0.87529261  1
  V  V12  1  0.22679161  0.51013379  0.74320670  1
  V  V13  1  0.40277284  -0.01378155  0.86329880  1
  V  V14  1  0.89499983  0.36819260  0.49121845  1
  V  V15  1  0.11827542  0.85106446  0.74965279  1
  V  V16  1  0.37281014  0.13021749  0.74677086  1
  V  V17  1  -0.00065358  0.62750651  0.59737161  1
  V  V18  1  0.75378421  0.76335131  0.50017304  1
  V  V19  1  0.63458955  0.11195082  0.49819522  1
  V  V20  1  0.11217247  0.49578278  0.59425007  1
  V  V21  1  0.14541505  0.75378858  0.35863605  1
  V  V22  1  0.74946195  0.62779804  0.38754229  1
  V  V23  1  0.53986767  0.48249379  0.00940380  1
  V  V24  1  0.47538483  0.62513694  0.61621547  1
  V  V25  1  0.50997973  0.24897259  0.74958142  1
  V  V26  1  0.53008061  0.89736356  0.35769313  1
  V  V27  1  0.49729450  -0.00959612  0.03037607  1
  V  V28  1  -0.01813242  0.02650444  -0.02133615  1
  V  V29  1  0.36798403  0.50677194  0.86594608  1
  V  V30  1  0.87122139  0.24099127  0.62532649  1
  V  V31  1  0.49363042  -0.03782006  0.53210016  1
  V  V32  1  0.74155465  0.39484245  0.62699775  1
  V  V33  1  0.12473198  0.00254353  0.61683209  1
  V  V34  1  0.36105985  0.37957343  -0.00333137  1
  V  V35  1  0.61318669  0.52195839  0.62036872  1
  V  V36  1  0.90595067  0.50875563  0.39425681  1
  V  V37  1  0.59565982  0.14347711  -0.02017780  1
  V  V38  1  0.00416028  0.12542254  0.62784293  1
  V  V39  1  0.77144368  0.00003027  0.77085737  1
  V  V40  1  0.24439037  0.09860308  0.40193360  1
  V  V41  1  0.15108418  0.24734447  0.35676976  1
  V  V42  1  0.24757628  0.86096534  0.62163098  1
  V  V43  1  0.48976615  0.12271957  0.18050783  1
  V  V44  1  0.23609548  0.00788434  0.75843347  1
  V  V45  1  0.87419682  0.59924933  0.72041894  1
  V  V46  1  0.00109812  -0.00563017  0.48783513  1
  V  V47  1  0.50322043  0.64254940  0.07679958  1
  V  V48  1  0.22534655  0.18345732  -0.06369933  1
  V  V49  1  0.24235483  0.37435471  0.12147525  1
  V  V50  1  0.35175244  0.52434936  0.36334443  1
  Zn  Zn51  1  0.57092096  0.07364646  0.80415131  1
  Zn  Zn52  1  0.40888943  0.95253281  0.66321048  1
  Zn  Zn53  1  0.53551037  0.44561731  0.79563653  1
  Zn  Zn54  1  0.78908745  0.52385977  0.12915964  1
  Zn  Zn55  1  1.00244759  0.98118467  0.19490352  1
  Zn  Zn56  1  0.06072096  0.31859265  0.56573229  1
  Zn  Zn57  1  0.80635265  0.55946210  0.55205347  1
  Zn  Zn58  1  0.96330003  0.18928922  0.44635860  1
  Zn  Zn59  1  0.28820554  0.85405848  0.29221876  1
  Zn  Zn60  1  0.94071828  0.93860061  0.68321716  1
  Zn  Zn61  1  0.94160392  0.42965285  0.67510692  1
  Zn  Zn62  1  0.53969787  0.76540592  0.50616317  1
  Zn  Zn63  1  0.46107702  0.08699577  0.39799220  1
  Zn  Zn64  1  0.62891407  0.74671697  0.36582646  1
  Zn  Zn65  1  0.33558036  0.85254549  0.77320185  1
  Zn  Zn66  1  0.04092791  0.56332710  0.79796714  1
  Zn  Zn67  1  0.82778748  0.29933125  0.79813192  1
  Zn  Zn68  1  0.73192234  0.40422656  1.02232236  1
  Zn  Zn69  1  0.17658883  0.67639182  0.67393832  1
  Zn  Zn70  1  0.23647508  0.69220383  0.17833097  1
  Zn  Zn71  1  0.76414044  0.79499514  0.70184671  1
  Zn  Zn72  1  0.29196786  0.57142938  0.56440435  1
  Zn  Zn73  1  0.41684277  0.18120830  0.92941647  1
  Zn  Zn74  1  0.81980621  0.05671271  0.56374358  1
  Zn  Zn75  1  0.07549211  0.75470405  0.08322101  1
  Zn  Zn76  1  0.92116076  0.21334699  0.94928063  1
  Zn  Zn77  1  0.33159960  0.05509332  0.05533801  1
  Zn  Zn78  1  0.56101625  0.83434991  0.12923564  1
  Zn  Zn79  1  0.51208457  0.60676914  0.88737299  1
  Zn  Zn80  1  0.65553175  0.23530964  0.62422950  1
  Zn  Zn81  1  0.41949747  0.47200484  0.16564907  1
  Zn  Zn82  1  0.68521293  0.94779704  0.46772415  1
  Zn  Zn83  1  0.49649354  0.27851090  0.05345798  1
  Zn  Zn84  1  0.15907273  0.95468528  0.91138095  1
  Zn  Zn85  1  0.12178499  -0.02995142  0.33757194  1
  Zn  Zn86  1  0.33490791  0.58190115  0.04191119  1
  Zn  Zn87  1  0.31214004  0.04816884  0.56710087  1
  Zn  Zn88  1  0.07909741  0.11087343  0.80886929  1
  Zn  Zn89  1  0.17978744  0.42893308  0.43041762  1
  Zn  Zn90  1  0.76308648  0.76802950  0.26817244  1
  Zn  Zn91  1  0.64566160  0.02458228  0.12697975  1
  Zn  Zn92  1  0.14219846  0.11696120  0.25205479  1
  Zn  Zn93  1  0.57715576  0.53789585  0.41688264  1
  Zn  Zn94  1  0.30681053  0.33105274  0.80805935  1
  Zn  Zn95  1  0.18559490  0.19155710  0.68652281  1
  Zn  Zn96  1  0.06254948  0.81203627  0.56243080  1
  Zn  Zn97  1  0.29473926  0.32154419  0.33952126  1
  Zn  Zn98  1  0.62297577  0.09299181  0.30288655  1
  Zn  Zn99  1  0.04720806  0.37078262  0.08229957  1
  Zn  Zn100  1  1.01796042  0.83196289  0.90959894  1
  Zn  Zn101  1  0.43200230  0.43474227  0.67486505  1
  O  O102  1  0.16180771  0.18979797  0.03561130  1
  O  O103  1  0.12097922  0.10672202  0.62123349  1
  O  O104  1  0.13416809  0.67784981  0.13267325  1
  O  O105  1  0.10784337  0.60719294  0.61750099  1
  O  O106  1  0.57769375  0.15228012  0.21738050  1
  O  O107  1  0.59938631  0.12255912  0.60327493  1
  O  O108  1  0.47115837  0.70023959  0.25831087  1
  O  O109  1  0.60893147  0.61817142  0.62930307  1
  O  O110  1  0.35194000  0.41397988  0.36775203  1
  O  O111  1  0.36582695  0.39267299  0.88699249  1
  O  O112  1  0.37560196  0.84243572  0.38007071  1
  O  O113  1  0.37799632  0.88605301  0.86572669  1
  O  O114  1  0.88433639  0.39703179  0.39351116  1
  O  O115  1  0.89375910  0.36777818  0.87103588  1
  O  O116  1  0.85148337  0.99804551  0.33535411  1
  O  O117  1  0.82886084  0.82064033  0.96549682  1
  O  O118  1  0.21662781  0.00264901  0.38619884  1
  O  O119  1  0.24576616  -0.00456714  0.85774679  1
  O  O120  1  0.24672447  0.50708325  0.36285159  1
  O  O121  1  0.26944070  0.51635924  0.84290464  1
  O  O122  1  0.81091621  0.05587516  0.34474395  1
  O  O123  1  0.76214190  -0.00471947  0.86976572  1
  O  O124  1  0.74604213  0.52196453  0.37988358  1
  O  O125  1  0.70836259  0.53317700  0.83359400  1
  O  O126  1  0.23045911  0.46310156  0.15426965  1
  O  O127  1  0.22427271  0.49738068  0.62303481  1
  O  O128  1  0.23848075  0.97722040  0.07505257  1
  O  O129  1  0.23437690  0.98810238  0.63727278  1
  O  O130  1  0.71717598  0.49699880  0.20883611  1
  O  O131  1  0.72774069  0.50209174  0.61759139  1
  O  O132  1  0.79825378  0.99474539  0.12276572  1
  O  O133  1  0.77951652  1.01987481  0.66592447  1
  O  O134  1  -0.00930209  0.44988044  0.14101966  1
  O  O135  1  -0.00795226  0.36970198  0.77193835  1
  O  O136  1  -0.03387133  0.88010514  0.22463894  1
  O  O137  1  0.00892289  0.85595276  0.72467741  1
  O  O138  1  0.49352253  0.38683299  0.22364861  1
  O  O139  1  0.49246632  0.35197305  0.73595977  1
  O  O140  1  0.50975275  0.89896106  0.26444604  1
  O  O141  1  0.60788365  0.89936627  0.66509965  1
  O  O142  1  0.45047469  0.09464517  0.27590848  1
  O  O143  1  0.48985895  0.12608035  0.73590252  1
  O  O144  1  0.45635803  0.64892348  0.21044963  1
  O  O145  1  0.57717723  0.67063530  0.82789762  1
  O  O146  1  0.97360760  0.10927104  0.29565903  1
  O  O147  1  0.99862576  0.11504566  0.72508222  1
  O  O148  1  0.93664906  0.69420898  0.26934133  1
  O  O149  1  0.97183053  0.63809348  0.75222522  1
  O  O150  1  0.39729461  0.28107430  -0.00942433  1
  O  O151  1  0.46152530  0.32657209  0.50377219  1
  O  O152  1  0.24960541  0.65408999  -0.03435738  1
  O  O153  1  0.37213542  0.80487599  0.44156299  1
  O  O154  1  0.90587803  0.27526186  0.04761147  1
  O  O155  1  0.88983412  0.26127464  0.49116114  1
  O  O156  1  0.88481445  0.80534882  0.00783642  1
  O  O157  1  0.86964777  0.77946409  0.49142206  1
  O  O158  1  0.10974925  0.26149213  0.46732140  1
  O  O159  1  0.15321790  0.25026389  0.98860736  1
  O  O160  1  0.11646236  0.79525350  0.44905932  1
  O  O161  1  0.07878804  0.77646178  0.97951239  1
  O  O162  1  0.65919253  0.20656400  0.50197277  1
  O  O163  1  0.58890927  0.24184908  1.00362196  1
  O  O164  1  0.65231612  0.77753595  0.48606471  1
  O  O165  1  0.69363453  0.76725789  0.90592215  1
  O  O166  1  0.46041675  0.20721345  0.13585151  1
  O  O167  1  0.48457418  0.22597242  0.63056470  1
  O  O168  1  0.55163275  0.72455399  0.10962800  1
  O  O169  1  0.49573104  0.69497420  0.69055691  1
  O  O170  1  0.96776638  0.27834667  0.09017395  1
  O  O171  1  1.02018793  0.22379820  0.61069146  1
  O  O172  1  0.97521845  0.75472304  0.12381816  1
  O  O173  1  1.01223130  0.73011737  0.62807715  1
  O  O174  1  0.05081626  0.26086619  0.40835098  1
  O  O175  1  0.00139475  0.27394088  0.89598785  1
  O  O176  1  0.05739335  0.77399436  0.31141948  1
  O  O177  1  -0.03325505  0.76404040  0.84260939  1
  O  O178  1  0.43985295  0.23940372  0.38320796  1
  O  O179  1  0.49201075  0.23495962  0.84580768  1
  O  O180  1  0.52835565  0.79955942  0.39190823  1
  O  O181  1  0.54850986  0.82861903  0.81834672  1
  O  O182  1  0.25200505  0.11027240  0.49976421  1
  O  O183  1  0.30265038  0.13538911  0.98412798  1
  O  O184  1  0.24038006  0.65451773  0.51822300  1
  O  O185  1  0.16828661  0.52668499  1.00868124  1
  O  O186  1  0.72651439  0.06232906  0.49633993  1
  O  O187  1  0.66027483  0.09822947  1.04411752  1
  O  O188  1  0.76044727  0.64676073  0.49164241  1
  O  O189  1  0.72010528  0.61216378  1.06414459  1
  O  O190  1  0.26183552  0.36995313  0.00982920  1
  O  O191  1  0.23570829  0.37712472  0.51546928  1
  O  O192  1  0.20584674  0.87948692  -0.01480930  1
  O  O193  1  0.25807956  0.88095509  0.53005730  1
  O  O194  1  0.73740426  0.28754560  0.03912786  1
  O  O195  1  0.79451080  0.37959942  0.54187592  1
  O  O196  1  0.72225176  0.74195059  0.05481945  1
  O  O197  1  0.77035350  0.87968120  0.48778953  1
  O  O198  1  0.03995879  0.47945390  0.19886232  1
  O  O199  1  0.12819537  0.51133216  0.75668150  1
  O  O200  1  0.09974873  1.01432495  0.23679647  1
  O  O201  1  0.13327297  1.01334253  0.74642625  1
  O  O202  1  0.59822188  0.47615757  0.32751182  1
  O  O203  1  0.60591849  0.47645225  0.71510202  1
  O  O204  1  0.66905678  1.01779376  0.23936712  1
  O  O205  1  0.67230460  1.02039016  0.76433005  1
  O  O206  1  0.33614482  -0.04485015  0.27722101  1
  O  O207  1  0.35523649  -0.00609304  0.75639481  1
  O  O208  1  0.37319428  0.50449104  0.26425921  1
  O  O209  1  0.42026815  0.48725585  0.77902952  1
  O  O210  1  0.93850586  0.07065101  0.23647604  1
  O  O211  1  0.87320510  -0.04187078  0.77251771  1
  O  O212  1  0.88893640  0.51439348  0.28298776  1
  O  O213  1  0.87757972  0.50045232  0.73445716  1
  O  O214  1  0.17832385  0.35114920  0.35243023  1
  O  O215  1  0.10117989  0.37578496  0.86095502  1
  O  O216  1  0.16641015  0.85798538  0.32058585  1
  O  O217  1  0.10137230  0.88285976  0.84687240  1
  O  O218  1  0.58708619  0.30368968  0.39557737  1
  O  O219  1  0.71033464  0.38205026  0.89757819  1
  O  O220  1  0.63216127  0.92706787  0.36020833  1
  O  O221  1  0.66521363  0.82643330  0.93318718  1
  O  O222  1  0.37820439  0.06187753  0.15593022  1
  O  O223  1  0.38136623  0.10395117  0.64220057  1
  O  O224  1  0.41468177  0.66782128  0.04564356  1
  O  O225  1  0.37734729  0.61543380  0.61849030  1
  O  O226  1  0.82994970  0.15737156  0.13572126  1
  O  O227  1  0.89711038  0.13452773  0.60098757  1
  O  O228  1  0.86400277  0.60439951  0.16130068  1
  O  O229  1  0.88723287  0.61630517  0.61735701  1
  O  O230  1  0.29320926  0.27164244  0.16252909  1
  O  O231  1  0.23680543  0.27736493  0.64054933  1
  O  O232  1  0.23240417  0.76812490  0.08192380  1
  O  O233  1  0.22388428  0.76309511  0.62547360  1
  O  O234  1  0.71816168  0.26366708  0.11247363  1
  O  O235  1  0.77326764  0.23160611  0.61943580  1
  O  O236  1  0.73607171  0.68143531  0.09544394  1
  O  O237  1  0.75707239  0.75723273  0.59706948  1
  O  O238  1  0.25406377  0.22113774  0.37204202  1
  O  O239  1  0.26552260  0.24745170  0.87189370  1
  O  O240  1  0.24796304  0.76695875  0.37873287  1
  O  O241  1  0.26493749  0.70792891  0.91975199  1
  O  O242  1  0.78079393  0.21924527  0.34209508  1
  O  O243  1  0.71532452  0.31745839  0.86368572  1
  O  O244  1  0.75583754  0.74125487  0.38274522  1
  O  O245  1  0.84537605  0.65422923  0.93332594  1
  O  O246  1  -0.01680801  0.13142100  -0.00304395  1
  O  O247  1  0.00410410  0.09780972  0.50066945  1
  O  O248  1  0.04168259  0.62734559  -0.05474640  1
  O  O249  1  -0.00219508  0.63383849  0.50497425  1
  O  O250  1  0.49603091  0.11320323  -0.01200724  1
  O  O251  1  0.47450307  0.11223652  0.51349574  1
  O  O252  1  0.55237328  0.60451901  -0.00539266  1
  O  O253  1  0.49393514  0.66628105  0.52558825  1
  O  O254  1  0.49754467  0.38783537  0.50946630  1
  O  O255  1  0.49034960  0.39567985  1.02699945  1
  O  O256  1  0.50674317  0.86531698  0.54732449  1
  O  O257  1  0.48457813  0.90180811  1.07816399  1
  O  O258  1  0.99312240  0.38314203  0.50038071  1
  O  O259  1  1.00847563  0.39263775  0.97666345  1
  O  O260  1  0.98788269  0.88292075  0.51419089  1
  O  O261  1  0.97300392  0.92935153  0.94614335  1
  O  O262  1  0.45079166  0.53249333  0.38637281  1
  O  O263  1  0.53305736  0.48694145  0.90251329  1
  O  O264  1  0.47844808  0.96745199  0.41438509  1
  O  O265  1  0.49629834  0.99013940  0.83650152  1
  O  O266  1  0.99932864  0.51589384  0.39099511  1
  O  O267  1  0.99317378  0.48155006  0.86935089  1
  O  O268  1  1.02332222  0.97976163  0.39367406  1
  O  O269  1  0.99656429  1.06310032  0.87886349  1
  O  O270  1  -0.01092538  0.00705217  0.07805226  1
  O  O271  1  0.01103694  0.00433005  0.62331587  1
  O  O272  1  0.04227703  0.55225241  0.20260738  1
  O  O273  1  0.00835691  0.50910442  0.62154604  1
  O  O274  1  0.52810588  0.04389639  0.12117236  1
  O  O275  1  0.50301098  0.00419421  0.63136913  1
  O  O276  1  0.49474735  0.53354355  0.10556577  1
  O  O277  1  0.49506358  0.52003903  0.62443795  1
  O  O278  1  0.27131561  0.32088818  0.21920884  1
  O  O279  1  0.26056408  0.40670405  0.73550037  1
  O  O280  1  0.23464920  0.88949482  0.18558869  1
  O  O281  1  0.22289236  0.88371961  0.74960367  1
  O  O282  1  0.72020833  0.37256663  0.31175510  1
  O  O283  1  0.78081190  0.36621033  0.71548919  1
  O  O284  1  0.76763863  0.89861093  0.26818981  1
  O  O285  1  0.75732575  0.89608368  0.75453598  1
  O  O286  1  0.25462956  0.09405711  0.24593876  1
  O  O287  1  0.26092973  0.11095269  0.73850216  1
  O  O288  1  0.28974383  0.60791790  0.13870832  1
  O  O289  1  0.25112021  0.60580393  0.72249433  1
  O  O290  1  0.73672954  0.19309317  0.29315394  1
  O  O291  1  0.81258862  0.09273489  0.77573623  1
  O  O292  1  0.77059434  0.64572341  0.27669058  1
  O  O293  1  0.79438015  0.63537348  0.75720017  1
  O  O294  1  0.34617243  0.08815974  0.36776151  1
  O  O295  1  0.38195855  0.10091244  0.84859573  1
  O  O296  1  0.33332477  0.61962517  0.33805713  1
  O  O297  1  0.40048384  0.60181331  0.87899216  1
  O  O298  1  0.92622910  0.15619509  0.33343289  1
  O  O299  1  0.83912657  0.22138368  0.88319602  1
  O  O300  1  0.86389432  0.61051618  0.38604829  1
  O  O301  1  0.87777185  0.64955052  0.99627406  1
  O  O302  1  0.14673566  0.34362901  0.11168900  1
  O  O303  1  0.12105985  0.39499748  0.62370693  1
  O  O304  1  0.12414797  0.86364480  0.10623437  1
  O  O305  1  0.12754063  0.88236046  0.63680185  1
  O  O306  1  0.55002627  0.35411034  0.19245774  1
  O  O307  1  0.65374539  0.35105432  0.61370590  1
  O  O308  1  0.64736884  0.90396838  0.15024548  1
  O  O309  1  0.65868040  0.89195103  0.61590794  1
  O  O310  1  0.12302108  0.22901244  0.26228592  1
  O  O311  1  0.11383023  0.20681314  0.76839474  1
  O  O312  1  0.17372637  0.69779511  0.27608370  1
  O  O313  1  0.11917123  0.75190747  0.75305922  1
  O  O314  1  0.59356025  0.28781455  0.32740848  1
  O  O315  1  0.60659487  0.23522065  0.73165809  1
  O  O316  1  0.64971231  0.80037696  0.26536529  1
  O  O317  1  0.65699279  0.75883780  0.72301132  1
  O  O318  1  0.41451762  0.27075516  0.32273261  1
  O  O319  1  0.36991652  0.22875034  0.74889538  1
  O  O320  1  0.30822035  0.76318174  0.22862426  1
  O  O321  1  0.50307696  0.83354494  0.75466745  1
  O  O322  1  0.86700983  0.19126142  0.18599338  1
  O  O323  1  0.88700075  0.23805875  0.72237778  1
  O  O324  1  0.83854825  0.78625744  0.18827718  1
  O  O325  1  0.87469339  0.76428688  0.72146724  1
  O  O326  1  0.34040720  0.53279709  0.46639629  1
  O  O327  1  0.36829171  0.49561975  0.97984105  1
  O  O328  1  0.39036318  0.97299581  0.53923732  1
  O  O329  1  0.40231107  0.99610944  0.97207539  1
  O  O330  1  0.88024321  0.49479387  0.49760900  1
  O  O331  1  0.81870760  0.46206307  1.04531875  1
  O  O332  1  0.89151668  0.98810831  0.49815783  1
  O  O333  1  0.88168846  1.02715483  0.97882170  1
  O  O334  1  0.08889960  0.01197414  -0.02361270  1
  O  O335  1  0.11293199  -0.01529981  0.52059423  1
  O  O336  1  0.11158458  0.53644444  0.05021428  1
  O  O337  1  0.12070631  0.49619240  0.49734666  1
  O  O338  1  0.57545442  -0.02522818  -0.02027077  1
  O  O339  1  0.59247922  -0.00326246  0.51144533  1
  O  O340  1  0.63179580  0.45724301  0.02955653  1
  O  O341  1  0.60226898  0.50507516  0.51901633  1
  O  O342  1  0.36199820  0.39919653  0.10441528  1
  O  O343  1  0.35152733  0.39423044  0.61309386  1
  O  O344  1  0.32917433  0.86085949  0.07570365  1
  O  O345  1  0.34823856  0.85638148  0.66369672  1
  O  O346  1  0.72496536  0.31337794  0.16606532  1
  O  O347  1  0.91328598  0.34149096  0.61581688  1
  O  O348  1  0.83480156  0.93265253  0.12342978  1
  O  O349  1  0.86791509  0.87958377  0.61872283  1
  O  O350  1  0.14494634  0.13261804  0.37506190  1
  O  O351  1  0.16315885  0.12321026  0.88785682  1
  O  O352  1  0.12460926  0.66792096  0.40505141  1
  O  O353  1  0.09169670  0.61470895  0.89415210  1
  O  O354  1  0.58600140  0.11111832  0.40296232  1
  O  O355  1  0.62276730  0.12989593  0.88407494  1
  O  O356  1  0.64169666  0.63278449  0.38324930  1
  O  O357  1  0.72210910  0.55817484  0.89800278  1
