# generated using pymatgen
data_V51Zn51O256
_symmetry_space_group_name_H-M   'P 1'
_cell_length_a   17.10895621
_cell_length_b   17.34993786
_cell_length_c   17.41222884
_cell_angle_alpha   89.36815583
_cell_angle_beta   90.26359476
_cell_angle_gamma   89.67610230
_symmetry_Int_Tables_number   1
_chemical_formula_structural   V51Zn51O256
_chemical_formula_sum   'V51 Zn51 O256'
_cell_volume   5168.18123734
_cell_formula_units_Z   1
loop_
 _symmetry_equiv_pos_site_id
 _symmetry_equiv_pos_as_xyz
  1  'x, y, z'
loop_
 _atom_site_type_symbol
 _atom_site_label
 _atom_site_symmetry_multiplicity
 _atom_site_fract_x
 _atom_site_fract_y
 _atom_site_fract_z
 _atom_site_occupancy
  V  V0  1  0.69729822  0.24509772  0.04084023  1
  V  V1  1  0.08563561  0.72294665  0.86134276  1
  V  V2  1  0.14314641  0.44732639  0.60876769  1
  V  V3  1  0.87736081  0.05570696  0.87943873  1
  V  V4  1  0.68872745  0.32818008  0.81393419  1
  V  V5  1  0.83471477  0.36505806  0.03811511  1
  V  V6  1  0.34514644  0.73375697  0.11135748  1
  V  V7  1  0.75695134  0.01019673  0.77073309  1
  V  V8  1  0.45789920  0.74317746  0.25308957  1
  V  V9  1  0.30335197  0.14893149  0.39147624  1
  V  V10  1  0.76830300  0.29540973  0.50103721  1
  V  V11  1  0.52014619  0.63953395  0.10987124  1
  V  V12  1  0.63608611  0.03107127  0.65688057  1
  V  V13  1  0.37619117  0.37455124  -0.00767207  1
  V  V14  1  0.12605328  -0.02415947  0.58340656  1
  V  V15  1  0.27962929  0.62311634  0.40523433  1
  V  V16  1  0.39868048  0.51216835  0.47099915  1
  V  V17  1  0.43761271  0.13908766  0.10588165  1
  V  V18  1  -0.00790691  0.34222531  0.36169283  1
  V  V19  1  0.73679534  0.51599002  0.26230673  1
  V  V20  1  0.36755399  0.59065963  0.22155853  1
  V  V21  1  0.34485461  0.86895683  -0.00946600  1
  V  V22  1  0.78851519  0.62631353  0.82610928  1
  V  V23  1  0.21159045  0.85618533  0.12548272  1
  V  V24  1  0.15339915  0.32366765  0.76175242  1
  V  V25  1  0.90156719  0.61832800  0.28122564  1
  V  V26  1  0.63488219  0.63889790  0.49323224  1
  V  V27  1  0.64221011  0.91842588  0.22879812  1
  V  V28  1  0.50230451  0.15557495  0.66255911  1
  V  V29  1  0.12580084  0.01566063  0.14320115  1
  V  V30  1  0.13098265  0.59693718  0.49573021  1
  V  V31  1  0.57631060  0.06749611  0.00737389  1
  V  V32  1  0.87423663  0.73571136  0.08277922  1
  V  V33  1  0.48958296  0.41802906  0.86788411  1
  V  V34  1  0.02452637  0.03729133  -0.00461749  1
  V  V35  1  0.85366057  0.90445551  -0.00684944  1
  V  V36  1  0.49142853  0.65264081  0.63057109  1
  V  V37  1  0.01394001  0.89767226  0.87806686  1
  V  V38  1  0.89685416  0.78234942  0.61782706  1
  V  V39  1  0.23235025  0.50513749  0.75908526  1
  V  V40  1  0.19262861  0.73533822  0.00419164  1
  V  V41  1  0.63450382  0.47935387  0.13144651  1
  V  V42  1  0.36644294  -0.01884778  0.40402224  1
  V  V43  1  0.08927930  0.77464481  0.35922712  1
  V  V44  1  0.47206076  0.28695503  0.75763204  1
  V  V45  1  0.62338240  0.76650226  0.33186811  1
  V  V46  1  0.25197306  0.86874223  0.65436586  1
  V  V47  1  0.01241875  0.24052872  0.77167556  1
  V  V48  1  0.88686099  0.14260173  0.71512615  1
  V  V49  1  0.11566924  0.47697038  0.11951527  1
  V  V50  1  0.81960804  0.19807617  0.16544064  1
  Zn  Zn51  1  0.56624906  0.28986713  0.56571936  1
  Zn  Zn52  1  0.17682651  0.26447089  0.52034330  1
  Zn  Zn53  1  0.41839322  0.46634924  0.68184671  1
  Zn  Zn54  1  0.03899136  0.03434686  0.77499109  1
  Zn  Zn55  1  0.19852248  0.40816809  0.93082520  1
  Zn  Zn56  1  0.71507754  0.70099133  0.66130868  1
  Zn  Zn57  1  0.90862560  1.01725846  0.14082310  1
  Zn  Zn58  1  0.28774176  0.56424198  0.03477978  1
  Zn  Zn59  1  0.64343688  0.41750726  0.96378136  1
  Zn  Zn60  1  0.70773995  0.68290211  0.16465987  1
  Zn  Zn61  1  0.52203662  0.31284718  0.09257061  1
  Zn  Zn62  1  0.31479736  0.23614504  0.65959260  1
  Zn  Zn63  1  0.71055909  0.22783293  0.68732483  1
  Zn  Zn64  1  0.02508753  0.83394284  0.06091046  1
  Zn  Zn65  1  -0.01361141  0.57581012  0.83109060  1
  Zn  Zn66  1  0.01112410  0.27336060  0.16787808  1
  Zn  Zn67  1  0.20992563  0.43508053  0.42427712  1
  Zn  Zn68  1  0.16252108  0.32731994  0.26104729  1
  Zn  Zn69  1  0.76731678  0.53994837  0.02794133  1
  Zn  Zn70  1  0.50668189  0.22412852  0.94128171  1
  Zn  Zn71  1  0.62805635  0.11600081  0.18750714  1
  Zn  Zn72  1  0.78269124  0.09466973  0.57330431  1
  Zn  Zn73  1  0.60866565  0.14154185  0.81211198  1
  Zn  Zn74  1  0.80580346  0.57761628  0.44627753  1
  Zn  Zn75  1  0.98878569  0.43990652  0.72432934  1
  Zn  Zn76  1  0.61523578  0.52141646  0.79537103  1
  Zn  Zn77  1  0.89171250  0.56925042  0.64615594  1
  Zn  Zn78  1  0.52601121  0.89294334  0.06130378  1
  Zn  Zn79  1  0.09375403  0.62679085  0.69500240  1
  Zn  Zn80  1  0.24600752  0.75130395  0.27534351  1
  Zn  Zn81  1  0.21490007  0.86015042  0.86183445  1
  Zn  Zn82  1  0.11182706  0.60625752  0.29239068  1
  Zn  Zn83  1  0.71613224  0.30406264  0.30016761  1
  Zn  Zn84  1  0.66471749  0.45428478  0.42034803  1
  Zn  Zn85  1  1.02394809  0.15591573  0.41733643  1
  Zn  Zn86  1  0.98971597  0.24273792  0.97854201  1
  Zn  Zn87  1  0.77623608  0.08004098  0.02656989  1
  Zn  Zn88  1  0.30731115  0.57870697  0.59952320  1
  Zn  Zn89  1  0.79780337  0.79400928  0.23745197  1
  Zn  Zn90  1  0.24190632  0.17448567  0.18695996  1
  Zn  Zn91  1  0.82780731  0.83330113  0.81548712  1
  Zn  Zn92  1  0.58286168  1.10686341  0.49165255  1
  Zn  Zn93  1  -0.04175147  0.69062810  0.43727519  1
  Zn  Zn94  1  0.30292090  0.03420004  0.07800147  1
  Zn  Zn95  1  0.87383794  0.41407174  0.22815049  1
  Zn  Zn96  1  0.35726247  0.89479253  0.21431801  1
  Zn  Zn97  1  0.04616216  0.02264338  0.31212876  1
  Zn  Zn98  1  0.82029941  0.24822544  0.89871751  1
  Zn  Zn99  1  0.45591877  0.73263481  0.96780879  1
  Zn  Zn100  1  0.45292720  0.71053616  0.45593747  1
  Zn  Zn101  1  0.43556440  0.47887477  0.10981821  1
  O  O102  1  0.16224569  0.10612226  0.14681044  1
  O  O103  1  0.13538556  0.06637381  0.55024241  1
  O  O104  1  0.07994346  0.56873000  0.09365307  1
  O  O105  1  0.11800675  0.62754168  0.58799448  1
  O  O106  1  0.54887018  0.10101988  0.10416637  1
  O  O107  1  0.62950636  0.15420269  0.69064216  1
  O  O108  1  0.61255624  0.67286035  0.11038401  1
  O  O109  1  0.65223574  0.64929617  0.59379534  1
  O  O110  1  0.38851284  0.33497614  0.31852341  1
  O  O111  1  0.39189989  0.42127788  0.89351256  1
  O  O112  1  0.32155695  0.90224324  0.43521714  1
  O  O113  1  0.32237872  0.85663019  0.89515002  1
  O  O114  1  0.89755180  0.38582134  0.34337391  1
  O  O115  1  0.88750347  0.30230423  0.97773870  1
  O  O116  1  0.88914204  0.96372759  0.29048488  1
  O  O117  1  0.88927841  0.89367110  0.88671659  1
  O  O118  1  0.27525871  0.04189543  0.41769332  1
  O  O119  1  0.39869960  -0.02706055  0.80667942  1
  O  O120  1  0.31060906  0.48483442  0.42870779  1
  O  O121  1  0.22578397  0.48497988  0.85710403  1
  O  O122  1  0.85206903  -0.00003716  0.43845882  1
  O  O123  1  0.77240406  0.04008160  0.87165811  1
  O  O124  1  0.74822687  0.51299435  0.36532328  1
  O  O125  1  0.81734237  0.52902434  0.81946189  1
  O  O126  1  0.21773894  0.50081044  0.10254326  1
  O  O127  1  0.23030025  0.50120971  0.63213717  1
  O  O128  1  0.21834020  0.96581968  0.11208323  1
  O  O129  1  0.23286545  0.97490402  0.61434848  1
  O  O130  1  0.73806469  0.49948597  0.14243306  1
  O  O131  1  0.69188394  0.50443886  0.62973743  1
  O  O132  1  0.76657459  1.06346780  0.33727762  1
  O  O133  1  0.75290698  1.02985617  0.66697133  1
  O  O134  1  -0.01232545  0.35752261  0.25467096  1
  O  O135  1  0.03899466  0.33920307  0.73780479  1
  O  O136  1  -0.07198623  0.91378123  0.32700785  1
  O  O137  1  0.00293505  0.92921494  0.78259892  1
  O  O138  1  0.53937554  0.32275634  0.27116629  1
  O  O139  1  0.47371430  0.39565191  0.75190962  1
  O  O140  1  0.45261528  0.84084701  0.23797521  1
  O  O141  1  0.52582730  0.86568474  0.84001549  1
  O  O142  1  0.44760507  0.03892005  0.17329015  1
  O  O143  1  0.50157656  0.17560486  0.76848695  1
  O  O144  1  0.46556977  0.62587385  0.22128252  1
  O  O145  1  0.54768106  0.58631388  0.71005372  1
  O  O146  1  1.07450100  0.13225101  0.32228724  1
  O  O147  1  0.99334682  0.13049515  0.75089244  1
  O  O148  1  1.00057389  0.60859509  0.27525796  1
  O  O149  1  0.98981764  0.58214844  0.71788370  1
  O  O150  1  0.41037306  0.28512118  -0.03248092  1
  O  O151  1  0.41111338  0.30941736  0.53642278  1
  O  O152  1  0.34427178  0.73053768  0.00962067  1
  O  O153  1  0.42749424  0.79701491  0.51569449  1
  O  O154  1  0.78873926  0.27753380  0.10225027  1
  O  O155  1  0.86306590  0.31822952  0.51376019  1
  O  O156  1  0.86879759  0.79073626  0.00023183  1
  O  O157  1  0.91934540  0.76499234  0.51810482  1
  O  O158  1  0.22686338  0.32740688  0.44598326  1
  O  O159  1  0.15871215  0.20997650  1.00962270  1
  O  O160  1  0.14296051  0.72395215  0.45215695  1
  O  O161  1  0.09622107  0.74533168  1.02124377  1
  O  O162  1  0.66171223  0.29585886  0.51227682  1
  O  O163  1  0.59498340  0.25795494  1.02224320  1
  O  O164  1  0.73645003  0.88643099  0.44589791  1
  O  O165  1  0.65676952  0.75804301  0.95843898  1
  O  O166  1  0.46333679  0.22492331  0.14206826  1
  O  O167  1  0.51821015  0.27525488  0.66589420  1
  O  O168  1  0.45492317  0.72972230  0.12548541  1
  O  O169  1  0.51947106  0.73164457  0.67442999  1
  O  O170  1  0.91655334  0.21832053  0.17837017  1
  O  O171  1  0.96503823  0.31264867  0.57402191  1
  O  O172  1  0.95497637  0.77289349  0.12515075  1
  O  O173  1  0.98937353  0.79111729  0.65376272  1
  O  O174  1  -0.03580775  0.24197417  0.36152231  1
  O  O175  1  0.00253108  0.24910953  0.86802917  1
  O  O176  1  -0.01056376  0.76278662  0.35521292  1
  O  O177  1  0.00919699  0.79265796  0.87791137  1
  O  O178  1  0.54611068  0.25036432  0.27289757  1
  O  O179  1  0.51142172  0.30343678  0.85299767  1
  O  O180  1  0.44358943  0.73320998  0.34812170  1
  O  O181  1  0.60381707  0.73025642  0.91838933  1
  O  O182  1  0.33996598  0.16461956  0.48288772  1
  O  O183  1  0.28924616  0.11659275  0.92343722  1
  O  O184  1  0.24670398  0.62003674  0.50578369  1
  O  O185  1  0.21637735  0.63918178  0.99633594  1
  O  O186  1  0.78067537  0.19079194  0.50892891  1
  O  O187  1  0.67124682  0.04342119  1.02255240  1
  O  O188  1  0.72822724  0.65777908  0.46315778  1
  O  O189  1  0.76888243  0.61339593  0.92382801  1
  O  O190  1  0.27760577  0.36208066  -0.00295752  1
  O  O191  1  0.40462022  0.33640838  0.38596835  1
  O  O192  1  0.23195289  0.84329578  0.01294690  1
  O  O193  1  0.27248635  0.83286126  0.56582316  1
  O  O194  1  0.72517435  0.34539356  0.00358870  1
  O  O195  1  0.75440142  0.39692405  0.48914836  1
  O  O196  1  0.75995624  0.90077843  -0.01918633  1
  O  O197  1  0.78332412  0.88879906  0.39291806  1
  O  O198  1  0.12254956  0.51777552  0.21398464  1
  O  O199  1  0.15691482  0.42952551  0.72844724  1
  O  O200  1  0.11577375  0.99024771  0.23618934  1
  O  O201  1  0.09623745  1.01358504  0.67125105  1
  O  O202  1  0.63683142  0.49277016  0.23976198  1
  O  O203  1  0.68410117  0.47467034  0.69483903  1
  O  O204  1  0.63409213  1.01701778  0.23765528  1
  O  O205  1  0.65260286  1.03575915  0.77255055  1
  O  O206  1  0.33698909  -0.04271614  0.31006127  1
  O  O207  1  0.46319666  -0.08090461  0.66666523  1
  O  O208  1  0.38011759  0.49597558  0.20567979  1
  O  O209  1  0.33326486  0.50939406  0.74023495  1
  O  O210  1  0.93834412  0.02395213  0.25563948  1
  O  O211  1  0.87203616  0.04055395  0.77137536  1
  O  O212  1  0.86111811  0.52754015  0.24751015  1
  O  O213  1  0.88587676  0.46925399  0.68630134  1
  O  O214  1  0.09084469  0.30498472  0.34814025  1
  O  O215  1  0.16616373  0.33058908  0.85878314  1
  O  O216  1  0.11078916  0.86579897  0.34451213  1
  O  O217  1  0.11571802  0.90607286  0.88119178  1
  O  O218  1  0.64555785  0.36256831  0.36542238  1
  O  O219  1  0.64910382  0.41991852  0.84924800  1
  O  O220  1  0.60811138  0.86892861  0.31780261  1
  O  O221  1  0.58266749  0.89837312  0.81345853  1
  O  O222  1  0.33026334  0.13039192  0.12519800  1
  O  O223  1  0.40508533  0.15904554  0.64435381  1
  O  O224  1  0.33041972  0.62283840  0.12586412  1
  O  O225  1  0.38977950  0.65123668  0.63177599  1
  O  O226  1  0.82772029  0.09888518  0.12753704  1
  O  O227  1  0.88472129  0.11360304  0.62226884  1
  O  O228  1  0.83781300  0.62301625  0.07377090  1
  O  O229  1  0.91341167  0.67393922  0.61874089  1
  O  O230  1  0.21646535  0.22918859  0.04668364  1
  O  O231  1  0.23731985  0.20232623  0.58598773  1
  O  O232  1  0.22979932  0.74410788  0.11477052  1
  O  O233  1  0.24724738  0.77781438  0.68712769  1
  O  O234  1  0.69217406  0.18087995  0.12173937  1
  O  O235  1  0.76763510  0.28667457  0.60612427  1
  O  O236  1  0.78035841  0.75715942  0.12750878  1
  O  O237  1  0.79290187  0.75646361  0.60538670  1
  O  O238  1  0.34662261  0.23118830  0.36691125  1
  O  O239  1  0.28404711  0.18113752  0.89468157  1
  O  O240  1  0.27746471  0.71769386  0.38292678  1
  O  O241  1  0.18351303  0.75276779  0.89422779  1
  O  O242  1  0.77077012  0.27295169  0.40147276  1
  O  O243  1  0.74661195  0.18791950  0.97544780  1
  O  O244  1  0.71857536  0.75200515  0.31183652  1
  O  O245  1  0.78271256  0.72996763  0.83501071  1
  O  O246  1  -0.00512779  0.13147123  0.00228298  1
  O  O247  1  0.08367703  0.21345066  0.49179789  1
  O  O248  1  -0.09124447  0.63969452  0.03950826  1
  O  O249  1  0.03845469  0.61228780  0.45869909  1
  O  O250  1  0.44129170  0.13810508  0.00904266  1
  O  O251  1  0.54431555  0.17981587  0.56401880  1
  O  O252  1  0.49494171  0.63909878  0.01449691  1
  O  O253  1  0.51945124  0.65786293  0.52940557  1
  O  O254  1  0.47644466  0.35146538  0.52182355  1
  O  O255  1  0.52940990  0.40477000  0.96024926  1
  O  O256  1  0.57252678  1.00717376  0.45930251  1
  O  O257  1  0.45203386  0.84170251  0.99261806  1
  O  O258  1  0.96942584  0.33564496  0.45796145  1
  O  O259  1  1.03169701  0.29156100  1.06573405  1
  O  O260  1  1.08158166  0.76813083  0.47290185  1
  O  O261  1  1.00035446  0.91774689  0.98833993  1
  O  O262  1  0.47479628  0.47452173  0.42858087  1
  O  O263  1  0.51609253  0.51172120  0.84431148  1
  O  O264  1  0.45440448  0.94668059  0.38015135  1
  O  O265  1  0.45515230  0.86298277  0.70648267  1
  O  O266  1  1.04169345  0.42627934  0.39038626  1
  O  O267  1  0.98879284  0.47007630  0.83131951  1
  O  O268  1  1.02862873  1.04250547  0.41664430  1
  O  O269  1  0.98766534  1.02492264  0.88946253  1
  O  O270  1  0.02376680  0.01762967  0.10613159  1
  O  O271  1  0.03039412  -0.04034131  0.56448846  1
  O  O272  1  0.02031476  0.44356365  0.11527951  1
  O  O273  1  0.04868712  0.47376128  0.62880578  1
  O  O274  1  0.39104573  -0.01146660  0.15500734  1
  O  O275  1  0.52902015  0.05546459  0.65653856  1
  O  O276  1  0.53596483  0.53458089  0.12306241  1
  O  O277  1  0.51374723  0.54076978  0.65312926  1
  O  O278  1  0.20382013  0.41118862  0.31645480  1
  O  O279  1  0.23693558  0.29904442  0.71533179  1
  O  O280  1  0.24696963  0.85510782  0.22313025  1
  O  O281  1  0.23473689  0.89566841  0.75174117  1
  O  O282  1  0.76654144  0.39749129  0.25586145  1
  O  O283  1  0.78900116  0.32552576  0.82645412  1
  O  O284  1  0.73962098  0.89228619  0.22645665  1
  O  O285  1  0.75886797  0.91304521  0.77712965  1
  O  O286  1  0.27417471  0.13825317  0.29330805  1
  O  O287  1  0.20488802  0.09158875  0.78128153  1
  O  O288  1  0.30920816  0.59116853  0.30293911  1
  O  O289  1  0.18801971  0.59303577  0.74893968  1
  O  O290  1  0.70813144  0.07717461  0.37579090  1
  O  O291  1  0.79089317  0.16836168  0.73975038  1
  O  O292  1  0.73200419  0.61378319  0.24465680  1
  O  O293  1  0.79302578  0.62896804  0.71846997  1
  O  O294  1  0.39365010  0.08209573  0.36782393  1
  O  O295  1  0.39993746  0.02208570  0.75570778  1
  O  O296  1  0.38609398  0.61514468  0.44416029  1
  O  O297  1  0.45728197  0.72433611  0.84097766  1
  O  O298  1  0.93468475  0.14293454  0.47863154  1
  O  O299  1  0.87925377  0.15188972  0.88514853  1
  O  O300  1  0.88373215  0.62590732  0.38149132  1
  O  O301  1  0.89170144  0.64169306  0.83713797  1
  O  O302  1  0.14067671  0.38732414  0.16800995  1
  O  O303  1  0.14388590  0.35192637  0.58391601  1
  O  O304  1  0.11305846  0.86121723  0.13082906  1
  O  O305  1  0.14090707  0.87997813  0.63409152  1
  O  O306  1  0.60951416  0.38523313  0.12668708  1
  O  O307  1  0.66775906  0.32611633  0.71684121  1
  O  O308  1  0.59065239  0.88747483  0.14856697  1
  O  O309  1  0.62626013  0.93836890  0.64748639  1
  O  O310  1  0.10700909  0.24142480  0.21241705  1
  O  O311  1  0.11347846  0.22225794  0.75339167  1
  O  O312  1  0.13933987  0.71646996  0.28653791  1
  O  O313  1  0.08858567  0.71755411  0.76443750  1
  O  O314  1  0.62207977  0.22115920  0.26306521  1
  O  O315  1  0.65868250  0.24029815  0.84921813  1
  O  O316  1  0.56931847  0.73047312  0.25410130  1
  O  O317  1  0.68530686  0.76054098  0.74092307  1
  O  O318  1  0.25350165  0.27445892  0.22876757  1
  O  O319  1  0.37670586  0.26713428  0.75345619  1
  O  O320  1  0.34697267  0.72564138  0.22477827  1
  O  O321  1  0.39792289  0.72270587  0.79923712  1
  O  O322  1  0.77549325  0.21802904  0.25122528  1
  O  O323  1  0.92116528  0.24308290  0.71532278  1
  O  O324  1  0.87240405  0.70505032  0.23985776  1
  O  O325  1  0.86643886  0.79352781  0.71578841  1
  O  O326  1  0.39357782  0.49774709  0.57300326  1
  O  O327  1  0.36774051  0.49288555  1.01974141  1
  O  O328  1  0.40203746  0.99807196  0.49458427  1
  O  O329  1  0.34222887  0.96571825  1.00092190  1
  O  O330  1  0.85487474  0.55112725  0.54228822  1
  O  O331  1  0.83179279  0.45514048  0.99603888  1
  O  O332  1  0.80896564  1.00546746  0.49523395  1
  O  O333  1  0.86741625  1.02115518  0.98114183  1
  O  O334  1  0.12028025  0.03966143  -0.01183087  1
  O  O335  1  0.14681304  -0.06282319  0.49598802  1
  O  O336  1  0.13265213  0.44237066  0.02341828  1
  O  O337  1  0.14544375  0.49040169  0.50420834  1
  O  O338  1  0.52871234  -0.01759964  -0.00517303  1
  O  O339  1  0.66689962  0.07193113  0.55906724  1
  O  O340  1  0.65608105  0.50876851  0.02772512  1
  O  O341  1  0.62504397  0.54138690  0.47429556  1
  O  O342  1  0.42675416  0.37177901  0.08686451  1
  O  O343  1  0.36440633  0.33316620  0.59031609  1
  O  O344  1  0.34194008  0.84384529  0.10820092  1
  O  O345  1  0.34460282  0.89069713  0.66929007  1
  O  O346  1  0.88485243  0.38570128  0.12403876  1
  O  O347  1  0.95138737  0.37921024  0.56341020  1
  O  O348  1  0.87426242  0.92244880  0.09175996  1
  O  O349  1  0.88235349  0.87633103  0.58981643  1
  O  O350  1  0.21253939  0.17829521  0.41374723  1
  O  O351  1  0.15217805  0.05852197  0.81880529  1
  O  O352  1  0.17863320  0.58545130  0.38372757  1
  O  O353  1  0.05424382  0.63518467  0.89332561  1
  O  O354  1  0.54491108  0.16947910  0.41465387  1
  O  O355  1  0.57015202  0.12698037  0.92245864  1
  O  O356  1  0.59638223  0.72020406  0.41865128  1
  O  O357  1  0.68757153  0.60849727  0.80785844  1
