# generated using pymatgen
data_V51Zn51O256
_symmetry_space_group_name_H-M   'P 1'
_cell_length_a   17.65090851
_cell_length_b   17.45814859
_cell_length_c   17.62096182
_cell_angle_alpha   89.20247673
_cell_angle_beta   90.59192132
_cell_angle_gamma   90.46787982
_symmetry_Int_Tables_number   1
_chemical_formula_structural   V51Zn51O256
_chemical_formula_sum   'V51 Zn51 O256'
_cell_volume   5428.94735785
_cell_formula_units_Z   1
loop_
 _symmetry_equiv_pos_site_id
 _symmetry_equiv_pos_as_xyz
  1  'x, y, z'
loop_
 _atom_site_type_symbol
 _atom_site_label
 _atom_site_symmetry_multiplicity
 _atom_site_fract_x
 _atom_site_fract_y
 _atom_site_fract_z
 _atom_site_occupancy
  V  V0  1  0.33177701  0.37550096  0.02583504  1
  V  V1  1  0.12778988  0.61621356  0.48745029  1
  V  V2  1  0.61634940  0.62759490  0.45130599  1
  V  V3  1  0.15083716  0.49101096  0.60012374  1
  V  V4  1  0.60474051  0.43649124  0.20798079  1
  V  V5  1  0.35974074  0.83617485  0.48603105  1
  V  V6  1  0.34269206  0.23082836  0.15091106  1
  V  V7  1  0.23852017  0.49362139  0.28496171  1
  V  V8  1  0.76515167  0.33592895  0.17581600  1
  V  V9  1  0.86356235  0.38260258  0.01220187  1
  V  V10  1  0.10498290  0.47974956  0.09937170  1
  V  V11  1  0.21293500  0.27991134  0.54682641  1
  V  V12  1  0.85158548  0.61674561  0.73217917  1
  V  V13  1  0.02618835  -0.01622618  -0.06308875  1
  V  V14  1  0.51511445  0.10261534  0.63783119  1
  V  V15  1  0.35988566  0.74338238  0.12687072  1
  V  V16  1  0.88664395  -0.00250640  0.35142929  1
  V  V17  1  0.26615639  0.62026133  0.38792318  1
  V  V18  1  0.65875691  0.63515058  -0.02891528  1
  V  V19  1  0.76593084  0.88630161  0.12526376  1
  V  V20  1  0.72283423  0.85812653  0.60954600  1
  V  V21  1  0.58903531  0.16680040  0.00934123  1
  V  V22  1  0.86390093  0.51738470  0.33356502  1
  V  V23  1  0.39419566  0.68602435  0.62729378  1
  V  V24  1  0.61618465  0.52421500  0.63798333  1
  V  V25  1  -0.01592349  0.78889815  0.74867424  1
  V  V26  1  0.39849643  0.35152931  0.46680831  1
  V  V27  1  0.05877586  0.70247365  0.90260848  1
  V  V28  1  -0.02998578  0.39667954  0.85019312  1
  V  V29  1  0.90479514  0.76249188  0.10290236  1
  V  V30  1  0.51127819  -0.05378415  0.47585358  1
  V  V31  1  0.35561184  0.00431869  0.39985417  1
  V  V32  1  0.02576574  0.00678504  0.47555969  1
  V  V33  1  0.23665500  -0.00141367  0.27429669  1
  V  V34  1  0.88624686  0.73930763  0.57581658  1
  V  V35  1  0.77916802  0.22682789  0.01935728  1
  V  V36  1  0.13058131  -0.01571845  0.10182634  1
  V  V37  1  0.92406881  0.64591933  0.23338498  1
  V  V38  1  0.71974568  0.01660247  0.25735761  1
  V  V39  1  0.11217146  0.36886632  0.25522417  1
  V  V40  1  0.39999769  0.50901782  0.92904674  1
  V  V41  1  0.10527481  0.29577724  0.87702400  1
  V  V42  1  -0.01355889  0.38497985  0.36455181  1
  V  V43  1  0.77583181  0.13211071  0.41335245  1
  V  V44  1  -0.03567883  0.27019668  0.71503334  1
  V  V45  1  0.01481274  0.85824184  0.37524141  1
  V  V46  1  0.72562622  0.39745571  0.55106502  1
  V  V47  1  0.05713640  0.14588094  0.11560316  1
  V  V48  1  0.86759024  0.14008077  0.78874069  1
  V  V49  1  0.28504478  0.91265535  0.09308024  1
  V  V50  1  -0.04323984  0.50609728  0.49574887  1
  Zn  Zn51  1  0.58593449  0.06524778  0.36886598  1
  Zn  Zn52  1  0.85441455  0.03755396  0.01670302  1
  Zn  Zn53  1  0.43605985  0.24928376  0.98879615  1
  Zn  Zn54  1  0.63432593  0.50230230  0.82446720  1
  Zn  Zn55  1  0.72235142  0.67149087  0.63108154  1
  Zn  Zn56  1  0.03344383  0.34716617  0.56184165  1
  Zn  Zn57  1  0.28197313  0.30358835  0.33294411  1
  Zn  Zn58  1  0.03284622  0.64173807  0.65234273  1
  Zn  Zn59  1  -0.02383011  0.58498038  0.82679188  1
  Zn  Zn60  1  0.34865017  0.16177532  0.52055168  1
  Zn  Zn61  1  0.87653981  0.44304506  0.67136678  1
  Zn  Zn62  1  0.44112704  0.97748609  0.78419036  1
  Zn  Zn63  1  0.43217441  0.66030656  0.47205132  1
  Zn  Zn64  1  0.95661715  0.21305141  0.96398398  1
  Zn  Zn65  1  0.05856047  0.07897291  0.29512037  1
  Zn  Zn66  1  0.67269125  1.00128883  1.07090627  1
  Zn  Zn67  1  0.79173017  0.78402200  0.75083523  1
  Zn  Zn68  1  0.71971111  0.69196906  0.14645143  1
  Zn  Zn69  1  0.50673329  0.46926690  0.49753324  1
  Zn  Zn70  1  0.18149478  0.41266242  0.42972924  1
  Zn  Zn71  1  0.41498732  0.40242507  0.20798071  1
  Zn  Zn72  1  0.85363433  0.04523288  0.57309189  1
  Zn  Zn73  1  0.49743974  0.14602854  0.83933874  1
  Zn  Zn74  1  0.95782188  0.91294359  0.19076196  1
  Zn  Zn75  1  0.24195509  0.41711356  0.87208196  1
  Zn  Zn76  1  0.87895624  0.73205677  0.90329018  1
  Zn  Zn77  1  0.34233691  0.58831037  0.79670610  1
  Zn  Zn78  1  0.33035024  0.53911547  0.12874059  1
  Zn  Zn79  1  0.31821977  0.52496540  0.53968754  1
  Zn  Zn80  1  0.03127661  0.13129650  0.81959853  1
  Zn  Zn81  1  0.95975568  0.91285155  0.62245901  1
  Zn  Zn82  1  0.80496358  0.60847829  0.50832773  1
  Zn  Zn83  1  0.94343639  0.44227632  0.17469310  1
  Zn  Zn84  1  0.40232432  0.89561931  0.23587227  1
  Zn  Zn85  1  0.18730668  0.90693623  0.43699524  1
  Zn  Zn86  1  0.52611908  0.26725763  0.16692581  1
  Zn  Zn87  1  0.06308673  0.55387032  0.31361980  1
  Zn  Zn88  1  0.12754754  0.84436793  0.98371505  1
  Zn  Zn89  1  0.54466650  0.77268763  0.56173075  1
  Zn  Zn90  1  0.81623660  0.29893451  0.84730147  1
  Zn  Zn91  1  0.78903451  0.33620585  0.37225211  1
  Zn  Zn92  1  0.70931002  0.97143348  0.43736128  1
  Zn  Zn93  1  0.94787377  0.67070426  0.42164245  1
  Zn  Zn94  1  0.67245707  0.47484544  0.38401980  1
  Zn  Zn95  1  0.83003305  0.57580178  0.07840519  1
  Zn  Zn96  1  0.30992972  0.77528977  0.31092991  1
  Zn  Zn97  1  0.45803644  0.68767404  0.93659561  1
  Zn  Zn98  1  0.69736087  0.17026649  0.19979944  1
  Zn  Zn99  1  0.71202478  0.44859376  1.04631543  1
  Zn  Zn100  1  0.15742760  0.34040806  0.71361539  1
  Zn  Zn101  1  0.56942391  0.28454921  0.53083752  1
  O  O102  1  0.14407975  0.08442539  0.11769643  1
  O  O103  1  0.18628760  0.05093162  0.65382576  1
  O  O104  1  0.16007874  0.57787183  0.09156680  1
  O  O105  1  0.11561383  0.58665815  0.60820773  1
  O  O106  1  0.59457404  0.19833513  0.21402774  1
  O  O107  1  0.60924466  0.08184341  0.65298085  1
  O  O108  1  0.64169392  0.66435402  0.06611410  1
  O  O109  1  0.62768645  0.62086782  0.65070271  1
  O  O110  1  0.37864824  0.33433174  0.37160455  1
  O  O111  1  0.40090373  0.39480298  0.95890545  1
  O  O112  1  0.37499344  0.81735988  0.39301590  1
  O  O113  1  0.44710470  0.83553510  0.85325616  1
  O  O114  1  0.87373847  0.41118107  0.34947949  1
  O  O115  1  0.73878292  0.38155506  0.80656469  1
  O  O116  1  0.93073438  0.91479816  0.40228795  1
  O  O117  1  0.83283469  0.89747898  0.86458132  1
  O  O118  1  0.25391400  -0.01235258  0.39264398  1
  O  O119  1  0.27546024  -0.11059375  0.86202406  1
  O  O120  1  0.25278227  0.49328015  0.38398654  1
  O  O121  1  0.32800660  0.48812697  0.85729211  1
  O  O122  1  0.78816591  -0.03066625  0.35584574  1
  O  O123  1  0.77808133  -0.05933036  0.86587111  1
  O  O124  1  0.76797382  0.52201065  0.34365423  1
  O  O125  1  0.71575140  0.42675557  0.85906689  1
  O  O126  1  0.21267846  0.52217413  0.10509081  1
  O  O127  1  0.24634386  0.48790821  0.61719855  1
  O  O128  1  0.22770007  0.96954054  0.16525067  1
  O  O129  1  0.29725880  0.97532393  0.69253055  1
  O  O130  1  0.85128981  0.37878881  0.17530786  1
  O  O131  1  0.69230650  0.48991035  0.57709519  1
  O  O132  1  0.69146220  1.05584029  0.16885111  1
  O  O133  1  0.76431098  0.96132708  0.58539118  1
  O  O134  1  0.00447759  0.39316367  0.25918566  1
  O  O135  1  -0.06834054  0.38015054  0.75462485  1
  O  O136  1  0.00890953  0.86750891  0.28050938  1
  O  O137  1  -0.00477516  0.88409662  0.71964891  1
  O  O138  1  0.44208536  0.57738330  0.22150683  1
  O  O139  1  0.35712383  0.23864978  0.77115719  1
  O  O140  1  0.52432934  0.86595100  0.25862208  1
  O  O141  1  0.44193205  0.86797343  0.78152534  1
  O  O142  1  0.51878983  0.10118769  0.21837883  1
  O  O143  1  0.50553052  0.15000297  0.72669509  1
  O  O144  1  0.56279520  0.71117063  0.19693979  1
  O  O145  1  0.59330589  0.75025628  0.77789657  1
  O  O146  1  1.01766716  0.11924415  0.20423243  1
  O  O147  1  0.97349200  0.16809378  0.72665369  1
  O  O148  1  1.01809612  0.63371979  0.24596996  1
  O  O149  1  0.95427729  0.59939221  0.71657771  1
  O  O150  1  0.34219604  0.27198228  0.04693649  1
  O  O151  1  0.38455738  0.27016644  0.51908574  1
  O  O152  1  0.41660470  0.73957549  0.02777202  1
  O  O153  1  0.37306055  0.74244898  0.53083834  1
  O  O154  1  0.87651167  0.26679362  0.02197508  1
  O  O155  1  0.70894863  0.21849662  0.69237135  1
  O  O156  1  0.87129797  0.75009905  0.01013136  1
  O  O157  1  0.86158219  0.70602522  0.48328102  1
  O  O158  1  0.11619953  0.28573444  0.53139638  1
  O  O159  1  0.13730823  0.30167319  0.96320561  1
  O  O160  1  0.12321570  0.70752966  0.50203794  1
  O  O161  1  0.05614454  0.65184959  0.99859129  1
  O  O162  1  0.59416134  0.21664134  0.44052440  1
  O  O163  1  0.66941437  0.21572280  1.03627565  1
  O  O164  1  0.53851757  0.68550363  0.48624764  1
  O  O165  1  0.68472928  0.72420994  0.93533034  1
  O  O166  1  0.41558713  0.28478037  0.19464259  1
  O  O167  1  0.54200704  0.19132327  0.59295604  1
  O  O168  1  0.46071989  0.75095825  0.09470030  1
  O  O169  1  0.48369839  0.71858119  0.64022749  1
  O  O170  1  1.08843983  0.23360494  0.11744243  1
  O  O171  1  0.95603624  0.29288288  0.62108153  1
  O  O172  1  0.99686475  0.77249298  0.09416154  1
  O  O173  1  0.97541317  0.70528289  0.58173974  1
  O  O174  1  -0.03594048  0.29498449  0.37935668  1
  O  O175  1  -0.00506298  0.29635225  0.89517548  1
  O  O176  1  -0.00463821  0.76788308  0.40131548  1
  O  O177  1  -0.01594436  0.76287956  0.85201283  1
  O  O178  1  0.51508131  0.15321509  0.36033085  1
  O  O179  1  0.42845806  0.22570645  0.88293725  1
  O  O180  1  0.54098374  0.82921567  0.31754904  1
  O  O181  1  0.43243505  0.75952963  0.85052253  1
  O  O182  1  0.24546407  0.18628910  0.53968771  1
  O  O183  1  0.25403789  0.05942851  0.87343656  1
  O  O184  1  0.23691357  0.60087536  0.48983630  1
  O  O185  1  0.21532722  0.59482740  0.95151545  1
  O  O186  1  0.80575733  0.11468430  0.50628687  1
  O  O187  1  0.80378300  0.13170815  1.02869314  1
  O  O188  1  0.69999968  0.63748228  0.50672206  1
  O  O189  1  0.75832950  0.62352337  0.98794147  1
  O  O190  1  0.25072666  0.40623241  -0.01615291  1
  O  O191  1  0.25691808  0.34652896  0.47951396  1
  O  O192  1  0.29748052  0.95811793  0.01244378  1
  O  O193  1  0.26473652  0.85218902  0.49420210  1
  O  O194  1  0.76752067  0.34399234  0.04706056  1
  O  O195  1  0.73291503  0.39760020  0.44989956  1
  O  O196  1  0.78226090  0.96303888  0.05379621  1
  O  O197  1  0.76415329  0.91195634  0.51811490  1
  O  O198  1  0.14105149  0.49931290  0.25590610  1
  O  O199  1  0.18075381  0.51325775  0.79518620  1
  O  O200  1  0.14097687  1.00409945  0.29062480  1
  O  O201  1  0.18661612  1.10293026  0.70461701  1
  O  O202  1  0.58856725  0.52658964  0.18930457  1
  O  O203  1  0.62182876  0.47653027  0.72399325  1
  O  O204  1  0.63676056  0.99223512  0.30163735  1
  O  O205  1  0.61637823  0.97597255  0.85928837  1
  O  O206  1  0.36006071  -0.02934140  0.30142166  1
  O  O207  1  0.32583045  0.00742937  0.74883845  1
  O  O208  1  0.31979551  0.47602369  0.22829927  1
  O  O209  1  0.50687042  0.48777235  0.92920028  1
  O  O210  1  0.90796763  -0.00779311  0.25922791  1
  O  O211  1  0.88590897  0.03952379  0.74031755  1
  O  O212  1  0.88436875  0.53019468  0.23487774  1
  O  O213  1  0.82097823  0.52387118  0.72994581  1
  O  O214  1  0.09120061  0.39030741  0.36780275  1
  O  O215  1  0.06660956  0.40303223  0.84243899  1
  O  O216  1  0.13323007  0.83752741  0.36025205  1
  O  O217  1  0.13800792  0.75751524  0.92042444  1
  O  O218  1  0.62308241  0.42304157  0.30308873  1
  O  O219  1  0.63009702  0.37811646  0.97296053  1
  O  O220  1  0.70960809  0.80452908  0.32213426  1
  O  O221  1  0.63810254  0.96702367  0.79390032  1
  O  O222  1  0.36740401  0.14246802  0.14133079  1
  O  O223  1  0.41963607  0.12898588  0.60287622  1
  O  O224  1  0.33041971  0.65136890  0.13334885  1
  O  O225  1  0.39500067  0.60375536  0.56888480  1
  O  O226  1  0.93841571  0.24541450  0.19900333  1
  O  O227  1  0.85134835  0.08170715  0.68328524  1
  O  O228  1  0.89544178  0.64719342  0.12748181  1
  O  O229  1  0.83678114  0.64059144  0.61973152  1
  O  O230  1  0.24009300  0.25248881  0.17127492  1
  O  O231  1  0.22937093  0.30889465  0.63900634  1
  O  O232  1  0.29037279  0.80328383  0.08679758  1
  O  O233  1  0.34612759  0.79814444  0.66118170  1
  O  O234  1  0.76778117  0.23718490  0.14552935  1
  O  O235  1  0.72926436  0.19161828  0.63195023  1
  O  O236  1  0.77146310  0.78298604  0.13075050  1
  O  O237  1  0.76903350  0.77070492  0.59428098  1
  O  O238  1  0.20933025  0.23356890  0.39172085  1
  O  O239  1  0.19108483  0.33800981  0.81941437  1
  O  O240  1  0.24694660  0.71532713  0.37552922  1
  O  O241  1  0.25259229  0.64046516  0.91277028  1
  O  O242  1  0.77291364  0.22853921  0.40382928  1
  O  O243  1  0.76130133  0.24269951  0.92474540  1
  O  O244  1  0.76168241  0.76173347  0.30676059  1
  O  O245  1  0.80764524  0.80802004  0.85800361  1
  O  O246  1  -0.00646185  0.13965533  0.03742825  1
  O  O247  1  0.09357509  0.06076077  0.50654515  1
  O  O248  1  -0.01548202  0.65166837  -0.03320735  1
  O  O249  1  0.01378523  0.59284342  0.48564402  1
  O  O250  1  0.51241852  0.21653397  0.05820682  1
  O  O251  1  0.51651230  0.04168339  0.55494543  1
  O  O252  1  0.56000620  0.65188370  -0.04100285  1
  O  O253  1  0.45944245  0.47291483  0.29686867  1
  O  O254  1  0.50207654  0.35734506  0.47883732  1
  O  O255  1  0.56579753  0.37053725  1.00022886  1
  O  O256  1  0.48263598  0.85285054  0.50506995  1
  O  O257  1  0.47336241  0.92947358  0.97811115  1
  O  O258  1  0.98626345  0.40860509  0.47838843  1
  O  O259  1  0.87252108  0.37540702  0.91054252  1
  O  O260  1  1.07490419  0.91650138  0.45531753  1
  O  O261  1  1.04230176  0.88763598  0.92797137  1
  O  O262  1  0.45551179  0.54946979  0.28782797  1
  O  O263  1  0.52963797  0.47295688  0.85951272  1
  O  O264  1  0.48695788  0.99527641  0.39221758  1
  O  O265  1  0.45415403  1.04864303  0.85795309  1
  O  O266  1  0.97563166  0.50487086  0.36855684  1
  O  O267  1  0.95483979  0.48965337  0.87376494  1
  O  O268  1  0.99800338  1.04458799  0.38521410  1
  O  O269  1  1.04612074  1.02774228  0.85115924  1
  O  O270  1  0.05155369  -0.04223134  0.14723428  1
  O  O271  1  0.16570892  -0.10898080  0.65749604  1
  O  O272  1  0.01853914  0.51139116  0.13294313  1
  O  O273  1  -0.05716714  0.49451307  0.59092330  1
  O  O274  1  0.51610965  0.05413140  0.16732748  1
  O  O275  1  0.47604587  0.02203685  0.68961516  1
  O  O276  1  0.52402217  0.38050092  0.17613730  1
  O  O277  1  0.52936193  0.50460175  0.59825563  1
  O  O278  1  0.21544064  0.38131336  0.29091218  1
  O  O279  1  0.41287557  0.37213668  0.68111485  1
  O  O280  1  0.23530792  0.86459870  0.28842359  1
  O  O281  1  0.23971677  0.87620967  0.80332024  1
  O  O282  1  0.74580595  0.32283505  0.26919813  1
  O  O283  1  0.60317506  0.29782027  0.79609684  1
  O  O284  1  0.76599520  0.93154335  0.21518012  1
  O  O285  1  0.74007557  0.87014971  0.70550485  1
  O  O286  1  0.26407488  0.08639806  0.26573511  1
  O  O287  1  0.24640033  0.14489674  0.71429024  1
  O  O288  1  0.25459765  0.59664879  0.28696335  1
  O  O289  1  0.21602379  0.57162203  0.77157472  1
  O  O290  1  0.74750406  0.10772124  0.29133091  1
  O  O291  1  0.78081773  0.12313523  0.81536073  1
  O  O292  1  0.74314418  0.58925456  0.14531344  1
  O  O293  1  0.76573203  0.67721723  0.73938953  1
  O  O294  1  0.36379181  0.09637761  0.42955148  1
  O  O295  1  0.28729141  0.12073345  0.86576888  1
  O  O296  1  0.36375436  0.61831032  0.39950814  1
  O  O297  1  0.41807572  0.60114116  0.88062136  1
  O  O298  1  0.86576075  0.09496060  0.37512396  1
  O  O299  1  0.92446053  0.14459344  0.87254938  1
  O  O300  1  0.89026342  0.62789356  0.33457754  1
  O  O301  1  0.87503835  0.64145206  0.83364988  1
  O  O302  1  0.12313489  0.39039474  0.15565512  1
  O  O303  1  0.10060736  0.41690760  0.64430946  1
  O  O304  1  0.17160864  0.89231157  0.06627705  1
  O  O305  1  0.19710844  0.82864215  0.65956053  1
  O  O306  1  0.68696850  0.40721031  0.14995845  1
  O  O307  1  0.65705232  0.33162063  0.57603623  1
  O  O308  1  0.66983108  0.89081457  0.10475367  1
  O  O309  1  0.62864534  0.83546709  0.59735666  1
  O  O310  1  0.10511743  0.27628498  0.26039071  1
  O  O311  1  0.05609006  0.29211929  0.73777911  1
  O  O312  1  0.16159682  0.83462811  0.28785889  1
  O  O313  1  0.05568727  0.73837250  0.71253215  1
  O  O314  1  0.52957059  0.21632512  0.39883174  1
  O  O315  1  0.54556139  0.31671039  0.76032967  1
  O  O316  1  0.62944931  0.71883254  0.21908418  1
  O  O317  1  0.60507541  0.80936766  0.81370543  1
  O  O318  1  0.27882273  0.23127913  0.23887603  1
  O  O319  1  0.36001565  0.26041427  0.83805629  1
  O  O320  1  0.37247826  0.78166850  0.22236169  1
  O  O321  1  0.35509681  0.65086713  0.71027227  1
  O  O322  1  0.91006242  0.22410962  0.25819772  1
  O  O323  1  0.86270640  0.24658687  0.76411913  1
  O  O324  1  0.90919371  0.74230782  0.22551924  1
  O  O325  1  0.89801635  0.75865445  0.70744327  1
  O  O326  1  0.38818112  0.45041945  0.49742377  1
  O  O327  1  0.37175804  0.54047844  1.01316035  1
  O  O328  1  0.38239535  0.94784983  0.48179293  1
  O  O329  1  0.45550829  0.99697891  0.97464944  1
  O  O330  1  0.86462272  0.53027687  0.46100751  1
  O  O331  1  0.82040774  0.47891791  1.02878140  1
  O  O332  1  0.95391325  0.99977262  0.55335368  1
  O  O333  1  0.93367758  0.99515215  0.96438979  1
  O  O334  1  0.09777256  0.00899496  0.00573006  1
  O  O335  1  0.17812823  0.17324737  0.35631788  1
  O  O336  1  0.09545443  0.45892547  0.00997593  1
  O  O337  1  0.13297301  0.48248214  0.50392414  1
  O  O338  1  0.60072719  0.06998541  0.02706963  1
  O  O339  1  0.60606249  -0.06011510  0.46755318  1
  O  O340  1  0.65339294  0.53395379  0.00389733  1
  O  O341  1  0.58888902  0.52743536  0.44109391  1
  O  O342  1  0.35600008  0.42333925  0.10761065  1
  O  O343  1  0.42693331  0.41072671  0.73732701  1
  O  O344  1  0.37397572  0.92324669  0.13506606  1
  O  O345  1  0.36461569  0.85685590  0.62167721  1
  O  O346  1  0.94580835  0.39552330  0.05601935  1
  O  O347  1  0.80785767  0.38502939  0.60183733  1
  O  O348  1  0.88376329  0.86705047  0.12521262  1
  O  O349  1  0.90216042  0.83731255  0.56961749  1
  O  O350  1  0.10662222  0.16203181  0.37035430  1
  O  O351  1  0.10921173  0.19856212  0.85506025  1
  O  O352  1  0.12968413  0.60642330  0.38909310  1
  O  O353  1  0.07860711  0.63233919  0.84120270  1
  O  O354  1  0.68339330  0.08234885  0.42498984  1
  O  O355  1  0.57028752  0.17930200  0.91411669  1
  O  O356  1  0.63599891  0.65613637  0.36531748  1
  O  O357  1  0.65854720  0.59249933  0.87865959  1
