# generated using pymatgen
data_V51Zn51O256
_symmetry_space_group_name_H-M   'P 1'
_cell_length_a   17.60589478
_cell_length_b   17.87627856
_cell_length_c   17.58265436
_cell_angle_alpha   90.42477392
_cell_angle_beta   89.46328253
_cell_angle_gamma   91.20942629
_symmetry_Int_Tables_number   1
_chemical_formula_structural   V51Zn51O256
_chemical_formula_sum   'V51 Zn51 O256'
_cell_volume   5532.13189188
_cell_formula_units_Z   1
loop_
 _symmetry_equiv_pos_site_id
 _symmetry_equiv_pos_as_xyz
  1  'x, y, z'
loop_
 _atom_site_type_symbol
 _atom_site_label
 _atom_site_symmetry_multiplicity
 _atom_site_fract_x
 _atom_site_fract_y
 _atom_site_fract_z
 _atom_site_occupancy
  V  V0  1  0.01745254  0.36577338  0.87848927  1
  V  V1  1  0.39374076  0.04756777  0.39864008  1
  V  V2  1  0.47297492  0.86500236  0.37736674  1
  V  V3  1  0.36244111  0.36941723  0.49425461  1
  V  V4  1  0.70585664  0.75825922  0.44222446  1
  V  V5  1  0.76001781  0.29806050  0.86505296  1
  V  V6  1  0.85670453  0.74734653  0.57910100  1
  V  V7  1  0.01393571  0.21129547  0.77015461  1
  V  V8  1  0.76567525  0.59716460  0.87487519  1
  V  V9  1  0.83765921  0.01955240  0.37855714  1
  V  V10  1  0.45146310  0.38982043  0.00067808  1
  V  V11  1  0.59358772  0.61722567  -0.01736961  1
  V  V12  1  -0.00898833  0.75419392  0.25184003  1
  V  V13  1  0.20519987  0.62735403  0.40617004  1
  V  V14  1  0.79231368  0.20370985  0.02809252  1
  V  V15  1  0.36091947  -0.02535454  0.87346775  1
  V  V16  1  0.23191410  0.64743415  0.91519438  1
  V  V17  1  -0.00695429  0.08607997  0.61300596  1
  V  V18  1  0.48334431  0.62537303  0.60894669  1
  V  V19  1  0.23066355  0.18957164  0.81752145  1
  V  V20  1  0.45558489  0.64504086  0.12774669  1
  V  V21  1  0.41377020  0.55540108  0.77723639  1
  V  V22  1  0.59179346  -0.01350468  0.12051487  1
  V  V23  1  0.39305533  0.12390851  0.76361987  1
  V  V24  1  0.47504054  0.76551806  0.24571056  1
  V  V25  1  0.03015501  0.08881112  0.16260697  1
  V  V26  1  0.60940730  0.51225588  0.61060020  1
  V  V27  1  0.47782729  0.75161780  0.73092019  1
  V  V28  1  0.72662410  0.58791625  0.33163014  1
  V  V29  1  0.18165755  0.45069371  0.18318964  1
  V  V30  1  0.50905286  0.13831253  0.65063010  1
  V  V31  1  0.74262712  0.00160626  0.76944404  1
  V  V32  1  0.24807396  -0.02423928  0.73704553  1
  V  V33  1  0.21244884  0.81708324  0.63849914  1
  V  V34  1  0.19615771  -0.01006765  0.15538257  1
  V  V35  1  0.15514226  0.15503060  0.52077670  1
  V  V36  1  0.45264146  0.29095598  0.21035520  1
  V  V37  1  0.60100136  0.75604909  0.87985021  1
  V  V38  1  0.48905446  0.54568153  0.45420207  1
  V  V39  1  0.50163248  0.32558214  0.37937283  1
  V  V40  1  0.83931194  0.57778664  0.21567157  1
  V  V41  1  0.87197990  0.45100833  0.91844219  1
  V  V42  1  0.05216557  -0.01974583  0.46940548  1
  V  V43  1  0.82085014  0.89034567  0.48574615  1
  V  V44  1  0.35938998  0.84260490  0.51656323  1
  V  V45  1  0.93609914  0.22913385  0.11687718  1
  V  V46  1  0.01069347  0.34114068  0.38403419  1
  V  V47  1  0.46759559  0.85294284  0.89523394  1
  V  V48  1  0.86443163  0.21485132  0.59327513  1
  V  V49  1  0.29639556  0.07788320  0.26061894  1
  V  V50  1  0.43721027  0.21718860  0.03545023  1
  Zn  Zn51  1  0.53685537  0.79975424  0.05525275  1
  Zn  Zn52  1  0.33901557  0.53809509  0.01918666  1
  Zn  Zn53  1  0.97505374  0.17893445  0.93231990  1
  Zn  Zn54  1  0.37198092  0.29898746  0.86220052  1
  Zn  Zn55  1  0.54590622  0.79186996  0.53466236  1
  Zn  Zn56  1  0.89807236  0.93234420  0.66276568  1
  Zn  Zn57  1  0.60588206  0.61852532  0.76947783  1
  Zn  Zn58  1  0.94879061  0.62867976  0.93386334  1
  Zn  Zn59  1  0.46044745  0.97330071  0.24792897  1
  Zn  Zn60  1  0.33146139  0.07719483  0.58640434  1
  Zn  Zn61  1  1.02061149  0.55375876  0.23384114  1
  Zn  Zn62  1  0.71183856  0.19341302  0.70224700  1
  Zn  Zn63  1  0.04644087  0.28285208  0.58369720  1
  Zn  Zn64  1  0.26439390  0.26610741  0.19211715  1
  Zn  Zn65  1  0.33759879  0.13508040  0.94023521  1
  Zn  Zn66  1  0.78386152  0.06649358  0.57290916  1
  Zn  Zn67  1  0.74957378  0.61676256  0.52914171  1
  Zn  Zn68  1  0.33980117  0.40489742  0.29641940  1
  Zn  Zn69  1  0.18585573  0.47559417  0.91528309  1
  Zn  Zn70  1  0.61726973  0.29091909  -0.00178108  1
  Zn  Zn71  1  0.77604402  0.55891513  0.03992150  1
  Zn  Zn72  1  0.18899167  0.42751958  0.45468660  1
  Zn  Zn73  1  0.03887701  0.80391476  0.54677864  1
  Zn  Zn74  1  0.44122284  0.43943665  0.64967475  1
  Zn  Zn75  1  0.29985041  0.79645167  0.80645137  1
  Zn  Zn76  1  0.08867869  0.07600218  0.79125715  1
  Zn  Zn77  1  0.31875217  0.66348909  0.68252012  1
  Zn  Zn78  1  0.23849166  1.03410886  0.46239511  1
  Zn  Zn79  1  0.39870996  0.69092698  0.42823338  1
  Zn  Zn80  1  0.87275928  0.97154995  0.17971060  1
  Zn  Zn81  1  0.80591685  0.85787503  0.29464433  1
  Zn  Zn82  1  0.29022170  0.80365106  0.35133649  1
  Zn  Zn83  1  0.41836373  0.92139931  0.69393466  1
  Zn  Zn84  1  0.45598436  0.47040621  0.16036624  1
  Zn  Zn85  1  0.89005444  0.32908751  0.75228466  1
  Zn  Zn86  1  0.54102104  0.02235756  0.81853068  1
  Zn  Zn87  1  0.84620577  0.71465547  0.38256894  1
  Zn  Zn88  1  0.32214008  0.53661015  0.53782254  1
  Zn  Zn89  1  0.54139390  0.33167965  0.56390604  1
  Zn  Zn90  1  0.95298025  0.16016237  0.46320379  1
  Zn  Zn91  1  0.63709604  0.45333593  0.41053698  1
  Zn  Zn92  1  0.77139296  0.73412867  0.77427407  1
  Zn  Zn93  1  0.42742389  0.66244783  0.92805483  1
  Zn  Zn94  1  0.18533347  0.70478301  0.23466165  1
  Zn  Zn95  1  0.53453809  0.60158496  0.26777810  1
  Zn  Zn96  1  0.93095009  0.11197530  0.28458747  1
  Zn  Zn97  1  0.08853262  0.65271359  1.06588933  1
  Zn  Zn98  1  0.32973722  0.03632901  0.06625441  1
  Zn  Zn99  1  0.11680698  0.06901604  0.33227320  1
  Zn  Zn100  1  0.69973959  0.79013817  0.62920822  1
  Zn  Zn101  1  0.85414523  0.26615966  0.27264752  1
  O  O102  1  0.24343931  0.22876181  0.08675348  1
  O  O103  1  0.09813983  0.10915722  0.58883313  1
  O  O104  1  0.15007792  0.70314842  0.13819500  1
  O  O105  1  0.17082317  0.56200922  0.64320787  1
  O  O106  1  0.58376471  0.08293131  0.11164725  1
  O  O107  1  0.59431563  0.20022984  0.68362695  1
  O  O108  1  0.64890194  0.62769341  0.09468185  1
  O  O109  1  0.58181966  0.62764478  0.59961374  1
  O  O110  1  0.40875076  0.36647304  0.39469023  1
  O  O111  1  0.42084524  0.38443481  0.90780676  1
  O  O112  1  0.33754325  0.86962769  0.41984571  1
  O  O113  1  0.36488647  0.86695717  0.86401078  1
  O  O114  1  0.91495714  0.31518422  0.35700137  1
  O  O115  1  0.83228303  0.37108171  0.84587950  1
  O  O116  1  0.85056451  0.90938298  0.38603913  1
  O  O117  1  0.85854625  0.78886588  0.82624395  1
  O  O118  1  0.29111486  0.06795460  0.36728122  1
  O  O119  1  0.26512377  -0.02122952  0.84745281  1
  O  O120  1  0.18337952  0.52799156  0.41031025  1
  O  O121  1  0.20154657  0.56918614  0.86456884  1
  O  O122  1  0.74953007  0.03337538  0.35838723  1
  O  O123  1  0.76512974  0.00672284  0.86401063  1
  O  O124  1  0.72499888  0.50980718  0.38842694  1
  O  O125  1  0.79158858  0.50659388  0.86047610  1
  O  O126  1  0.20013422  0.54531594  0.16968310  1
  O  O127  1  0.22877099  0.52391319  0.63870907  1
  O  O128  1  0.30585625  1.01744320  0.17648447  1
  O  O129  1  0.26504812  1.00672778  0.64760267  1
  O  O130  1  0.68682319  0.45104957  0.12996654  1
  O  O131  1  0.69812619  0.53253892  0.57018642  1
  O  O132  1  0.68629014  0.99627669  0.14344090  1
  O  O133  1  0.74364870  1.00901682  0.66399768  1
  O  O134  1  0.05563236  0.31406915  0.30123920  1
  O  O135  1  -0.02129941  0.38896671  0.79303166  1
  O  O136  1  0.03378855  0.84212142  0.26540456  1
  O  O137  1  -0.04135910  0.86742799  0.74560331  1
  O  O138  1  0.49975833  0.36953552  0.18089448  1
  O  O139  1  0.60727481  0.38173265  0.77675430  1
  O  O140  1  0.44620459  0.86483451  0.26012280  1
  O  O141  1  0.48227938  0.84638759  0.73936555  1
  O  O142  1  0.45214809  0.21731924  0.14737752  1
  O  O143  1  0.49829472  0.08699586  0.74202794  1
  O  O144  1  0.44410017  0.66589177  0.23642029  1
  O  O145  1  0.47735080  0.61761904  0.72073618  1
  O  O146  1  1.04247583  0.10834966  0.26105827  1
  O  O147  1  1.01479344  0.12432237  0.70875761  1
  O  O148  1  0.96122840  0.65831592  0.22549016  1
  O  O149  1  1.01474534  0.63698641  0.68598869  1
  O  O150  1  0.39911908  0.22805147  -0.05910521  1
  O  O151  1  0.32481476  0.28657011  0.50012975  1
  O  O152  1  0.17066312  0.83724883  -0.00633362  1
  O  O153  1  0.36179800  0.74763643  0.51888285  1
  O  O154  1  0.91438673  0.20244005  0.01473440  1
  O  O155  1  0.84940208  0.23443249  0.50220172  1
  O  O156  1  0.83162733  0.81171612  -0.10424362  1
  O  O157  1  0.85891344  0.78449945  0.47718986  1
  O  O158  1  0.14090311  0.24946881  0.53612737  1
  O  O159  1  0.23333553  0.27951308  1.02868707  1
  O  O160  1  0.04653937  0.70506001  0.50684905  1
  O  O161  1  0.00908279  0.79133837  0.90183819  1
  O  O162  1  0.66654980  0.16851197  0.48326471  1
  O  O163  1  0.70227505  0.24168677  1.04077189  1
  O  O164  1  0.61090285  0.75217495  0.44469128  1
  O  O165  1  0.60337746  0.74689175  0.98192554  1
  O  O166  1  0.40697624  0.31605300  0.05313237  1
  O  O167  1  0.53840519  0.24061970  0.63627607  1
  O  O168  1  0.47290907  0.75242013  0.13347574  1
  O  O169  1  0.48089863  0.73171021  0.62948432  1
  O  O170  1  1.02936176  0.17247557  0.11185399  1
  O  O171  1  0.97500641  0.19918155  0.56917351  1
  O  O172  1  0.99794892  0.76273629  0.15283436  1
  O  O173  1  0.94710022  0.76499073  0.60671638  1
  O  O174  1  0.01548495  0.24127340  0.40947544  1
  O  O175  1  0.03487567  0.26868175  0.87081591  1
  O  O176  1  -0.04462067  0.73724920  0.34779836  1
  O  O177  1  0.01329504  0.67779756  0.84604835  1
  O  O178  1  0.49279323  0.26199602  0.30109393  1
  O  O179  1  0.64001659  0.12847184  0.91606635  1
  O  O180  1  0.43757546  0.76173895  0.35193381  1
  O  O181  1  0.46795679  0.75108272  0.87377886  1
  O  O182  1  0.24871949  0.12825505  0.53499947  1
  O  O183  1  0.23567668  0.15064409  0.90643896  1
  O  O184  1  0.24761896  0.60866378  0.49794571  1
  O  O185  1  0.32304968  0.63227579  0.95849538  1
  O  O186  1  0.68149835  0.04856300  0.51076265  1
  O  O187  1  0.77919447  0.11357971  1.03497325  1
  O  O188  1  0.74406968  0.65503264  0.42121491  1
  O  O189  1  0.70984463  0.60229986  0.96326619  1
  O  O190  1  0.11513775  0.42430289  0.11522656  1
  O  O191  1  0.28165456  0.43125327  0.51355853  1
  O  O192  1  0.12805124  0.88932250  -0.01600108  1
  O  O193  1  0.25570225  0.84703460  0.55500363  1
  O  O194  1  0.69543452  0.38314845  0.13139763  1
  O  O195  1  0.69691680  0.35481473  0.46737926  1
  O  O196  1  0.87100689  0.86055992  -0.06902240  1
  O  O197  1  0.72630203  0.86198228  0.48025398  1
  O  O198  1  0.03071872  0.58076458  0.33314584  1
  O  O199  1  0.09183776  0.50432086  0.74994267  1
  O  O200  1  0.19605735  1.03933922  0.25856593  1
  O  O201  1  0.15630206  1.00404834  0.75595122  1
  O  O202  1  0.79001982  0.40099175  0.28965357  1
  O  O203  1  0.61626806  0.53052917  0.70695882  1
  O  O204  1  0.57699995  0.97749129  0.22565951  1
  O  O205  1  0.64287181  1.01373555  0.78045679  1
  O  O206  1  0.39752452  0.05658591  0.27890723  1
  O  O207  1  0.36302184  -0.00874127  0.75152357  1
  O  O208  1  0.39513411  0.48278840  0.25078050  1
  O  O209  1  0.42237850  0.46059397  0.75036789  1
  O  O210  1  0.88388150  0.00969592  0.28621474  1
  O  O211  1  0.84091138  -0.02072788  0.75161618  1
  O  O212  1  0.91229266  0.51752785  0.22419584  1
  O  O213  1  0.88452068  0.54365535  0.67815664  1
  O  O214  1  0.10061114  0.38284700  0.40964930  1
  O  O215  1  0.09814244  0.41821042  0.89703001  1
  O  O216  1  0.13946581  0.85745057  0.39898204  1
  O  O217  1  0.04268279  0.74763772  0.85593504  1
  O  O218  1  0.56767624  0.39197556  0.35396097  1
  O  O219  1  0.68148803  0.32836526  0.91072573  1
  O  O220  1  0.56374900  0.86856387  0.36413277  1
  O  O221  1  0.57114218  0.85107374  0.87459453  1
  O  O222  1  0.38582911  0.12692191  0.04262716  1
  O  O223  1  0.40314435  0.13251449  0.65010230  1
  O  O224  1  0.36873137  0.61227835  0.10762231  1
  O  O225  1  0.37426141  0.60485435  0.60626351  1
  O  O226  1  0.94146889  0.04950899  0.14929185  1
  O  O227  1  0.88929878  0.10531915  0.61086716  1
  O  O228  1  0.82560353  0.60511046  0.12257730  1
  O  O229  1  0.85405882  0.65293376  0.56111812  1
  O  O230  1  0.19150923  0.34751907  0.20000487  1
  O  O231  1  0.23824915  0.31778619  0.64873930  1
  O  O232  1  0.27192740  0.75699636  0.25964968  1
  O  O233  1  0.23608926  0.72719178  0.65841692  1
  O  O234  1  0.83115533  0.23880334  0.11935612  1
  O  O235  1  0.76769059  0.17337227  0.61252570  1
  O  O236  1  0.66055776  0.68927468  0.12805191  1
  O  O237  1  0.72861428  0.72955628  0.53995215  1
  O  O238  1  0.25762454  0.35042939  0.38401438  1
  O  O239  1  0.27249241  0.27773945  0.82020823  1
  O  O240  1  0.22087888  0.72821982  0.40772576  1
  O  O241  1  0.23628671  0.72691604  0.85860572  1
  O  O242  1  0.70675654  0.30297829  0.42082727  1
  O  O243  1  0.79875883  0.22796038  0.91974599  1
  O  O244  1  0.75305288  0.78180393  0.35324019  1
  O  O245  1  0.69216178  0.76596968  0.85205257  1
  O  O246  1  0.16725668  0.28507556  0.00181237  1
  O  O247  1  -0.00585148  0.05849398  0.50390352  1
  O  O248  1  -0.00644214  0.66445531  0.02305685  1
  O  O249  1  -0.01899845  0.55295963  0.51683197  1
  O  O250  1  0.53050950  0.21465579  0.01480924  1
  O  O251  1  0.53934143  0.08920029  0.58026339  1
  O  O252  1  0.49752273  0.64828537  0.02447440  1
  O  O253  1  0.47414928  0.63845941  0.49462759  1
  O  O254  1  0.53080134  0.28861298  0.46302410  1
  O  O255  1  0.54624396  0.37251559  1.00563268  1
  O  O256  1  0.46953788  0.84444337  0.47948045  1
  O  O257  1  0.46335033  0.85265646  0.99077474  1
  O  O258  1  0.99790364  0.34345700  0.48712070  1
  O  O259  1  0.94307212  0.38083921  0.94666950  1
  O  O260  1  1.01247269  0.89483400  0.49736512  1
  O  O261  1  0.98831021  0.94303233  0.97982145  1
  O  O262  1  0.49315950  0.55856360  0.35936029  1
  O  O263  1  0.56208731  0.41177739  0.81964230  1
  O  O264  1  0.45593226  0.96834327  0.37360214  1
  O  O265  1  0.47320655  0.95481784  0.86467068  1
  O  O266  1  0.97528178  0.42769666  0.36151397  1
  O  O267  1  0.93642668  0.52183368  0.90446217  1
  O  O268  1  1.04774249  0.98874655  0.37306439  1
  O  O269  1  0.98045881  0.90479394  0.80161996  1
  O  O270  1  0.09638324  0.02202133  0.13783648  1
  O  O271  1  -0.01525708  -0.00547412  0.64193761  1
  O  O272  1  0.04971379  0.57513671  0.13173255  1
  O  O273  1  0.03387689  0.50597410  0.71245412  1
  O  O274  1  0.48642820  -0.01522571  0.13218651  1
  O  O275  1  0.54613310  -0.03713439  0.64974236  1
  O  O276  1  0.51523946  0.56967850  0.15935607  1
  O  O277  1  0.49533961  0.52272823  0.60193785  1
  O  O278  1  0.23402058  0.44421723  0.27109456  1
  O  O279  1  0.24181915  0.37819308  0.68206449  1
  O  O280  1  0.18531821  0.87477469  0.34774679  1
  O  O281  1  0.24570033  0.87111078  0.72601606  1
  O  O282  1  0.82124293  0.36836148  0.23445486  1
  O  O283  1  0.89450315  0.48244109  0.64806976  1
  O  O284  1  0.79648633  0.89993016  0.19918157  1
  O  O285  1  0.71468840  0.90741209  0.76578103  1
  O  O286  1  0.28422578  0.16845740  0.23489791  1
  O  O287  1  0.28922684  0.12921706  0.75729294  1
  O  O288  1  0.18878323  0.62227961  0.30730308  1
  O  O289  1  0.32389045  0.58423223  0.76212671  1
  O  O290  1  0.76972727  0.20640598  0.31853104  1
  O  O291  1  0.74530745  0.10243258  0.76093450  1
  O  O292  1  0.75377643  0.53255502  0.24240678  1
  O  O293  1  0.72586288  0.63253388  0.79049149  1
  O  O294  1  0.44502370  0.12152826  0.41702439  1
  O  O295  1  0.39374396  0.08034222  0.85853036  1
  O  O296  1  0.31048779  0.62876243  0.38283722  1
  O  O297  1  0.43912120  0.56791929  0.86974604  1
  O  O298  1  0.88858337  0.11205242  0.39025545  1
  O  O299  1  1.01359044  0.12350294  0.85224990  1
  O  O300  1  0.82166268  0.63667191  0.30048341  1
  O  O301  1  0.84552853  0.64774076  0.89704889  1
  O  O302  1  0.09379257  0.47314415  0.23846437  1
  O  O303  1  0.08018048  0.39922158  0.60329913  1
  O  O304  1  0.18999386  0.89985777  0.16828419  1
  O  O305  1  0.11763360  0.81919584  0.62365673  1
  O  O306  1  0.68052644  0.26972151  0.25439752  1
  O  O307  1  0.59592357  0.41402379  0.60898569  1
  O  O308  1  0.58917187  0.88478579  0.11059055  1
  O  O309  1  0.60412823  0.82280270  0.61902297  1
  O  O310  1  0.23718502  0.28320305  0.36857321  1
  O  O311  1  0.04119734  0.27232874  0.69948447  1
  O  O312  1  0.08217065  0.72154852  0.27647861  1
  O  O313  1  0.07688225  0.66805315  0.69203630  1
  O  O314  1  0.69576664  0.21276750  0.29355406  1
  O  O315  1  0.73574888  0.26632291  0.77565524  1
  O  O316  1  0.56620227  0.76105051  0.25603181  1
  O  O317  1  0.57040621  0.72569194  0.76865032  1
  O  O318  1  0.35658327  0.31640270  0.23094496  1
  O  O319  1  0.41665635  0.21198327  0.78467781  1
  O  O320  1  0.29671572  0.76889752  0.06088113  1
  O  O321  1  0.37734766  0.73742915  0.74697618  1
  O  O322  1  0.92261040  0.20151678  0.22372593  1
  O  O323  1  0.91920976  0.22436903  0.78040384  1
  O  O324  1  0.89713612  0.79549469  0.24927321  1
  O  O325  1  0.79459996  0.76225525  0.67025420  1
  O  O326  1  0.40574494  0.49498665  0.47223654  1
  O  O327  1  0.42335610  0.47254976  1.05169166  1
  O  O328  1  0.35138080  1.02026447  0.49032092  1
  O  O329  1  0.35745575  0.98562934  0.96921331  1
  O  O330  1  1.03370836  0.54300169  0.56075392  1
  O  O331  1  0.82438668  0.46823127  1.00156210  1
  O  O332  1  0.82375561  0.99456835  0.49183074  1
  O  O333  1  0.93243010  0.96321670  1.01943107  1
  O  O334  1  0.22338493  0.00567040  0.06146319  1
  O  O335  1  0.14832174  -0.01867494  0.49206125  1
  O  O336  1  0.26896677  0.46637275  -0.02195719  1
  O  O337  1  0.13651463  0.42640745  0.56637877  1
  O  O338  1  0.59764559  -0.02109827  0.02163172  1
  O  O339  1  0.58624198  -0.06380207  0.59907883  1
  O  O340  1  0.57804255  0.52871337  -0.00989354  1
  O  O341  1  0.57402342  0.50487046  0.48259562  1
  O  O342  1  0.25560180  0.44493283  0.11663981  1
  O  O343  1  0.43141303  0.36844161  0.57113198  1
  O  O344  1  0.30942658  0.80791566  0.11669627  1
  O  O345  1  0.39370415  0.89024242  0.59611377  1
  O  O346  1  0.96624428  0.31497872  0.12094663  1
  O  O347  1  0.87087501  0.29654186  0.64823290  1
  O  O348  1  0.90437592  0.91443623  0.07119063  1
  O  O349  1  0.84576976  0.87947286  0.58438417  1
  O  O350  1  0.13502082  0.12875808  0.42639542  1
  O  O351  1  0.13931014  0.18432828  0.78358024  1
  O  O352  1  0.12098159  0.65192913  0.44536111  1
  O  O353  1  0.16491630  0.65389197  0.98696117  1
  O  O354  1  0.64523615  0.10087515  0.47288395  1
  O  O355  1  0.57441612  0.10892587  0.89592482  1
  O  O356  1  0.63935753  0.61403087  0.30333471  1
  O  O357  1  0.58657089  0.64020119  0.88369357  1
