# generated using pymatgen
data_V51Zn51O256
_symmetry_space_group_name_H-M   'P 1'
_cell_length_a   17.57331774
_cell_length_b   17.55402223
_cell_length_c   17.45159164
_cell_angle_alpha   89.66170918
_cell_angle_beta   91.14906168
_cell_angle_gamma   90.07150577
_symmetry_Int_Tables_number   1
_chemical_formula_structural   V51Zn51O256
_chemical_formula_sum   'V51 Zn51 O256'
_cell_volume   5382.32921421
_cell_formula_units_Z   1
loop_
 _symmetry_equiv_pos_site_id
 _symmetry_equiv_pos_as_xyz
  1  'x, y, z'
loop_
 _atom_site_type_symbol
 _atom_site_label
 _atom_site_symmetry_multiplicity
 _atom_site_fract_x
 _atom_site_fract_y
 _atom_site_fract_z
 _atom_site_occupancy
  V  V0  1  0.14885183  0.87316652  0.24714609  1
  V  V1  1  0.50328843  0.48309460  0.50939776  1
  V  V2  1  0.12379401  0.50158353  0.13617678  1
  V  V3  1  0.86903080  -0.02239276  0.34258086  1
  V  V4  1  0.01476061  0.51236829  -0.00753713  1
  V  V5  1  0.35414222  0.51935862  0.41499994  1
  V  V6  1  -0.03952009  0.43483699  0.47614081  1
  V  V7  1  0.22452844  0.34049860  0.63183557  1
  V  V8  1  -0.01180239  0.34888675  0.87276914  1
  V  V9  1  0.55935106  0.29264096  0.25212419  1
  V  V10  1  0.45396471  0.07094766  0.49360710  1
  V  V11  1  0.26143938  0.38050582  0.13982497  1
  V  V12  1  0.77544631  0.72958419  0.46903495  1
  V  V13  1  0.89047127  0.61523102  0.23783868  1
  V  V14  1  0.30786065  0.79218234  0.53480412  1
  V  V15  1  0.09468826  0.62104170  0.49966183  1
  V  V16  1  0.76931642  0.58011995  0.34871029  1
  V  V17  1  0.46793973  0.38490574  0.88921044  1
  V  V18  1  0.54458558  0.61037691  0.64611082  1
  V  V19  1  0.66977650  0.63112690  -0.02169260  1
  V  V20  1  0.73630349  0.88878821  0.59719784  1
  V  V21  1  0.24262400  0.65599032  0.87135397  1
  V  V22  1  0.22958525  0.28129612  -0.00281141  1
  V  V23  1  0.65520135  0.47821126  0.62604215  1
  V  V24  1  0.88494608  0.23301555  0.61492487  1
  V  V25  1  0.74730005  0.85427583  0.14564396  1
  V  V26  1  0.45088682  0.53282582  -0.00866334  1
  V  V27  1  0.15659420  0.00594984  0.13406792  1
  V  V28  1  0.64376702  0.36432884  0.78571134  1
  V  V29  1  0.49785106  0.71139356  0.22315545  1
  V  V30  1  0.89585218  0.50375840  0.85895758  1
  V  V31  1  0.11473584  0.38726937  0.75984229  1
  V  V32  1  0.11602437  0.14405405  0.52409312  1
  V  V33  1  -0.01329962  -0.00108172  0.48783403  1
  V  V34  1  0.48222730  0.20605001  0.61143439  1
  V  V35  1  0.37070020  0.00798709  0.90069605  1
  V  V36  1  0.81074418  0.11445779  0.77307094  1
  V  V37  1  -0.02862470  0.00356433  0.05185941  1
  V  V38  1  0.26251559  0.76219312  0.00856553  1
  V  V39  1  0.48956860  0.25524928  0.77442813  1
  V  V40  1  0.58727816  0.75922180  0.87034323  1
  V  V41  1  0.76530290  0.50535821  0.75847725  1
  V  V42  1  -0.07604347  0.83422289  0.95325462  1
  V  V43  1  0.00618079  0.86936902  0.35938923  1
  V  V44  1  0.01456417  0.19376479  0.75887711  1
  V  V45  1  -0.00380900  0.24885186  0.21909917  1
  V  V46  1  0.01257864  0.75441021  0.22730211  1
  V  V47  1  0.76324985  0.38994372  0.10217135  1
  V  V48  1  0.86879607  0.74595898  0.11474101  1
  V  V49  1  0.37129019  0.12390004  0.73555188  1
  V  V50  1  0.53490456  0.82205051  0.37281334  1
  Zn  Zn51  1  0.32546995  0.80954711  0.19893447  1
  Zn  Zn52  1  0.25064932  0.55465203  0.02522165  1
  Zn  Zn53  1  0.29812145  0.16658823  0.55784878  1
  Zn  Zn54  1  0.70264423  0.45338337  0.92371096  1
  Zn  Zn55  1  0.17604625  0.44075248  0.91956455  1
  Zn  Zn56  1  0.61027775  0.72309003  0.10281124  1
  Zn  Zn57  1  0.09993800  0.55770219  0.85065563  1
  Zn  Zn58  1  0.45960867  0.22819219  0.41428707  1
  Zn  Zn59  1  0.35783920  0.33947562  0.29396924  1
  Zn  Zn60  1  0.80595237  0.05014914  0.14963185  1
  Zn  Zn61  1  0.21165148  0.68694074  0.64480555  1
  Zn  Zn62  1  0.38502959  0.75390944  0.86486453  1
  Zn  Zn63  1  0.16460029  0.96164775  0.95507337  1
  Zn  Zn64  1  0.17459031  0.20655845  0.16137606  1
  Zn  Zn65  1  0.18519312  0.16558004  0.69377539  1
  Zn  Zn66  1  0.66146971  0.84884649  1.00621128  1
  Zn  Zn67  1  0.45350600  0.67353529  0.48386481  1
  Zn  Zn68  1  0.56451204  0.55627769  0.32304245  1
  Zn  Zn69  1  0.76161419  0.23305404  0.22244190  1
  Zn  Zn70  1  0.60564526  0.32395330  0.56480590  1
  Zn  Zn71  1  0.82674095  0.79019149  0.29775750  1
  Zn  Zn72  1  0.56078174  0.81345928  0.66790950  1
  Zn  Zn73  1  0.29825918  0.30748200  0.81815331  1
  Zn  Zn74  1  0.79162754  0.03686477  0.48924880  1
  Zn  Zn75  1  0.06727792  0.83659368  0.06772853  1
  Zn  Zn76  1  0.83862376  0.30204090  0.77042141  1
  Zn  Zn77  1  0.09046565  0.59933998  0.30787715  1
  Zn  Zn78  1  0.03916200  0.30861520  0.58759956  1
  Zn  Zn79  1  0.67335455  0.59624928  0.19296347  1
  Zn  Zn80  1  0.84365920  0.57659582  0.03721593  1
  Zn  Zn81  1  0.50359048  0.40178248  0.67915254  1
  Zn  Zn82  1  0.92924652  0.41405944  0.67601587  1
  Zn  Zn83  1  0.35602536  -0.00605919  0.09801549  1
  Zn  Zn84  1  0.03797524  0.03864019  0.25761992  1
  Zn  Zn85  1  0.38699663  0.20000409  0.89970966  1
  Zn  Zn86  1  0.71813402  0.88245959  0.40393854  1
  Zn  Zn87  1  0.77748290  0.87264770  0.81598111  1
  Zn  Zn88  1  -0.05088908  0.09153552  0.88518070  1
  Zn  Zn89  1  0.89083832  0.97790480  0.65604905  1
  Zn  Zn90  1  0.50137421  0.10649712  0.29922567  1
  Zn  Zn91  1  0.81270239  0.37777752  0.36391743  1
  Zn  Zn92  1  0.54839721  0.39589010  0.07004670  1
  Zn  Zn93  1  0.64467211  0.19105746  0.70414830  1
  Zn  Zn94  1  0.57770693  0.55849778  0.83522397  1
  Zn  Zn95  1  0.18085274  0.45750192  0.48575252  1
  Zn  Zn96  1  0.93703931  0.68309303  0.42101711  1
  Zn  Zn97  1  0.45360695  0.72896959  1.01547775  1
  Zn  Zn98  1  0.07450341  0.33945914  0.04709243  1
  Zn  Zn99  1  0.47214906  -0.00831147  0.62736618  1
  Zn  Zn100  1  0.92498436  0.92419280  0.18777931  1
  Zn  Zn101  1  0.44039650  0.89678839  0.77044638  1
  O  O102  1  0.15036863  0.10343479  0.13998432  1
  O  O103  1  0.12097499  0.11425695  0.61749266  1
  O  O104  1  0.15540394  0.57662113  0.08159874  1
  O  O105  1  0.12461178  0.67709274  0.57896107  1
  O  O106  1  0.54806181  0.06308659  0.06356837  1
  O  O107  1  0.58668924  0.21972287  0.61525023  1
  O  O108  1  0.65870339  0.61118919  0.07580758  1
  O  O109  1  0.64186411  0.58223327  0.63605133  1
  O  O110  1  0.39433212  0.43569367  0.34918893  1
  O  O111  1  0.37278672  0.37378215  0.87539028  1
  O  O112  1  0.44391244  0.88725920  0.35545715  1
  O  O113  1  0.29413265  0.94202477  0.86780598  1
  O  O114  1  0.90398542  0.37310886  0.42469711  1
  O  O115  1  0.89094902  0.35745024  0.85152207  1
  O  O116  1  0.88531593  0.87924878  0.34884601  1
  O  O117  1  0.85591366  0.87312864  0.89127613  1
  O  O118  1  0.28195482  0.02806925  0.33649870  1
  O  O119  1  0.25401095  0.00596493  0.89979980  1
  O  O120  1  0.25918427  0.50574783  0.42513888  1
  O  O121  1  0.20538782  0.54796871  0.90541624  1
  O  O122  1  0.77532267  -0.02300520  0.38601744  1
  O  O123  1  0.70128417  -0.02167821  0.81232117  1
  O  O124  1  0.78987033  0.48645040  0.35351132  1
  O  O125  1  0.79018760  0.48612026  0.86560926  1
  O  O126  1  0.23859181  0.48106886  0.12966945  1
  O  O127  1  0.28407714  0.43429130  0.65924703  1
  O  O128  1  0.25039684  0.98934238  0.11961519  1
  O  O129  1  0.23098331  0.98278706  0.66140971  1
  O  O130  1  0.78087068  0.48914311  0.08710050  1
  O  O131  1  0.75289262  0.47243035  0.65880462  1
  O  O132  1  0.73469029  0.95855882  0.11624682  1
  O  O133  1  0.74334331  0.98397672  0.57167210  1
  O  O134  1  -0.02030404  0.34633065  0.21821962  1
  O  O135  1  0.01361990  0.36949904  0.74739982  1
  O  O136  1  -0.00601452  0.85950068  0.24818229  1
  O  O137  1  -0.00773367  0.80298103  0.59501300  1
  O  O138  1  0.60088061  0.37396777  0.28869055  1
  O  O139  1  0.50842782  0.37764750  0.78985412  1
  O  O140  1  0.54537241  0.79008139  0.28035101  1
  O  O141  1  0.49758264  0.90226544  0.68110431  1
  O  O142  1  0.53026969  0.19138965  0.23531823  1
  O  O143  1  0.49605491  0.16320463  0.73871921  1
  O  O144  1  0.49087157  0.62774786  0.27427355  1
  O  O145  1  0.52355997  0.58514734  0.74000302  1
  O  O146  1  1.01645355  0.14648243  0.23826068  1
  O  O147  1  0.99572375  0.10132144  0.78588245  1
  O  O148  1  1.00349886  0.65457263  0.25314776  1
  O  O149  1  1.00398981  0.60966539  0.70710517  1
  O  O150  1  0.43932872  0.18796446  0.02712289  1
  O  O151  1  0.37542967  0.25327137  0.35381150  1
  O  O152  1  0.35751726  0.77751123  -0.02440217  1
  O  O153  1  0.40397228  0.75461762  0.54788281  1
  O  O154  1  0.75442289  0.12881575  0.02018551  1
  O  O155  1  0.91073184  0.25829388  0.52970395  1
  O  O156  1  0.88809620  0.75858445  0.01448973  1
  O  O157  1  0.86898056  0.74248728  0.48857092  1
  O  O158  1  0.08113534  0.23547211  0.52040658  1
  O  O159  1  0.13615270  0.26003223  0.98954480  1
  O  O160  1  0.21980205  0.81914983  0.49667711  1
  O  O161  1  0.15284468  0.80012369  0.99877520  1
  O  O162  1  0.67837564  0.25870702  0.50654802  1
  O  O163  1  0.61909014  0.19677130  1.04067620  1
  O  O164  1  0.66874252  0.71312460  0.52105271  1
  O  O165  1  0.63575634  0.73417942  0.99102942  1
  O  O166  1  0.55140159  0.32109971  0.15430103  1
  O  O167  1  0.46784741  0.29450299  0.67196342  1
  O  O168  1  0.49554002  0.72767815  0.11800475  1
  O  O169  1  0.54552560  0.70742480  0.64017251  1
  O  O170  1  1.03022122  0.25920271  0.11864642  1
  O  O171  1  0.98413775  0.22041235  0.66022678  1
  O  O172  1  1.00103277  0.76263945  0.12716764  1
  O  O173  1  0.85930408  0.66729918  0.65677112  1
  O  O174  1  -0.03312425  0.25579244  0.31212905  1
  O  O175  1  -0.01085688  0.24603152  0.83964832  1
  O  O176  1  -0.00801196  0.77171271  0.36622157  1
  O  O177  1  -0.01003764  0.79524258  0.90336296  1
  O  O178  1  0.54734879  0.26513391  0.35148519  1
  O  O179  1  0.48234086  0.25937297  0.87602671  1
  O  O180  1  0.51572158  0.74812587  0.43175917  1
  O  O181  1  0.49648327  0.76399832  0.91197903  1
  O  O182  1  0.20851996  0.15048391  0.49390193  1
  O  O183  1  0.40612980  0.22388135  1.07779293  1
  O  O184  1  0.26663895  0.69542034  0.53640749  1
  O  O185  1  0.24984606  0.66368115  0.98773813  1
  O  O186  1  0.83569347  0.16128741  0.39193156  1
  O  O187  1  0.61300142  0.03872673  1.07453313  1
  O  O188  1  0.77406470  0.63308898  0.44240889  1
  O  O189  1  0.76621626  0.62748403  0.97235047  1
  O  O190  1  0.24006279  0.37792750  -0.01468582  1
  O  O191  1  0.21907551  0.36791730  0.53785549  1
  O  O192  1  0.21054855  0.85962962  -0.01046005  1
  O  O193  1  0.31926913  0.88105987  0.57237954  1
  O  O194  1  0.75431840  0.38063436  -0.00099876  1
  O  O195  1  0.72564763  0.28108439  0.45116006  1
  O  O196  1  0.74931655  0.92122573  0.04415051  1
  O  O197  1  0.75383864  0.84110677  0.51090709  1
  O  O198  1  0.11481515  0.52835791  0.23019610  1
  O  O199  1  0.12322192  0.48391986  0.76582455  1
  O  O200  1  0.13600585  0.98437268  0.24054051  1
  O  O201  1  0.11363992  0.93739766  0.80410422  1
  O  O202  1  0.60411968  0.51839013  0.22638352  1
  O  O203  1  0.66012637  0.47612211  0.77421984  1
  O  O204  1  0.57481537  1.02123720  0.27321969  1
  O  O205  1  0.64176938  0.97716103  0.77241333  1
  O  O206  1  0.40885190  0.06774893  0.24163973  1
  O  O207  1  0.40449792  0.03559890  0.70961364  1
  O  O208  1  0.37975408  0.50454241  0.31066511  1
  O  O209  1  0.28946236  0.58418137  0.65378399  1
  O  O210  1  0.85464945  -0.00419067  0.24376109  1
  O  O211  1  0.83279740  0.03287317  0.72332505  1
  O  O212  1  0.92060035  0.52849577  0.23212577  1
  O  O213  1  0.87299311  0.47764453  0.75101327  1
  O  O214  1  0.07093227  0.41407920  0.43241263  1
  O  O215  1  0.10671494  0.36139033  0.85856092  1
  O  O216  1  0.10447084  0.88017285  0.34626679  1
  O  O217  1  -0.00975899  0.85103174  0.75961576  1
  O  O218  1  0.72239129  0.35412536  0.43129535  1
  O  O219  1  0.63425676  0.37542235  0.88268559  1
  O  O220  1  0.60966993  0.87763316  0.39960520  1
  O  O221  1  0.63176558  0.86230446  0.89948867  1
  O  O222  1  0.39913455  0.08489428  0.16950744  1
  O  O223  1  0.38243992  0.17120205  0.63943299  1
  O  O224  1  0.29013894  0.60482057  0.23292125  1
  O  O225  1  0.35880827  0.58928578  0.66867878  1
  O  O226  1  0.75895541  0.13502954  0.19098981  1
  O  O227  1  0.84209865  0.12909211  0.57683103  1
  O  O228  1  0.88035795  0.64072051  0.12307913  1
  O  O229  1  0.85579226  0.61321327  0.61318812  1
  O  O230  1  0.24191610  0.27023438  0.10237906  1
  O  O231  1  0.24234097  0.24195187  0.62755290  1
  O  O232  1  0.27747365  0.76611728  0.10459384  1
  O  O233  1  0.28928555  0.76879505  0.63968898  1
  O  O234  1  0.75398728  0.29178820  0.12339558  1
  O  O235  1  0.78826145  0.18398016  0.59465613  1
  O  O236  1  0.77022100  0.74858365  0.11671081  1
  O  O237  1  0.72369736  0.70779798  0.57185252  1
  O  O238  1  0.23829904  0.19824520  0.32647219  1
  O  O239  1  0.28635455  0.23760968  0.92535825  1
  O  O240  1  0.34439237  0.79839024  0.44316907  1
  O  O241  1  0.23120783  0.75116332  0.87882838  1
  O  O242  1  0.80960983  0.29808365  0.28941681  1
  O  O243  1  0.77170033  0.18114802  0.97709303  1
  O  O244  1  0.75493524  0.77538066  0.37830501  1
  O  O245  1  0.69316324  0.81301940  0.86783615  1
  O  O246  1  -0.00840597  0.07040052  -0.01744116  1
  O  O247  1  0.03364454  0.09839874  0.45935298  1
  O  O248  1  0.04748072  0.59095726  -0.05355519  1
  O  O249  1  -0.00115274  0.63664675  0.49750342  1
  O  O250  1  0.61196916  0.22806300  -0.02211037  1
  O  O251  1  0.46076167  0.24055513  0.52321766  1
  O  O252  1  0.47836685  0.62533896  -0.01438880  1
  O  O253  1  0.49241045  0.59531121  0.55192168  1
  O  O254  1  0.52911180  0.38692563  0.51176940  1
  O  O255  1  0.49905056  0.35875381  0.98020022  1
  O  O256  1  0.46282108  0.97581105  0.51017753  1
  O  O257  1  0.46705636  0.89934355  1.17956732  1
  O  O258  1  0.97897847  0.40121499  0.57586561  1
  O  O259  1  0.98959183  0.33252193  0.96812828  1
  O  O260  1  1.00151364  0.90339943  0.46080943  1
  O  O261  1  0.97773326  0.90153444  1.01843140  1
  O  O262  1  0.53229966  0.51683076  0.42250546  1
  O  O263  1  0.48224053  0.48851375  0.89819606  1
  O  O264  1  0.45104252  0.95977842  0.35087971  1
  O  O265  1  0.44173865  0.95267426  0.86581113  1
  O  O266  1  1.02994493  0.47076309  0.39705627  1
  O  O267  1  0.99242295  0.46287444  0.87413022  1
  O  O268  1  0.98020877  0.98711076  0.33726665  1
  O  O269  1  0.95918245  0.91423905  0.75737471  1
  O  O270  1  0.00216577  0.00393612  0.15089880  1
  O  O271  1  -0.03276977  -0.00536910  0.58295761  1
  O  O272  1  0.02152134  0.51596876  0.09396780  1
  O  O273  1  -0.00157455  0.56325801  0.65525478  1
  O  O274  1  0.50694228  -0.05842817  0.13739314  1
  O  O275  1  0.50038466  0.10073350  0.58332906  1
  O  O276  1  0.50114383  0.49188957  0.06788804  1
  O  O277  1  0.53454782  0.48777750  0.62028053  1
  O  O278  1  0.26790966  0.36011505  0.23762400  1
  O  O279  1  0.21639816  0.34537564  0.75562090  1
  O  O280  1  0.24318465  0.85770058  0.25876985  1
  O  O281  1  0.14109723  0.79039829  0.70958068  1
  O  O282  1  0.75341196  0.41677427  0.19730672  1
  O  O283  1  0.73428731  0.33481292  0.77689202  1
  O  O284  1  0.74788852  0.85749346  0.24168991  1
  O  O285  1  0.77457190  0.86480873  0.70211500  1
  O  O286  1  0.24602277  0.17440165  0.25987704  1
  O  O287  1  0.27497988  0.11557370  0.73357580  1
  O  O288  1  0.24384299  0.65589677  0.24244952  1
  O  O289  1  0.20649902  0.64487656  0.75933747  1
  O  O290  1  0.63734099  0.03129773  0.24057563  1
  O  O291  1  0.71416304  0.13536084  0.76172254  1
  O  O292  1  0.78039980  0.60324220  0.24054500  1
  O  O293  1  0.76204443  0.59688274  0.75354227  1
  O  O294  1  0.49111687  0.11592898  0.40713454  1
  O  O295  1  0.38342295  0.09803986  0.85222523  1
  O  O296  1  0.37879184  0.61296763  0.42332175  1
  O  O297  1  0.33681929  0.64958476  0.85173456  1
  O  O298  1  0.84422866  0.12013153  0.33466222  1
  O  O299  1  0.84091068  0.09952727  0.86703297  1
  O  O300  1  0.87682195  0.63190708  0.34055100  1
  O  O301  1  0.90930470  0.59346731  0.84246543  1
  O  O302  1  0.13229347  0.39410980  0.12853374  1
  O  O303  1  0.12356696  0.35504267  0.65194511  1
  O  O304  1  0.13291727  0.87967134  0.14697567  1
  O  O305  1  0.09754521  0.97585272  0.74480567  1
  O  O306  1  0.65965109  0.39938406  0.08620264  1
  O  O307  1  0.62341248  0.38009243  0.66524470  1
  O  O308  1  0.65076732  0.83223224  0.11572726  1
  O  O309  1  0.64618440  0.86442628  0.61935639  1
  O  O310  1  0.10034495  0.25018788  0.23414233  1
  O  O311  1  0.11063415  0.20588691  0.75961460  1
  O  O312  1  0.10975039  0.76890820  0.24472072  1
  O  O313  1  0.12727027  0.84588034  0.66742396  1
  O  O314  1  0.65252368  0.25305171  0.24015412  1
  O  O315  1  0.59683191  0.26714603  0.77239313  1
  O  O316  1  0.60810060  0.68414808  0.20641129  1
  O  O317  1  0.56671817  0.78195587  0.77893447  1
  O  O318  1  0.46278367  0.32451440  0.25033279  1
  O  O319  1  0.37552207  0.23259735  0.78047678  1
  O  O320  1  0.40653565  0.74738467  0.23796605  1
  O  O321  1  0.37373583  0.81505432  0.77826844  1
  O  O322  1  0.91259319  0.21575986  0.17492631  1
  O  O323  1  0.86260079  0.19431457  0.74166721  1
  O  O324  1  0.89189602  0.74034881  0.22577784  1
  O  O325  1  0.99005828  0.74947122  0.63995629  1
  O  O326  1  0.40176603  0.47592104  0.49886901  1
  O  O327  1  0.35501835  0.52706744  1.00625140  1
  O  O328  1  0.36088003  1.09573468  0.49865208  1
  O  O329  1  0.38685173  1.01817672  0.99769837  1
  O  O330  1  0.91099665  0.51301100  0.48398888  1
  O  O331  1  0.90821562  0.51165153  0.97581677  1
  O  O332  1  0.89511277  1.02439861  0.44725943  1
  O  O333  1  0.87767552  1.02028330  1.06938332  1
  O  O334  1  0.10836728  -0.01337770  0.04436576  1
  O  O335  1  0.08903261  0.03548652  0.47814127  1
  O  O336  1  0.08848450  0.44383913  -0.01094297  1
  O  O337  1  0.11584645  0.52973020  0.53048831  1
  O  O338  1  0.57788748  0.06036718  -0.09428279  1
  O  O339  1  0.68990760  0.10974994  0.45509990  1
  O  O340  1  0.63754428  0.53960854  -0.06321991  1
  O  O341  1  0.66291185  0.46445905  0.53420652  1
  O  O342  1  0.34945969  0.38080421  0.11044727  1
  O  O343  1  0.33213399  0.37584430  0.65495713  1
  O  O344  1  0.38453737  0.90327284  0.16061580  1
  O  O345  1  0.25694163  0.94792403  0.71704958  1
  O  O346  1  0.86030521  0.37456666  0.09876327  1
  O  O347  1  0.86035141  0.32146441  0.65981949  1
  O  O348  1  0.85844353  0.85400867  0.13353826  1
  O  O349  1  0.83798455  0.87348475  0.64793068  1
  O  O350  1  0.22414741  0.03910725  0.37331253  1
  O  O351  1  0.08564018  -0.03243163  0.87253070  1
  O  O352  1  0.12445342  0.63415089  0.40431211  1
  O  O353  1  0.14132614  0.65684559  0.80499612  1
  O  O354  1  0.67425917  0.12133683  0.38572404  1
  O  O355  1  0.64522215  0.07316320  0.92062889  1
  O  O356  1  0.67244707  0.58699338  0.34334314  1
  O  O357  1  0.61958754  0.66344364  0.86919716  1
