# generated using pymatgen
data_V51Zn51O256
_symmetry_space_group_name_H-M   'P 1'
_cell_length_a   17.85944221
_cell_length_b   17.83271621
_cell_length_c   17.49922952
_cell_angle_alpha   89.64579369
_cell_angle_beta   87.64869819
_cell_angle_gamma   90.32589780
_symmetry_Int_Tables_number   1
_chemical_formula_structural   V51Zn51O256
_chemical_formula_sum   'V51 Zn51 O256'
_cell_volume   5568.29883897
_cell_formula_units_Z   1
loop_
 _symmetry_equiv_pos_site_id
 _symmetry_equiv_pos_as_xyz
  1  'x, y, z'
loop_
 _atom_site_type_symbol
 _atom_site_label
 _atom_site_symmetry_multiplicity
 _atom_site_fract_x
 _atom_site_fract_y
 _atom_site_fract_z
 _atom_site_occupancy
  V  V0  1  0.55955647  0.89799984  0.89220783  1
  V  V1  1  0.33273052  0.23906158  0.10964758  1
  V  V2  1  0.54862941  0.45151055  0.02884472  1
  V  V3  1  0.58544287  0.88471644  0.27679051  1
  V  V4  1  0.37079871  0.52168046  0.84472746  1
  V  V5  1  0.00450294  0.65073397  0.02956982  1
  V  V6  1  0.62138529  0.72871078  0.87999570  1
  V  V7  1  0.62711865  0.11892636  0.49411054  1
  V  V8  1  0.73752303  0.60654785  0.37591401  1
  V  V9  1  0.85603028  0.27047035  0.65046004  1
  V  V10  1  0.79072139  0.03108198  0.70922821  1
  V  V11  1  0.85046314  0.73330154  0.56673614  1
  V  V12  1  0.41072965  0.24330470  0.67132215  1
  V  V13  1  0.70483291  0.82281960  0.65428322  1
  V  V14  1  0.13298622  0.23993097  0.34667939  1
  V  V15  1  0.48469664  0.75919600  0.22907351  1
  V  V16  1  0.75700323  0.47894908  0.77992470  1
  V  V17  1  0.87464559  0.49900173  0.36727543  1
  V  V18  1  0.64491876  -0.01459069  0.14083987  1
  V  V19  1  -0.02395496  0.63408998  0.59727104  1
  V  V20  1  0.57319964  0.33236713  0.89236875  1
  V  V21  1  0.31862884  0.41755896  0.15840223  1
  V  V22  1  0.22899238  -0.03044643  0.23459442  1
  V  V23  1  0.65510874  0.00623582  0.62850740  1
  V  V24  1  0.00861419  0.01149610  -0.02517108  1
  V  V25  1  0.91531566  0.39335869  0.02711177  1
  V  V26  1  0.12910002  0.38048226  0.22866596  1
  V  V27  1  0.75926626  0.13489526  0.37395626  1
  V  V28  1  0.45187145  0.27254837  0.32272820  1
  V  V29  1  0.49600579  -0.00098490  0.56785404  1
  V  V30  1  0.00439069  0.21888934  0.21858862  1
  V  V31  1  0.37256637  0.03835819  0.88943162  1
  V  V32  1  0.41346140  0.65139191  0.71188557  1
  V  V33  1  0.86145433  0.62798082  0.76409478  1
  V  V34  1  0.10806536  0.72828957  0.34396758  1
  V  V35  1  0.63000807  0.14155981  0.06802858  1
  V  V36  1  0.53568406  0.41779751  0.41252645  1
  V  V37  1  0.27996699  0.52129111  0.39434854  1
  V  V38  1  0.05485523  0.47851966  -0.02982124  1
  V  V39  1  0.74994659  0.36563258  0.57908147  1
  V  V40  1  0.71466878  0.59367230  0.89557953  1
  V  V41  1  0.76180541  -0.03349141  0.29208462  1
  V  V42  1  0.63207909  0.48220732  0.60789564  1
  V  V43  1  0.24632466  0.52060697  0.72437784  1
  V  V44  1  0.73434852  0.78442486  0.06328812  1
  V  V45  1  0.04800059  0.46839681  0.54086760  1
  V  V46  1  0.12129850  0.03919306  0.08273409  1
  V  V47  1  0.84935101  0.89652862  -0.01243080  1
  V  V48  1  0.09712211  0.88203555  0.17619466  1
  V  V49  1  0.18631861  0.26624639  0.87780077  1
  V  V50  1  0.35157442  0.88428375  -0.00870149  1
  Zn  Zn51  1  0.81678458  0.13715935  0.55854656  1
  Zn  Zn52  1  0.37166822  0.66029461  0.29474270  1
  Zn  Zn53  1  0.23227727  0.46483571  0.92786891  1
  Zn  Zn54  1  0.91667154  0.66811717  0.40895804  1
  Zn  Zn55  1  0.40345532  0.90695866  0.18339137  1
  Zn  Zn56  1  0.45102901  0.16502763  0.48567189  1
  Zn  Zn57  1  0.63121329  0.07964626  0.82665128  1
  Zn  Zn58  1  0.78463021  0.79077525  0.82628395  1
  Zn  Zn59  1  0.60349849  0.89472056  0.47794051  1
  Zn  Zn60  1  0.38852273  0.51139075  0.02386379  1
  Zn  Zn61  1  0.72161255  0.41152598  0.96500302  1
  Zn  Zn62  1  0.62005270  0.08489198  0.28151755  1
  Zn  Zn63  1  0.69574712  0.18147430  0.68796698  1
  Zn  Zn64  1  0.75266211  0.78118847  0.42309008  1
  Zn  Zn65  1  0.85747762  0.67556638  0.95033197  1
  Zn  Zn66  1  0.24088714  0.20057601  0.73224019  1
  Zn  Zn67  1  0.44105929  0.76924976  0.86124409  1
  Zn  Zn68  1  0.90208392  0.35078962  0.80432286  1
  Zn  Zn69  1  0.50291801  0.96915459  0.76205331  1
  Zn  Zn70  1  0.31311513  0.62897439  0.56128827  1
  Zn  Zn71  1  0.60512941  0.65608281  0.68695872  1
  Zn  Zn72  1  0.51069619  0.61393878  0.94539805  1
  Zn  Zn73  1  0.16176463  0.60967140  0.58264006  1
  Zn  Zn74  1  0.30599586  0.06246693  0.08270121  1
  Zn  Zn75  1  0.27884482  0.81110169  0.26008417  1
  Zn  Zn76  1  0.84155148  0.29711195  0.33304834  1
  Zn  Zn77  1  0.69073989  0.73372141  0.25111498  1
  Zn  Zn78  1  0.90952655  0.90023031  0.17560779  1
  Zn  Zn79  1  0.06099238  0.45539247  0.76430364  1
  Zn  Zn80  1  -0.09610450  0.06402374  0.27527796  1
  Zn  Zn81  1  0.57246298  0.30547867  0.55817200  1
  Zn  Zn82  1  0.19885010  0.15400803  0.20194809  1
  Zn  Zn83  1  0.56425278  0.82191652  0.06923340  1
  Zn  Zn84  1  0.27914640  0.34806969  0.32060150  1
  Zn  Zn85  1  0.74781686  0.95419624  0.49515242  1
  Zn  Zn86  1  0.51651339  0.28364209  0.13269638  1
  Zn  Zn87  1  0.74929178  0.04953848  -0.01399030  1
  Zn  Zn88  1  0.21153118  0.97976099  0.94414391  1
  Zn  Zn89  1  0.94025563  0.37509872  0.23214381  1
  Zn  Zn90  1  0.49697914  0.40814285  0.73518744  1
  Zn  Zn91  1  0.45987077  0.18718178  0.98397648  1
  Zn  Zn92  1  0.08083267  0.30473848  0.05960957  1
  Zn  Zn93  1  0.80318466  0.55217914  0.53475598  1
  Zn  Zn94  1  0.54219317  0.59611519  0.33639196  1
  Zn  Zn95  1  0.07785063  0.51740735  0.34830507  1
  Zn  Zn96  1  0.91179216  0.45809033  0.66850147  1
  Zn  Zn97  1  0.70150551  0.44022749  0.43229363  1
  Zn  Zn98  1  0.84362251  0.53178338  0.03504499  1
  Zn  Zn99  1  0.00241020  0.83815616  0.01804380  1
  Zn  Zn100  1  0.03449604  0.33507991  0.47213730  1
  Zn  Zn101  1  0.41025890  0.46530969  0.31680707  1
  O  O102  1  0.13453603  0.12836463  0.10910762  1
  O  O103  1  0.24118200  0.11833066  0.55605183  1
  O  O104  1  0.04432076  0.68808785  0.12135392  1
  O  O105  1  0.06639051  0.65422339  0.61009896  1
  O  O106  1  0.61596966  0.08995466  0.16240238  1
  O  O107  1  0.64944669  0.10696794  0.60795542  1
  O  O108  1  0.74815931  0.60107510  0.14590631  1
  O  O109  1  0.64824503  0.57404987  0.63080544  1
  O  O110  1  0.31776347  0.42975319  0.38184440  1
  O  O111  1  0.42439531  0.45444775  0.80354784  1
  O  O112  1  0.31555663  0.80253341  0.38854220  1
  O  O113  1  0.41223826  0.94412892  0.91934158  1
  O  O114  1  0.87021666  0.40327457  0.31719858  1
  O  O115  1  0.92036918  0.34820560  0.91834497  1
  O  O116  1  0.96733860  0.89134256  0.48904329  1
  O  O117  1  0.84003394  0.84483557  0.90401873  1
  O  O118  1  0.19146765  -0.01658002  0.31921146  1
  O  O119  1  0.27715347  0.03502850  0.87409063  1
  O  O120  1  0.18610159  0.52264698  0.38334086  1
  O  O121  1  0.26283904  0.51513486  0.83188543  1
  O  O122  1  0.78386367  -0.03481713  0.38704281  1
  O  O123  1  0.79309730  0.04461381  0.81867501  1
  O  O124  1  0.76120281  0.50295546  0.36317918  1
  O  O125  1  0.70883120  0.49129083  0.88050717  1
  O  O126  1  0.31604740  0.49932585  0.10630067  1
  O  O127  1  0.13134670  0.51021545  0.55409755  1
  O  O128  1  0.21438430  1.01276744  0.05342062  1
  O  O129  1  0.26536001  0.93045527  0.66535559  1
  O  O130  1  0.79415534  0.54147700  0.14392351  1
  O  O131  1  0.75051182  0.46617755  0.58230526  1
  O  O132  1  0.73071503  0.98072503  0.17726304  1
  O  O133  1  0.75853279  0.99749977  0.60288113  1
  O  O134  1  0.04192376  0.32958743  0.25239566  1
  O  O135  1  -0.02831187  0.41003604  0.74355273  1
  O  O136  1  0.00925470  0.89141405  0.21857032  1
  O  O137  1  0.01732431  0.84968517  0.69455458  1
  O  O138  1  0.47750195  0.36882260  0.34478299  1
  O  O139  1  0.56496261  0.35144527  0.79665568  1
  O  O140  1  0.48225555  0.86256415  0.24606475  1
  O  O141  1  0.49535689  0.86741022  0.82448707  1
  O  O142  1  0.39552038  0.10637589  0.28302594  1
  O  O143  1  0.63357537  0.17065195  0.77523963  1
  O  O144  1  0.48485260  0.66963818  0.28477015  1
  O  O145  1  0.50431228  0.62208521  0.70811833  1
  O  O146  1  0.97659699  0.12581798  0.22802298  1
  O  O147  1  1.15807885  0.19691869  0.65954261  1
  O  O148  1  0.92517416  0.60736850  0.20496859  1
  O  O149  1  0.94108074  0.62574305  0.70088082  1
  O  O150  1  0.43094797  0.22679000  0.08825488  1
  O  O151  1  0.40785603  0.22835869  0.56706003  1
  O  O152  1  0.38349654  0.80265299  -0.05040888  1
  O  O153  1  0.35100141  0.83953537  0.53380969  1
  O  O154  1  0.90911318  0.29717550  -0.02313164  1
  O  O155  1  0.89208721  0.26730812  0.43507434  1
  O  O156  1  0.80662243  0.73509971  0.02348499  1
  O  O157  1  0.85116367  0.74443361  0.46559926  1
  O  O158  1  0.06329257  0.24947058  0.41777153  1
  O  O159  1  0.13740274  0.25253015  0.96848266  1
  O  O160  1  0.15528447  0.70358006  0.42431673  1
  O  O161  1  0.07007750  0.78260203  0.83767102  1
  O  O162  1  0.60618046  0.21028579  0.51338018  1
  O  O163  1  0.60676931  0.23021495  1.09228104  1
  O  O164  1  0.51075069  0.73963984  0.52453354  1
  O  O165  1  0.64746361  0.75913943  1.03040483  1
  O  O166  1  0.49649921  0.25119337  0.23714263  1
  O  O167  1  0.51025807  0.26225290  0.64687151  1
  O  O168  1  0.49993683  0.75095544  0.13412113  1
  O  O169  1  0.36085835  0.83991024  0.60242148  1
  O  O170  1  1.01789756  0.23786721  0.12389592  1
  O  O171  1  1.11537617  0.25328111  0.65709003  1
  O  O172  1  1.00529872  0.73669286  -0.01660987  1
  O  O173  1  0.94122921  0.73884159  0.59687645  1
  O  O174  1  0.01484142  0.08325558  0.40650746  1
  O  O175  1  0.09502471  0.28754852  0.84787818  1
  O  O176  1  0.00987368  0.71165533  0.36365048  1
  O  O177  1  0.06552838  0.71439323  0.81493818  1
  O  O178  1  0.47981608  0.21205450  0.39275752  1
  O  O179  1  0.51855926  0.25943287  0.92581348  1
  O  O180  1  0.33474518  0.73661592  0.40556683  1
  O  O181  1  0.52605825  0.72357769  0.92221218  1
  O  O182  1  0.24547043  0.07015723  0.60608919  1
  O  O183  1  0.29581486  0.17136813  1.05426487  1
  O  O184  1  0.22352817  0.68132808  0.52795391  1
  O  O185  1  0.25320374  0.69553529  0.90941250  1
  O  O186  1  0.74333806  0.12862075  0.47933796  1
  O  O187  1  0.72368883  0.14281277  1.03991334  1
  O  O188  1  0.73419262  0.61371496  0.47154972  1
  O  O189  1  0.77434606  0.58953177  0.97025898  1
  O  O190  1  0.31786848  0.33888900  0.09147964  1
  O  O191  1  0.22895702  0.30343072  0.52493943  1
  O  O192  1  0.25886035  0.88535868  -0.03322321  1
  O  O193  1  0.17918369  0.96713334  0.51327964  1
  O  O194  1  0.81716887  0.42218559  0.01336497  1
  O  O195  1  0.75430060  0.35095108  0.48392394  1
  O  O196  1  0.75780011  0.87939281  0.03368638  1
  O  O197  1  0.70249104  0.85486235  0.47920994  1
  O  O198  1  0.10042155  0.46931290  0.24494158  1
  O  O199  1  0.15077819  0.49684538  0.73257149  1
  O  O200  1  0.12513812  0.98326020  0.17356212  1
  O  O201  1  0.17217215  0.99163969  0.72176139  1
  O  O202  1  0.71882781  0.61568015  0.21528193  1
  O  O203  1  0.69055868  0.45788538  0.71928896  1
  O  O204  1  0.58772075  0.98293446  0.25487963  1
  O  O205  1  0.68383741  1.01122975  0.72558434  1
  O  O206  1  0.31616911  -0.07956448  0.25296979  1
  O  O207  1  0.41852867  0.02267604  0.80095357  1
  O  O208  1  0.33467873  0.56555328  0.31629390  1
  O  O209  1  0.35269134  0.57707416  0.74962659  1
  O  O210  1  0.85877130  -0.03095249  0.24839542  1
  O  O211  1  0.86851674  -0.01570193  0.70499072  1
  O  O212  1  0.90119459  0.67104537  0.19735840  1
  O  O213  1  0.83908318  0.52373004  0.72516558  1
  O  O214  1  0.17119331  0.33192628  0.32051163  1
  O  O215  1  0.21540516  0.35493033  0.90478363  1
  O  O216  1  0.09644642  0.81224864  0.39125179  1
  O  O217  1  0.05220247  0.88993807  0.73691430  1
  O  O218  1  0.62134180  0.39581794  0.37466796  1
  O  O219  1  0.66349360  0.33120097  0.92431367  1
  O  O220  1  0.56822568  0.88275656  0.37106455  1
  O  O221  1  0.63382355  0.83206068  0.87979331  1
  O  O222  1  0.41679863  0.06707045  0.13048009  1
  O  O223  1  0.42932347  0.14927551  0.68355909  1
  O  O224  1  0.31567289  0.68683479  0.08106712  1
  O  O225  1  0.38906863  0.67215882  0.61917193  1
  O  O226  1  0.84211165  0.21990368  0.10179581  1
  O  O227  1  0.89580377  0.21074996  0.58404203  1
  O  O228  1  0.91084060  0.62545936  0.03818344  1
  O  O229  1  0.82762826  0.64199195  0.59171580  1
  O  O230  1  0.28822116  0.22169794  0.19682018  1
  O  O231  1  0.31194840  0.24765429  0.65716323  1
  O  O232  1  0.21000288  0.74705730  -0.07721633  1
  O  O233  1  0.13892789  0.83905149  0.59512365  1
  O  O234  1  0.69988727  0.32318649  0.20995152  1
  O  O235  1  0.75494159  0.26614052  0.63723161  1
  O  O236  1  0.73600001  0.77632286  0.16072846  1
  O  O237  1  0.65416050  0.74395118  0.64262132  1
  O  O238  1  0.20207821  0.19107074  0.37856057  1
  O  O239  1  0.26140977  0.21849228  0.91547906  1
  O  O240  1  0.20032416  0.73382212  0.29507327  1
  O  O241  1  0.18641656  0.80627012  0.74031646  1
  O  O242  1  0.75874963  0.22600594  0.34400474  1
  O  O243  1  0.86317786  0.17090269  0.88226736  1
  O  O244  1  0.73925260  0.70994488  0.34460319  1
  O  O245  1  0.72276340  0.70807476  0.88693602  1
  O  O246  1  -0.12002882  0.17371982  0.06647969  1
  O  O247  1  0.09092655  0.08616834  0.55115504  1
  O  O248  1  0.05292067  0.58586072  -0.02663228  1
  O  O249  1  -0.03622041  0.62826426  0.49969383  1
  O  O250  1  0.54117894  0.10775395  0.01264419  1
  O  O251  1  0.52153270  0.08578608  0.51076361  1
  O  O252  1  0.49277523  0.53886375  0.03038185  1
  O  O253  1  0.48615555  0.72675569  0.46126585  1
  O  O254  1  0.51393768  0.36890432  0.49482279  1
  O  O255  1  0.51799656  0.38737790  1.09612577  1
  O  O256  1  0.50610723  0.91467526  0.52210678  1
  O  O257  1  0.53545580  0.88880955  0.98695483  1
  O  O258  1  0.91829971  0.32560457  0.46801503  1
  O  O259  1  1.02727986  0.38408207  1.01224135  1
  O  O260  1  0.94093821  1.03323163  0.55520924  1
  O  O261  1  0.97181898  0.92159597  0.95099276  1
  O  O262  1  0.49358241  0.50772317  0.37961005  1
  O  O263  1  0.53150103  0.41585222  0.93795100  1
  O  O264  1  0.34187988  1.03986488  0.44365730  1
  O  O265  1  0.57822406  0.98878583  0.85372733  1
  O  O266  1  0.96458351  0.51968872  0.33540692  1
  O  O267  1  1.05587389  0.46315088  0.87607425  1
  O  O268  1  0.98123769  0.93149620  0.43241842  1
  O  O269  1  0.97207815  1.08338390  0.93260709  1
  O  O270  1  0.01626705  0.02441758  0.07682105  1
  O  O271  1  0.07502222  0.05090700  0.61459681  1
  O  O272  1  0.04313277  0.61215206  0.12677334  1
  O  O273  1  -0.02492052  0.52050439  0.59716629  1
  O  O274  1  0.45345922  0.01225292  0.15758244  1
  O  O275  1  0.54483098  -0.00357025  0.65939191  1
  O  O276  1  0.58744475  0.51750305  0.20307641  1
  O  O277  1  0.54736037  0.45866065  0.65132806  1
  O  O278  1  0.24342668  0.40774430  0.22456885  1
  O  O279  1  0.28819974  0.44800350  0.68773503  1
  O  O280  1  0.19431630  0.86888566  0.20575559  1
  O  O281  1  0.20118052  0.81901919  0.57231427  1
  O  O282  1  0.73879352  0.35737726  0.16157146  1
  O  O283  1  0.80266688  0.39875963  0.80604744  1
  O  O284  1  0.69903008  0.89020737  0.28886793  1
  O  O285  1  0.72696937  0.83814689  0.74646270  1
  O  O286  1  0.25803955  0.05903000  0.19460606  1
  O  O287  1  0.29643145  0.11853236  0.74947372  1
  O  O288  1  0.25572579  0.71995518  0.07778355  1
  O  O289  1  0.24459553  0.59216237  0.65047013  1
  O  O290  1  0.73099271  0.06714015  0.29515679  1
  O  O291  1  0.79781486  0.12503021  0.67322516  1
  O  O292  1  0.87566661  0.80919980  0.31892570  1
  O  O293  1  0.75340181  0.59430849  0.79948192  1
  O  O294  1  0.35278660  0.10875169  0.44989194  1
  O  O295  1  0.40329222  0.12349307  0.92074825  1
  O  O296  1  0.30990451  0.55782478  0.47769554  1
  O  O297  1  0.42426033  0.59120758  0.88668269  1
  O  O298  1  0.85187555  0.11190725  0.36282568  1
  O  O299  1  0.73368401  0.06026426  0.86900118  1
  O  O300  1  0.84879187  0.60516375  0.35427547  1
  O  O301  1  0.89396539  0.63374518  0.85554743  1
  O  O302  1  0.14007019  0.35607785  0.13407758  1
  O  O303  1  0.04770333  0.37661578  0.57393607  1
  O  O304  1  0.08678221  0.85381058  0.08533134  1
  O  O305  1  0.23566103  0.95923123  0.72677912  1
  O  O306  1  0.63513906  0.46800446  0.20482624  1
  O  O307  1  0.65246804  0.36254059  0.60366230  1
  O  O308  1  0.60371471  0.89464257  0.14496485  1
  O  O309  1  0.64895476  0.89823235  0.62424946  1
  O  O310  1  0.10554141  0.19472400  0.25769703  1
  O  O311  1  0.23196207  0.30026857  0.78661569  1
  O  O312  1  0.08948071  0.77218793  0.25334639  1
  O  O313  1  0.21129990  0.74631269  0.71752917  1
  O  O314  1  0.44708794  0.06472347  0.29974022  1
  O  O315  1  0.80562780  0.20657182  0.89402967  1
  O  O316  1  0.58852251  0.77792492  0.25675604  1
  O  O317  1  0.60884551  0.70952466  0.78879971  1
  O  O318  1  0.35649287  0.27518447  0.32162557  1
  O  O319  1  0.40457126  0.24433200  0.77084011  1
  O  O320  1  0.37583706  0.75481081  0.24106158  1
  O  O321  1  0.40514063  0.73037433  0.76874586  1
  O  O322  1  0.91813679  0.26033026  0.25249121  1
  O  O323  1  0.88753157  0.26206671  0.74019082  1
  O  O324  1  0.86669854  0.80479154  0.24828120  1
  O  O325  1  0.82759016  0.71569783  0.75012869  1
  O  O326  1  0.23406051  0.36108682  0.56289935  1
  O  O327  1  0.34007666  0.47426656  0.93785935  1
  O  O328  1  0.40646183  1.00584268  0.58770303  1
  O  O329  1  0.35777412  1.00075969  0.99895803  1
  O  O330  1  0.87289162  0.49117862  0.46447269  1
  O  O331  1  0.94550839  0.48718585  0.99974843  1
  O  O332  1  0.88897334  1.04894467  0.51223266  1
  O  O333  1  0.83848889  0.99130461  0.97896864  1
  O  O334  1  0.10964164  0.01991319  -0.03394496  1
  O  O335  1  0.06596915  -0.02071352  0.61124735  1
  O  O336  1  0.14776351  0.47313531  -0.00539677  1
  O  O337  1  0.04267611  0.45188305  0.44198160  1
  O  O338  1  0.65905137  0.00672282  0.04505469  1
  O  O339  1  0.64139528  0.00500384  0.51401483  1
  O  O340  1  0.64206129  0.46524678  0.03349282  1
  O  O341  1  0.62077571  0.48220143  0.50716100  1
  O  O342  1  0.39461458  0.42234326  0.21487249  1
  O  O343  1  0.41749853  0.34509423  0.67844951  1
  O  O344  1  0.36474559  0.87510150  0.08897092  1
  O  O345  1  0.23472618  0.93348797  0.48927754  1
  O  O346  1  0.91730018  0.38650761  0.12493639  1
  O  O347  1  0.85560626  0.36758679  0.61893611  1
  O  O348  1  0.90225766  0.86685670  0.07252161  1
  O  O349  1  0.79535603  0.80820457  0.60347747  1
  O  O350  1  0.07765432  0.05671767  0.39752351  1
  O  O351  1  0.17215311  0.17794508  0.82644628  1
  O  O352  1  0.09366779  0.63018280  0.31952784  1
  O  O353  1  0.11983696  0.66927915  0.82743414  1
  O  O354  1  0.63537920  0.11705084  0.39062864  1
  O  O355  1  0.60290399  0.12747857  0.96317410  1
  O  O356  1  0.64507244  0.59380101  0.34958038  1
  O  O357  1  0.61959368  0.61559037  0.91660932  1
