# generated using pymatgen
data_V51Zn51O256
_symmetry_space_group_name_H-M   'P 1'
_cell_length_a   17.60566711
_cell_length_b   17.19648542
_cell_length_c   17.44035134
_cell_angle_alpha   91.74840021
_cell_angle_beta   90.00332905
_cell_angle_gamma   87.98318818
_symmetry_Int_Tables_number   1
_chemical_formula_structural   V51Zn51O256
_chemical_formula_sum   'V51 Zn51 O256'
_cell_volume   5274.43374486
_cell_formula_units_Z   1
loop_
 _symmetry_equiv_pos_site_id
 _symmetry_equiv_pos_as_xyz
  1  'x, y, z'
loop_
 _atom_site_type_symbol
 _atom_site_label
 _atom_site_symmetry_multiplicity
 _atom_site_fract_x
 _atom_site_fract_y
 _atom_site_fract_z
 _atom_site_occupancy
  V  V0  1  0.39049135  0.94462777  -0.01929733  1
  V  V1  1  0.82278758  0.87059079  0.02705020  1
  V  V2  1  0.25989643  0.27695306  -0.02469800  1
  V  V3  1  0.84517767  0.00290369  0.36874042  1
  V  V4  1  0.46302695  0.61121552  0.63869064  1
  V  V5  1  0.67602766  0.86175623  0.14856618  1
  V  V6  1  0.33628269  0.58709780  0.80854519  1
  V  V7  1  0.58187200  0.21217459  0.84827501  1
  V  V8  1  0.35118105  0.80894465  0.47474736  1
  V  V9  1  0.73537746  0.24699484  0.50075983  1
  V  V10  1  0.74229797  0.66093978  0.91681051  1
  V  V11  1  -0.00454389  0.40397168  0.91249994  1
  V  V12  1  0.64255687  0.39094199  0.80888783  1
  V  V13  1  0.50658962  0.27539143  0.26941111  1
  V  V14  1  0.14582443  -0.02723477  0.13577976  1
  V  V15  1  0.62453777  0.52343061  0.12772035  1
  V  V16  1  0.09542643  -0.04854830  0.62425285  1
  V  V17  1  0.15420412  0.07334970  -0.03391278  1
  V  V18  1  -0.04685102  0.64976147  0.14429983  1
  V  V19  1  0.79822991  0.14739559  0.86941596  1
  V  V20  1  0.03210589  0.88927587  0.36074912  1
  V  V21  1  0.51664458  0.89877289  0.83496027  1
  V  V22  1  0.95273972  0.24582805  0.13384676  1
  V  V23  1  0.90219371  0.14142117  0.73818147  1
  V  V24  1  0.23475331  0.14973660  0.82250467  1
  V  V25  1  0.01441562  0.76085917  0.26185919  1
  V  V26  1  0.84793628  0.69657798  0.28340790  1
  V  V27  1  0.46950138  0.36327620  0.90744964  1
  V  V28  1  0.86599336  0.52610572  0.87679886  1
  V  V29  1  0.31501782  0.71596301  -0.04427155  1
  V  V30  1  0.36276776  0.49811137  0.39860645  1
  V  V31  1  0.72744220  0.02584676  0.21953051  1
  V  V32  1  0.00648004  0.16847430  0.58965440  1
  V  V33  1  0.16051220  0.46567462  0.19004015  1
  V  V34  1  0.12881541  0.38620981  0.73612992  1
  V  V35  1  0.15174012  0.10861491  0.50019829  1
  V  V36  1  0.89342140  0.10962128  0.23466756  1
  V  V37  1  -0.02559802  0.51901519  0.04224230  1
  V  V38  1  0.88002644  0.45629217  0.35301670  1
  V  V39  1  0.56061065  0.01663581  0.59059782  1
  V  V40  1  0.27956443  0.85436525  0.11781260  1
  V  V41  1  0.00224971  0.28495154  0.77576685  1
  V  V42  1  0.09099784  0.74367388  0.87860867  1
  V  V43  1  0.38670779  0.03078780  0.75309618  1
  V  V44  1  0.08332410  0.55501896  0.64880502  1
  V  V45  1  0.77598109  0.87394833  0.60282038  1
  V  V46  1  0.13960628  0.64601785  0.02851204  1
  V  V47  1  0.47875806  0.52176151  0.02059177  1
  V  V48  1  0.54564611  0.74481078  0.75981379  1
  V  V49  1  0.62058086  0.14932893  0.01889941  1
  V  V50  1  -0.01083367  -0.00762713  0.49304257  1
  Zn  Zn51  1  0.21371296  0.88063783  0.91346002  1
  Zn  Zn52  1  0.89598912  0.81212467  0.43341531  1
  Zn  Zn53  1  0.10968446  0.11411159  0.72890473  1
  Zn  Zn54  1  0.82854552  0.33385121  0.82715133  1
  Zn  Zn55  1  0.07448350  0.06299282  0.31295269  1
  Zn  Zn56  1  0.33106848  0.37446956  0.26473582  1
  Zn  Zn57  1  0.18813834  0.47520595  0.99914522  1
  Zn  Zn58  1  0.79290514  0.10360240  0.07507361  1
  Zn  Zn59  1  0.18906266  0.65273321  0.22863395  1
  Zn  Zn60  1  0.84673274  0.88813297  0.21723351  1
  Zn  Zn61  1  0.34750579  1.01266975  0.14737211  1
  Zn  Zn62  1  0.84599502  0.61493124  0.43986430  1
  Zn  Zn63  1  0.59072849  0.45721168  0.31342424  1
  Zn  Zn64  1  0.69305563  0.20291507  0.19712304  1
  Zn  Zn65  1  0.72352259  1.01749643  0.93431269  1
  Zn  Zn66  1  0.55272768  0.07056202  0.31384618  1
  Zn  Zn67  1  0.96345868  0.14968737  0.95528405  1
  Zn  Zn68  1  0.55122853  0.85934133  0.02403414  1
  Zn  Zn69  1  0.12670107  0.31156691  0.54117055  1
  Zn  Zn70  1  0.65260348  0.70015963  0.07167500  1
  Zn  Zn71  1  0.45294794  0.47402847  0.21012189  1
  Zn  Zn72  1  0.08550554  0.83670629  0.04153659  1
  Zn  Zn73  1  0.74076443  0.71652660  0.73480509  1
  Zn  Zn74  1  0.26850290  0.60433841  0.65076797  1
  Zn  Zn75  1  0.49268331  0.13180105  0.46126423  1
  Zn  Zn76  1  0.68103687  0.49621974  0.96911267  1
  Zn  Zn77  1  0.92650887  0.70072878  0.95069838  1
  Zn  Zn78  1  0.63747436  0.04326712  0.77695606  1
  Zn  Zn79  1  0.29094096  -0.01961886  0.58382064  1
  Zn  Zn80  1  0.45125704  0.25284085  0.06058103  1
  Zn  Zn81  1  0.68948244  0.95021394  0.45024109  1
  Zn  Zn82  1  0.51776028  0.70391773  0.93246518  1
  Zn  Zn83  1  0.15943417  0.46986248  0.41469890  1
  Zn  Zn84  1  0.03784694  0.57074196  0.30317786  1
  Zn  Zn85  1  0.68988058  0.43482851  0.44302090  1
  Zn  Zn86  1  0.18285096  0.93678126  0.46183986  1
  Zn  Zn87  1  0.63147810  0.58610180  0.81700781  1
  Zn  Zn88  1  0.79710934  0.58046635  0.09053170  1
  Zn  Zn89  1  0.46478377  0.45290072  0.75443725  1
  Zn  Zn90  1  0.94435093  0.47153396  0.70813240  1
  Zn  Zn91  1  0.83939066  0.07649373  0.56706242  1
  Zn  Zn92  1  0.43695204  0.87902076  0.65024801  1
  Zn  Zn93  1  0.05823401  0.76394332  0.69215036  1
  Zn  Zn94  1  0.33112499  0.12914905  0.03079732  1
  Zn  Zn95  1  0.33255718  0.71848901  0.25661466  1
  Zn  Zn96  1  0.95380874  0.98696078  0.09262816  1
  Zn  Zn97  1  0.16091290  0.56191364  0.82606199  1
  Zn  Zn98  1  0.72844469  0.25082830  0.71710973  1
  Zn  Zn99  1  0.29677530  0.57403980  0.09305143  1
  Zn  Zn100  1  0.28767517  0.42183983  0.86099275  1
  Zn  Zn101  1  0.91409195  0.16866469  0.42714171  1
  O  O102  1  0.15532355  0.05005386  0.07482899  1
  O  O103  1  0.09575587  0.11851843  0.60225199  1
  O  O104  1  0.14217921  0.65866920  0.12478187  1
  O  O105  1  0.06768607  0.65148309  0.66887219  1
  O  O106  1  0.69225134  0.17410779  0.08855455  1
  O  O107  1  0.50823769  0.27422350  0.62082961  1
  O  O108  1  0.62013382  0.62101077  0.14125784  1
  O  O109  1  0.65943204  0.62177116  0.61803364  1
  O  O110  1  0.32653540  0.39469729  0.37785807  1
  O  O111  1  0.37753543  0.35521432  0.88224626  1
  O  O112  1  0.35127437  0.80793593  0.37384873  1
  O  O113  1  0.43877495  0.96918094  0.81764667  1
  O  O114  1  0.90851787  0.36562086  0.37703065  1
  O  O115  1  0.89715435  0.40961431  0.87446303  1
  O  O116  1  0.86448002  0.90415397  0.37294380  1
  O  O117  1  0.79774364  0.93935441  0.96139359  1
  O  O118  1  0.25712081  -0.00339730  0.35569818  1
  O  O119  1  0.27603312  -0.14544374  0.75092626  1
  O  O120  1  0.26074792  0.52008761  0.40027916  1
  O  O121  1  0.22168898  0.50620828  0.89861873  1
  O  O122  1  0.75013133  0.01174442  0.38811518  1
  O  O123  1  0.73011353  0.07198771  0.83562465  1
  O  O124  1  0.78512064  0.44169585  0.38075702  1
  O  O125  1  0.78051639  0.49838081  0.90953171  1
  O  O126  1  0.21977476  0.48975314  0.11056512  1
  O  O127  1  0.18941808  0.53154738  0.61107393  1
  O  O128  1  0.25410856  0.96030024  0.15390337  1
  O  O129  1  0.19312282  0.93404205  0.60462091  1
  O  O130  1  0.71762043  0.50414854  0.08240074  1
  O  O131  1  0.78582876  0.46336152  0.64151980  1
  O  O132  1  0.72915017  1.01940268  0.12239565  1
  O  O133  1  0.78738171  0.97653149  0.57870350  1
  O  O134  1  0.08296128  0.26264806  0.22525487  1
  O  O135  1  0.00350678  0.37773408  0.73142555  1
  O  O136  1  0.01874213  0.87072707  0.25846193  1
  O  O137  1  -0.05342936  0.79164708  0.72534246  1
  O  O138  1  0.52379722  0.37798511  0.26032715  1
  O  O139  1  0.53243904  0.38511241  0.81232883  1
  O  O140  1  0.47917375  0.76404905  0.22890723  1
  O  O141  1  0.49479857  0.84755614  0.74134579  1
  O  O142  1  0.50486244  0.17097666  0.27008785  1
  O  O143  1  0.52719145  0.21007188  0.64410023  1
  O  O144  1  0.51061827  0.52914260  0.28563593  1
  O  O145  1  0.54568454  0.66174873  0.82113454  1
  O  O146  1  0.98766846  0.09302839  0.24610995  1
  O  O147  1  1.01076767  0.17942663  0.72873944  1
  O  O148  1  0.96890000  0.65802596  0.26882845  1
  O  O149  1  0.89659671  0.73738350  0.73381159  1
  O  O150  1  0.34753889  0.24173835  0.02207843  1
  O  O151  1  0.44784860  0.22779153  0.47666802  1
  O  O152  1  0.40629068  0.74425684  -0.04727199  1
  O  O153  1  0.31301148  0.72269874  0.49413174  1
  O  O154  1  0.92855790  0.21379261  0.04238419  1
  O  O155  1  0.84407945  0.23883713  0.48589060  1
  O  O156  1  0.87310747  0.79475497  -0.01238383  1
  O  O157  1  0.85933563  0.71163364  0.39190823  1
  O  O158  1  0.17150120  0.20459525  0.51081755  1
  O  O159  1  0.19048934  0.25083503  1.02961317  1
  O  O160  1  0.10675035  0.70475459  0.44670076  1
  O  O161  1  0.07741960  0.72654657  1.01135083  1
  O  O162  1  0.63989561  0.24183906  0.49807225  1
  O  O163  1  0.63451210  0.20908369  0.93775213  1
  O  O164  1  0.72621133  0.62529789  0.64093725  1
  O  O165  1  0.57920615  0.75458245  1.01164661  1
  O  O166  1  0.47683095  0.27726989  0.16798515  1
  O  O167  1  0.37693709  0.27762574  0.72806027  1
  O  O168  1  0.52615466  0.79687933  0.27205879  1
  O  O169  1  0.50103115  0.70444631  0.67690652  1
  O  O170  1  1.05436437  0.21666666  0.15819242  1
  O  O171  1  1.02396076  0.26255170  0.57464100  1
  O  O172  1  0.99112941  0.74336564  0.15538150  1
  O  O173  1  0.93733421  0.66876863  0.55970464  1
  O  O174  1  -0.00018083  0.23274305  0.37100461  1
  O  O175  1  -0.00014642  0.29823675  0.87846794  1
  O  O176  1  -0.00581629  0.78710368  0.36639895  1
  O  O177  1  -0.00535832  0.73266709  0.87430907  1
  O  O178  1  0.51955833  0.28427565  0.36683891  1
  O  O179  1  0.49616504  0.25600568  0.87132345  1
  O  O180  1  0.62498631  0.67260468  0.37670097  1
  O  O181  1  0.53967438  0.80055568  0.86077649  1
  O  O182  1  0.23685078  0.05249711  0.51220571  1
  O  O183  1  0.24565964  0.11033143  0.96179340  1
  O  O184  1  0.20408884  0.70080148  0.60919506  1
  O  O185  1  0.24423193  0.64676257  1.01598953  1
  O  O186  1  0.75372799  0.14539968  0.53237312  1
  O  O187  1  0.79702905  0.11420378  0.96474912  1
  O  O188  1  0.73620181  0.59065287  0.47371631  1
  O  O189  1  0.75092626  0.65997740  1.02666784  1
  O  O190  1  0.24788246  0.37761932  -0.02941154  1
  O  O191  1  0.15753698  0.37719364  0.46229071  1
  O  O192  1  0.31557372  0.91843061  -0.07486038  1
  O  O193  1  0.25322163  0.84813756  0.47083022  1
  O  O194  1  0.81811346  0.35263554  0.03221246  1
  O  O195  1  0.74109671  0.35000214  0.49989209  1
  O  O196  1  0.73760932  0.83735378  0.06789208  1
  O  O197  1  0.72694421  0.85991143  0.50852826  1
  O  O198  1  0.08794651  0.42186679  0.15651579  1
  O  O199  1  0.10602350  0.50498773  0.73865247  1
  O  O200  1  0.12365337  1.00704869  0.22517224  1
  O  O201  1  0.09265805  1.00341533  0.70896570  1
  O  O202  1  0.63667889  0.48284812  0.21709891  1
  O  O203  1  0.64058230  0.48250588  0.77357104  1
  O  O204  1  0.63423400  1.03796694  0.25012454  1
  O  O205  1  0.61336627  1.04692473  0.67006123  1
  O  O206  1  0.31597581  -0.01333620  0.31697008  1
  O  O207  1  0.35932312  -0.02992700  0.67059565  1
  O  O208  1  0.36426002  0.49473735  0.28874148  1
  O  O209  1  0.36526729  0.48755557  0.79787590  1
  O  O210  1  0.83913876  -0.00019972  0.25786675  1
  O  O211  1  0.91162083  0.04750492  0.73960376  1
  O  O212  1  0.85957966  0.44173198  0.25829827  1
  O  O213  1  0.87949853  0.52765246  0.77869641  1
  O  O214  1  0.16862580  0.41756624  0.29202959  1
  O  O215  1  0.07049430  0.43040476  0.86398212  1
  O  O216  1  0.12628068  0.88407741  0.37791001  1
  O  O217  1  0.11866340  0.83285251  0.93081266  1
  O  O218  1  0.64837664  0.37409151  0.35943530  1
  O  O219  1  0.66045411  0.39899475  0.90289941  1
  O  O220  1  0.60747442  0.89414185  0.38189287  1
  O  O221  1  0.59882999  0.94425370  0.82375437  1
  O  O222  1  0.36361122  0.11543536  0.13548597  1
  O  O223  1  0.34871222  0.16153350  0.60679554  1
  O  O224  1  0.29299245  0.63539946  0.18734460  1
  O  O225  1  0.36515575  0.61330840  0.61262464  1
  O  O226  1  0.88618919  0.07445963  0.13323113  1
  O  O227  1  0.90834396  0.14569467  0.62503701  1
  O  O228  1  0.85687662  0.64142741  0.17268872  1
  O  O229  1  0.87192203  0.64092811  0.55286843  1
  O  O230  1  0.25336653  0.17818917  0.17578453  1
  O  O231  1  0.32717520  0.21683319  0.56930973  1
  O  O232  1  0.29281010  0.78578639  0.04467014  1
  O  O233  1  0.21494469  0.76469867  0.64365911  1
  O  O234  1  0.75957517  0.29899849  0.19506652  1
  O  O235  1  0.73766189  0.26162903  0.60590178  1
  O  O236  1  0.65626032  0.77222409  0.17332041  1
  O  O237  1  0.76738867  0.77996984  0.63656375  1
  O  O238  1  0.27399447  0.17616667  0.34375082  1
  O  O239  1  0.25104274  0.23853276  0.87469849  1
  O  O240  1  0.25094110  0.68647829  0.31726365  1
  O  O241  1  0.26491196  0.76835449  0.89212990  1
  O  O242  1  0.73615770  0.22601130  0.40275360  1
  O  O243  1  0.77774947  0.24398879  0.87832526  1
  O  O244  1  0.59450551  0.82797623  0.40656238  1
  O  O245  1  0.72655825  0.75440351  0.90860166  1
  O  O246  1  0.07110899  0.12950079  -0.03228124  1
  O  O247  1  -0.00565927  0.12619947  0.49547106  1
  O  O248  1  -0.05329696  0.63625957  0.04160596  1
  O  O249  1  0.08178057  0.73761974  0.50512720  1
  O  O250  1  0.53081679  0.16866748  0.05248426  1
  O  O251  1  0.49271563  0.08286890  0.55771359  1
  O  O252  1  0.49421353  0.61266118  -0.00422551  1
  O  O253  1  0.50824571  0.60693621  0.55548841  1
  O  O254  1  0.60126942  0.42913620  0.54774335  1
  O  O255  1  0.48417584  0.33868441  1.00109151  1
  O  O256  1  0.44629587  0.78392148  0.45816751  1
  O  O257  1  0.48536604  0.90897788  0.94820866  1
  O  O258  1  1.03971714  0.28224823  0.40448083  1
  O  O259  1  1.01084631  0.41878545  1.01393301  1
  O  O260  1  0.98679699  0.89162868  0.46849337  1
  O  O261  1  0.95969016  0.91519165  0.93332482  1
  O  O262  1  0.45225958  0.45255141  0.40941296  1
  O  O263  1  0.47486666  0.46775986  0.92895191  1
  O  O264  1  0.48835036  0.94745091  0.27115010  1
  O  O265  1  0.44164289  1.09586984  0.72101830  1
  O  O266  1  0.97659256  0.47744874  0.33024529  1
  O  O267  1  0.95837944  0.52328830  0.93243806  1
  O  O268  1  1.00680051  0.99261084  0.37262052  1
  O  O269  1  0.95558272  0.98611320  0.91927271  1
  O  O270  1  0.05326574  -0.06312510  0.09449843  1
  O  O271  1  -0.01703380  -0.01029625  0.59047271  1
  O  O272  1  0.00158172  0.55657454  0.14248502  1
  O  O273  1  -0.00079511  0.51407026  0.62404579  1
  O  O274  1  0.43792686  -0.06378986  0.22278816  1
  O  O275  1  0.51868061  -0.07108423  0.60080496  1
  O  O276  1  0.51078213  0.51051303  0.12880655  1
  O  O277  1  0.49106349  0.52491564  0.68048629  1
  O  O278  1  0.22247676  0.38154822  0.24033556  1
  O  O279  1  0.21665880  0.39220596  0.77406360  1
  O  O280  1  0.30928593  0.81340348  0.19962023  1
  O  O281  1  0.33464709  0.81388927  0.74489740  1
  O  O282  1  0.73306889  0.36560210  0.17961325  1
  O  O283  1  0.73673908  0.35626850  0.76604017  1
  O  O284  1  0.72929709  0.90874545  0.22529942  1
  O  O285  1  0.82891429  0.90049848  0.68073415  1
  O  O286  1  0.30862113  0.15846335  0.40210648  1
  O  O287  1  0.21031722  0.16921099  0.73089853  1
  O  O288  1  0.13010194  0.55533546  0.23943462  1
  O  O289  1  0.24722826  0.60114751  0.75839240  1
  O  O290  1  0.76120897  0.12370596  0.23563696  1
  O  O291  1  0.80039222  0.16275433  0.74384532  1
  O  O292  1  0.75680707  0.68883969  0.27951089  1
  O  O293  1  0.73150316  0.63560399  0.80760019  1
  O  O294  1  0.46367912  0.06611311  0.37542799  1
  O  O295  1  0.31142313  0.07807469  0.80739349  1
  O  O296  1  0.39102584  0.59080633  0.38577312  1
  O  O297  1  0.33516845  0.62145156  0.90511277  1
  O  O298  1  0.87444592  0.10898760  0.34328621  1
  O  O299  1  0.90136899  0.14415337  0.85610235  1
  O  O300  1  0.85292331  0.56512694  0.33346069  1
  O  O301  1  0.84977734  0.63064179  0.90605111  1
  O  O302  1  0.26267173  0.24762802  0.18776865  1
  O  O303  1  0.14021011  0.36973181  0.64072059  1
  O  O304  1  0.17437487  0.86155467  0.11170889  1
  O  O305  1  0.06711511  0.85837198  0.63742421  1
  O  O306  1  0.75960662  0.31749114  0.02237518  1
  O  O307  1  0.62190429  0.44320137  0.61449324  1
  O  O308  1  0.59418411  0.90678353  0.11465468  1
  O  O309  1  0.68491528  0.89810811  0.63791609  1
  O  O310  1  0.12433729  0.22360304  0.26982565  1
  O  O311  1  0.10682646  0.28906249  0.76809968  1
  O  O312  1  0.10449012  0.73085409  0.26561081  1
  O  O313  1  0.11455410  0.76657643  0.78668247  1
  O  O314  1  0.60332551  0.25394407  0.24025507  1
  O  O315  1  0.62905062  0.26398423  0.77609266  1
  O  O316  1  0.60633041  0.66060261  0.31029280  1
  O  O317  1  0.63636802  0.75771740  0.73352847  1
  O  O318  1  0.40406683  0.28384229  0.28316283  1
  O  O319  1  0.35510865  0.32972057  0.68189274  1
  O  O320  1  0.44301491  0.70137494  0.25940324  1
  O  O321  1  0.39731894  0.63909691  0.76233418  1
  O  O322  1  0.89208645  0.21022189  0.21252778  1
  O  O323  1  0.90288741  0.27275716  0.75882398  1
  O  O324  1  0.87434708  0.78715352  0.25274288  1
  O  O325  1  0.83786709  0.75765660  0.78064562  1
  O  O326  1  0.35705468  0.50224584  0.49752780  1
  O  O327  1  0.38553160  0.52083243  1.05287864  1
  O  O328  1  0.35847041  0.91704946  0.49605639  1
  O  O329  1  0.39551193  1.04172475  0.98633370  1
  O  O330  1  0.89252343  0.50781790  0.44886684  1
  O  O331  1  0.88454886  0.50127469  1.06573941  1
  O  O332  1  0.88690727  1.02997866  0.47043982  1
  O  O333  1  0.94267410  1.03674540  0.98693490  1
  O  O334  1  0.15321462  -0.02100385  -0.06547258  1
  O  O335  1  0.09676688  -0.00476921  0.51103509  1
  O  O336  1  0.09706435  0.55354755  0.01546614  1
  O  O337  1  0.13732819  0.55244657  0.55312664  1
  O  O338  1  0.63192461  0.05398736  -0.01223114  1
  O  O339  1  0.62083460  0.00844605  0.51164741  1
  O  O340  1  0.58708348  0.48311046  0.03165461  1
  O  O341  1  0.73054681  0.52780720  0.51185668  1
  O  O342  1  0.38146898  0.40176990  0.17420838  1
  O  O343  1  0.40449566  0.38303672  0.66334275  1
  O  O344  1  0.37016735  0.91498305  0.07740841  1
  O  O345  1  0.37568819  0.81615215  0.57844945  1
  O  O346  1  0.94317036  0.33924206  0.14090053  1
  O  O347  1  0.84937274  0.43197782  0.62685499  1
  O  O348  1  0.87524127  0.90674522  0.10793269  1
  O  O349  1  0.85462372  0.83961464  0.54280471  1
  O  O350  1  0.12970283  0.09898772  0.40290083  1
  O  O351  1  0.15184315  0.10539321  0.84684448  1
  O  O352  1  0.08857034  0.54966900  0.39738556  1
  O  O353  1  0.13617379  0.65182731  0.89432202  1
  O  O354  1  0.58889963  0.11903698  0.40861415  1
  O  O355  1  0.56491164  0.12054574  0.82066653  1
  O  O356  1  0.61328099  0.50581092  0.40846580  1
  O  O357  1  0.65581824  0.60271596  0.92872934  1
