# generated using pymatgen
data_V51Zn51O256
_symmetry_space_group_name_H-M   'P 1'
_cell_length_a   17.58605081
_cell_length_b   17.48675460
_cell_length_c   17.28913195
_cell_angle_alpha   90.42059707
_cell_angle_beta   88.79897086
_cell_angle_gamma   89.13755131
_symmetry_Int_Tables_number   1
_chemical_formula_structural   V51Zn51O256
_chemical_formula_sum   'V51 Zn51 O256'
_cell_volume   5314.87879949
_cell_formula_units_Z   1
loop_
 _symmetry_equiv_pos_site_id
 _symmetry_equiv_pos_as_xyz
  1  'x, y, z'
loop_
 _atom_site_type_symbol
 _atom_site_label
 _atom_site_symmetry_multiplicity
 _atom_site_fract_x
 _atom_site_fract_y
 _atom_site_fract_z
 _atom_site_occupancy
  V  V0  1  0.70598990  0.57845680  0.68771714  1
  V  V1  1  0.10764799  0.74777042  0.88748138  1
  V  V2  1  0.63202207  0.63486524  0.02732708  1
  V  V3  1  0.62152371  0.27192643  0.85460671  1
  V  V4  1  0.74484190  0.39393540  0.63376896  1
  V  V5  1  0.85654157  0.27607711  0.16652636  1
  V  V6  1  0.61846700  0.49276388  0.13164632  1
  V  V7  1  0.07171722  0.18004327  0.83538407  1
  V  V8  1  0.34564336  0.77504700  0.11983840  1
  V  V9  1  0.75717820  0.64147305  0.87789694  1
  V  V10  1  0.17930188  0.87012119  0.26797857  1
  V  V11  1  0.50285136  0.46574507  0.45984217  1
  V  V12  1  -0.01821961  0.86143213  0.38537969  1
  V  V13  1  0.01550677  0.67974287  0.12213716  1
  V  V14  1  0.17107678  0.73613746  0.38076613  1
  V  V15  1  0.42496956  0.05157610  -0.01253784  1
  V  V16  1  0.67992155  0.15869057  -0.05349272  1
  V  V17  1  0.47365704  0.88374502  0.89978765  1
  V  V18  1  0.08175814  0.54288035  0.67349848  1
  V  V19  1  -0.03121731  0.11461954  0.11834453  1
  V  V20  1  0.53227532  0.29560715  0.72288925  1
  V  V21  1  0.21471395  0.40027542  0.63847499  1
  V  V22  1  0.36797821  0.60440148  0.75285342  1
  V  V23  1  0.27927320  -0.03821398  0.75447789  1
  V  V24  1  0.83928236  0.87366820  0.02938153  1
  V  V25  1  0.59591088  0.74926144  0.90328815  1
  V  V26  1  0.27136515  0.48835875  0.26890567  1
  V  V27  1  0.38293755  0.39304909  -0.00134442  1
  V  V28  1  -0.00252377  -0.02084865  -0.00696806  1
  V  V29  1  0.58561498  0.81635940  0.74376083  1
  V  V30  1  0.85791902  0.07423741  0.24674971  1
  V  V31  1  0.86739206  0.37472873  0.00200073  1
  V  V32  1  0.45728429  0.21494113  0.59985672  1
  V  V33  1  0.46500809  0.63371172  0.10864639  1
  V  V34  1  0.67239776  0.03008966  0.69296940  1
  V  V35  1  0.24572639  0.92997533  0.11809203  1
  V  V36  1  0.58217161  0.87078070  0.25680370  1
  V  V37  1  0.87558868  0.00408665  0.86159545  1
  V  V38  1  -0.03556021  0.52507966  0.02738748  1
  V  V39  1  -0.01266643  0.55713770  0.50301707  1
  V  V40  1  0.87648491  0.51555072  0.86342457  1
  V  V41  1  0.86741063  0.68669484  0.26090401  1
  V  V42  1  0.11768215  0.85473385  0.74773665  1
  V  V43  1  0.12195043  0.12048298  0.00827961  1
  V  V44  1  0.64952019  0.18028391  0.42784130  1
  V  V45  1  0.00739951  -0.01346884  0.50186795  1
  V  V46  1  0.11885370  0.48200540  0.14543736  1
  V  V47  1  0.12275731  0.24609132  0.35795152  1
  V  V48  1  0.50114049  0.25480627  0.22094490  1
  V  V49  1  0.24956475  0.73197298  -0.01622544  1
  V  V50  1  -0.01689855  0.13141399  0.59737997  1
  Zn  Zn51  1  0.53826927  0.75580810  0.56250722  1
  Zn  Zn52  1  0.72782578  0.87453737  0.63260598  1
  Zn  Zn53  1  0.66105272  0.36363910  0.48339011  1
  Zn  Zn54  1  0.57773338  0.04163652  0.85622883  1
  Zn  Zn55  1  0.87216884  0.88131576  0.23180885  1
  Zn  Zn56  1  0.92708241  0.70089428  0.95173522  1
  Zn  Zn57  1  0.17467653  0.94212466  0.92053168  1
  Zn  Zn58  1  0.42952948  0.95441417  0.16650231  1
  Zn  Zn59  1  0.45587670  0.45737768  0.18733107  1
  Zn  Zn60  1  0.02429629  -0.01950855  0.25270631  1
  Zn  Zn61  1  0.56647648  0.60518275  0.80573930  1
  Zn  Zn62  1  0.52200338  0.59507576  0.29503550  1
  Zn  Zn63  1  0.32812270  0.53427290  0.55400732  1
  Zn  Zn64  1  1.00620279  0.68104689  0.38467588  1
  Zn  Zn65  1  0.33143557  0.28402040  0.73714624  1
  Zn  Zn66  1  0.28347673  0.56892683  0.06593784  1
  Zn  Zn67  1  0.90846261  0.18778571  0.92606137  1
  Zn  Zn68  1  0.10231376  0.83587417  0.07170767  1
  Zn  Zn69  1  0.13661355  0.93188909  0.42033015  1
  Zn  Zn70  1  0.74033740  0.83747344  0.82976883  1
  Zn  Zn71  1  0.48948249  0.99045727  0.73189122  1
  Zn  Zn72  1  0.98172695  0.14098501  0.39320896  1
  Zn  Zn73  1  0.08205552  0.55187133  0.87756612  1
  Zn  Zn74  1  0.34414878  0.10403179  0.71221618  1
  Zn  Zn75  1  0.33920360  0.66245059  0.29291863  1
  Zn  Zn76  1  0.21647197  0.41630665  0.45046547  1
  Zn  Zn77  1  0.76253453  0.52509494  0.04924611  1
  Zn  Zn78  1  0.86571363  0.01148641  0.65441690  1
  Zn  Zn79  1  0.20810668  0.44242609  0.98240165  1
  Zn  Zn80  1  0.88818930  0.50511848  0.65697560  1
  Zn  Zn81  1  0.13469261  0.05012863  0.70879819  1
  Zn  Zn82  1  0.69619994  0.18500659  0.19680355  1
  Zn  Zn83  1  0.09767293  0.26159879  0.55521781  1
  Zn  Zn84  1  0.78979652  0.53373797  0.52072483  1
  Zn  Zn85  1  0.32586667  0.79507856  0.81261276  1
  Zn  Zn86  1  0.18029517  0.69848693  0.69295441  1
  Zn  Zn87  1  0.67754645  0.68215247  0.23202616  1
  Zn  Zn88  1  0.19812445  0.67792999  0.19501800  1
  Zn  Zn89  1  0.51755630  0.06893162  0.30872063  1
  Zn  Zn90  1  0.44792613  0.16774441  0.83314133  1
  Zn  Zn91  1  0.41977757  0.21161986  0.39894783  1
  Zn  Zn92  1  0.81742030  0.21078791  0.33008019  1
  Zn  Zn93  1  0.69660306  0.44888574  0.81869214  1
  Zn  Zn94  1  0.66545000  0.20902968  0.61181506  1
  Zn  Zn95  1  0.10034693  0.80871831  0.55313131  1
  Zn  Zn96  1  0.83030498  0.06883185  0.03024029  1
  Zn  Zn97  1  0.53512609  0.80401680  0.06553790  1
  Zn  Zn98  1  0.29597824  0.28173388  0.25000117  1
  Zn  Zn99  1  0.12777691  0.54407567  0.34803099  1
  Zn  Zn100  1  0.44026387  0.65549426  0.46450377  1
  Zn  Zn101  1  0.28804826  0.12980835  0.10936840  1
  O  O102  1  0.06934481  0.13991199  0.09634543  1
  O  O103  1  0.25467446  0.18135169  0.59776045  1
  O  O104  1  0.10148533  0.64516589  0.15433108  1
  O  O105  1  0.13700818  0.61334336  0.63691120  1
  O  O106  1  0.63633416  0.09435049  0.14329502  1
  O  O107  1  0.68742532  0.12490188  0.67829100  1
  O  O108  1  0.64101425  0.65221437  0.12323689  1
  O  O109  1  0.65230032  0.63925960  0.64250525  1
  O  O110  1  0.33660118  0.25848399  0.34911864  1
  O  O111  1  0.38113217  0.37881244  0.89928630  1
  O  O112  1  0.36450275  0.87336074  0.41047103  1
  O  O113  1  0.38374146  0.86786835  0.87554199  1
  O  O114  1  0.88087167  0.37717414  0.42602485  1
  O  O115  1  0.88287600  0.42287173  0.89733344  1
  O  O116  1  0.90222804  0.82533741  0.41604947  1
  O  O117  1  0.81365051  0.90167884  0.88688849  1
  O  O118  1  0.35555018  -0.05757784  0.40258982  1
  O  O119  1  0.25397220  -0.02415780  0.84851329  1
  O  O120  1  0.23670086  0.48946793  0.36965534  1
  O  O121  1  0.15002412  0.47127534  0.90230009  1
  O  O122  1  0.74888218  -0.05322868  0.44612381  1
  O  O123  1  0.77525453  -0.02678907  0.89248992  1
  O  O124  1  0.72908782  0.37129691  0.35984167  1
  O  O125  1  0.77242662  0.51942685  0.86823012  1
  O  O126  1  0.19813026  0.50365785  0.08146515  1
  O  O127  1  0.14048859  0.45918722  0.68208956  1
  O  O128  1  0.25759679  1.02250840  0.13879546  1
  O  O129  1  0.30062849  0.93061153  0.56530317  1
  O  O130  1  0.71116732  0.51465412  0.15299692  1
  O  O131  1  0.79754546  0.57120799  0.63086363  1
  O  O132  1  0.66642354  1.03703089  0.11013493  1
  O  O133  1  0.75587462  0.97855669  0.64368102  1
  O  O134  1  -0.02553825  0.39834908  0.25150070  1
  O  O135  1  0.04729707  0.38201895  0.86705130  1
  O  O136  1  -0.03053077  0.88990229  0.28370476  1
  O  O137  1  0.02798049  0.87230065  0.73362099  1
  O  O138  1  0.49994492  0.35763347  0.22326350  1
  O  O139  1  0.53417327  0.38811069  0.72217856  1
  O  O140  1  0.47877806  0.87386505  0.22929901  1
  O  O141  1  0.51973573  0.88577187  0.78922492  1
  O  O142  1  0.48141881  0.15610251  0.23613257  1
  O  O143  1  0.51098196  0.08836715  0.78356722  1
  O  O144  1  0.49069515  0.64726585  0.20204792  1
  O  O145  1  0.46649696  0.60670889  0.73528450  1
  O  O146  1  0.97632959  0.07270156  0.22092194  1
  O  O147  1  1.05811081  0.08470626  0.63866037  1
  O  O148  1  0.93539455  0.66304242  0.18426326  1
  O  O149  1  0.90025990  0.75334479  0.76401780  1
  O  O150  1  0.40958683  0.29868082  0.00769787  1
  O  O151  1  0.44021848  0.23335345  0.50469842  1
  O  O152  1  0.33764914  0.77067015  0.00741745  1
  O  O153  1  0.35064486  0.79597075  0.54923114  1
  O  O154  1  0.86608645  0.28300193  -0.03116172  1
  O  O155  1  0.85205271  0.31714141  0.44744388  1
  O  O156  1  0.86889995  0.78679956  -0.01192943  1
  O  O157  1  0.79453570  0.69403377  0.47712491  1
  O  O158  1  0.15123060  0.22574399  0.45998464  1
  O  O159  1  0.10011342  0.18920919  0.93933379  1
  O  O160  1  0.15331261  0.74217614  0.47896616  1
  O  O161  1  0.14869091  0.77167946  0.98908678  1
  O  O162  1  0.64332142  0.14301296  0.51822810  1
  O  O163  1  0.60899896  0.23410188  0.95574679  1
  O  O164  1  0.65450619  0.76151170  0.52882288  1
  O  O165  1  0.61698389  0.75081126  1.00507427  1
  O  O166  1  0.52154518  0.23982425  0.12266569  1
  O  O167  1  0.55313899  0.23437728  0.62838805  1
  O  O168  1  0.44566751  0.74387706  0.09874638  1
  O  O169  1  0.46375602  0.67932482  0.57284421  1
  O  O170  1  0.93569837  0.20787690  0.15243259  1
  O  O171  1  1.00324042  0.22788682  0.59312919  1
  O  O172  1  1.02179619  0.77569801  0.11821000  1
  O  O173  1  0.97595476  0.77906737  0.60728457  1
  O  O174  1  0.02316687  0.24897483  0.40434366  1
  O  O175  1  -0.02475998  0.20366669  0.83922920  1
  O  O176  1  0.04573392  0.78430588  0.36771017  1
  O  O177  1  0.01176857  0.75485515  0.89751363  1
  O  O178  1  0.49654031  0.25833239  0.32739528  1
  O  O179  1  0.51507919  0.26597903  0.82648816  1
  O  O180  1  0.50872691  0.74077312  0.45947769  1
  O  O181  1  0.50101176  0.76932626  0.89960492  1
  O  O182  1  0.27165868  0.06300709  0.47013389  1
  O  O183  1  0.21401151  0.13144434  1.02570732  1
  O  O184  1  0.34229757  0.61401599  0.48543951  1
  O  O185  1  0.25289320  0.63439308  0.98443399  1
  O  O186  1  0.73860713  0.00900114  0.41547804  1
  O  O187  1  0.75346234  0.14514304  1.01069233  1
  O  O188  1  0.73372901  0.59029060  0.43550179  1
  O  O189  1  0.73381257  0.62284861  0.98772141  1
  O  O190  1  0.28333381  0.36719261  0.02375524  1
  O  O191  1  0.24974902  0.45887199  0.55782550  1
  O  O192  1  0.22055862  0.92020553  0.02375518  1
  O  O193  1  0.23271494  0.92662254  0.55153379  1
  O  O194  1  0.78071833  0.41836698  0.00924489  1
  O  O195  1  0.72535150  0.44361167  0.51839576  1
  O  O196  1  0.74607397  0.88133756  0.03150281  1
  O  O197  1  0.68967663  0.82527501  0.52934575  1
  O  O198  1  0.14434975  0.49862401  0.24329769  1
  O  O199  1  0.05843155  0.56377310  0.76540139  1
  O  O200  1  0.11635733  0.94940936  0.30303643  1
  O  O201  1  0.16538939  0.94119047  0.72130623  1
  O  O202  1  0.55602692  0.50147040  0.22865975  1
  O  O203  1  0.64064184  0.53231912  0.76276394  1
  O  O204  1  0.57358644  0.97542706  0.27140506  1
  O  O205  1  0.66968544  1.01238225  0.78997291  1
  O  O206  1  0.24968883  0.05289343  0.30580441  1
  O  O207  1  0.37747661  -0.00638096  0.73580279  1
  O  O208  1  0.37099995  0.48779486  0.25615783  1
  O  O209  1  0.35561933  0.50957882  0.77679590  1
  O  O210  1  0.83713668  -0.01599142  0.27089614  1
  O  O211  1  0.87774550  -0.01047995  0.76468866  1
  O  O212  1  0.84875819  0.49883718  0.32846309  1
  O  O213  1  0.90199343  0.51035628  0.76893677  1
  O  O214  1  0.16172350  0.33384645  0.38951060  1
  O  O215  1  0.18964570  0.31801661  0.90269602  1
  O  O216  1  0.19391979  0.84851240  0.37545793  1
  O  O217  1  0.12886724  0.86246982  0.85666640  1
  O  O218  1  0.61763054  0.27552268  0.43889929  1
  O  O219  1  0.64546462  0.36343438  0.87157603  1
  O  O220  1  0.56186279  0.85732132  0.35338927  1
  O  O221  1  0.63330017  0.83439620  0.86934579  1
  O  O222  1  0.39095622  0.11024022  0.07729489  1
  O  O223  1  0.41768091  0.13037550  0.62487698  1
  O  O224  1  0.37212618  0.60669794  0.10621989  1
  O  O225  1  0.35754844  0.57559479  0.65107720  1
  O  O226  1  0.86255122  0.07667725  0.14029927  1
  O  O227  1  0.89669537  0.11782813  0.64210941  1
  O  O228  1  0.84052871  0.48077684  0.26082928  1
  O  O229  1  0.97262156  0.72219228  0.64855782  1
  O  O230  1  0.26633037  0.22010448  0.16675826  1
  O  O231  1  0.29790174  0.33137587  0.48090028  1
  O  O232  1  0.24839108  0.73871169  0.10699778  1
  O  O233  1  0.29440980  0.75527402  0.55458873  1
  O  O234  1  0.77009944  0.24331576  0.14072661  1
  O  O235  1  0.70519813  0.31087017  0.58886514  1
  O  O236  1  0.73298400  0.76686911  0.19031253  1
  O  O237  1  0.81779089  0.73169643  0.61855953  1
  O  O238  1  0.20348713  0.21291830  0.31138002  1
  O  O239  1  0.24046518  0.27635847  0.87407515  1
  O  O240  1  0.26098967  0.70182925  0.37072335  1
  O  O241  1  0.25313024  0.75440918  0.88400602  1
  O  O242  1  0.74363548  0.19266261  0.40588661  1
  O  O243  1  0.89273642  0.32434502  0.76055703  1
  O  O244  1  0.74983796  0.66567317  0.42821156  1
  O  O245  1  0.75981361  0.73804362  0.87929750  1
  O  O246  1  -0.06078348  0.12169505  0.01806124  1
  O  O247  1  -0.01818049  0.09776442  0.49562439  1
  O  O248  1  -0.01008562  0.64388315  0.02859821  1
  O  O249  1  -0.00948475  0.65332763  0.49639219  1
  O  O250  1  0.44971595  0.13588529  -0.06105624  1
  O  O251  1  0.44855836  0.10766837  0.38634683  1
  O  O252  1  0.52582541  0.63799290  0.02185115  1
  O  O253  1  0.52457538  0.56422677  0.48710940  1
  O  O254  1  0.44793578  0.39121642  0.42632844  1
  O  O255  1  0.46801949  0.43984184  0.98935359  1
  O  O256  1  0.60803601  0.95593960  0.51106646  1
  O  O257  1  0.48414139  0.87385302  0.99912739  1
  O  O258  1  1.05292126  0.37599796  0.52011367  1
  O  O259  1  0.96076138  0.42400906  1.01627589  1
  O  O260  1  1.04218659  0.87764579  0.48509562  1
  O  O261  1  1.02917058  0.88941175  0.99946069  1
  O  O262  1  0.47697651  0.51305301  0.37243813  1
  O  O263  1  0.49766086  0.55529924  0.87060079  1
  O  O264  1  0.43280432  1.01785884  0.25577732  1
  O  O265  1  0.48864936  0.98676869  0.91030640  1
  O  O266  1  1.04765547  0.52411864  0.42878719  1
  O  O267  1  0.97464137  0.53879028  0.92122803  1
  O  O268  1  0.97019605  0.97375515  0.40969406  1
  O  O269  1  0.97443336  0.99512859  0.89015457  1
  O  O270  1  -0.00064172  0.00899742  0.09045950  1
  O  O271  1  0.18808343  0.16006187  0.59534882  1
  O  O272  1  -0.00102764  0.42985566  0.30937992  1
  O  O273  1  -0.00249146  0.53011431  0.61102401  1
  O  O274  1  0.46541784  0.00340962  0.07662332  1
  O  O275  1  0.58503569  -0.00330924  0.66223917  1
  O  O276  1  0.50657318  0.52816190  0.11338539  1
  O  O277  1  0.55399479  0.41870242  0.53439430  1
  O  O278  1  0.26415755  0.39086742  0.24097500  1
  O  O279  1  0.27881430  0.37192403  0.70636442  1
  O  O280  1  0.26505706  0.90371997  0.24604445  1
  O  O281  1  0.28773932  0.86281529  0.73550339  1
  O  O282  1  0.70462926  0.40267897  0.30109832  1
  O  O283  1  0.74195886  0.38663528  0.73237838  1
  O  O284  1  0.67706799  0.89081561  0.25303237  1
  O  O285  1  0.68792349  0.83586305  0.72816702  1
  O  O286  1  0.30616616  0.09266740  0.30542793  1
  O  O287  1  0.24744798  0.05019681  0.70095380  1
  O  O288  1  0.26324668  0.59255492  0.23797443  1
  O  O289  1  0.26701788  0.63424066  0.73850347  1
  O  O290  1  0.76971765  0.12684914  0.25442693  1
  O  O291  1  0.88757081  0.27383772  0.71257040  1
  O  O292  1  0.78171471  0.64137359  0.24936927  1
  O  O293  1  0.74649793  0.63173752  0.77415456  1
  O  O294  1  0.32030677  0.11268843  0.46789397  1
  O  O295  1  0.35244866  0.19058708  0.78270677  1
  O  O296  1  0.43369856  0.64751811  0.35049920  1
  O  O297  1  0.36146450  0.62013361  0.85225643  1
  O  O298  1  0.89626369  0.12883861  0.33151153  1
  O  O299  1  0.85348184  0.09775337  0.88286626  1
  O  O300  1  0.90995168  0.65520892  0.34337066  1
  O  O301  1  0.86084986  0.62590269  0.89216247  1
  O  O302  1  0.11251853  0.39038619  0.13274903  1
  O  O303  1  0.17146425  0.32194263  0.60571836  1
  O  O304  1  0.15363500  0.89041407  0.15722132  1
  O  O305  1  0.14813684  0.79828718  0.65049376  1
  O  O306  1  0.61835241  0.40132613  0.11321116  1
  O  O307  1  0.68202703  0.48040057  0.63819641  1
  O  O308  1  0.57744206  0.86627872  0.14815263  1
  O  O309  1  0.55355627  0.81464983  0.65089154  1
  O  O310  1  0.07768767  0.29395700  0.28682250  1
  O  O311  1  0.11703384  0.24138897  0.77858711  1
  O  O312  1  0.16896356  0.76873937  0.26069645  1
  O  O313  1  0.12690130  0.74651664  0.78088874  1
  O  O314  1  0.60272758  0.24702214  0.22851801  1
  O  O315  1  0.63025064  0.27010479  0.74558694  1
  O  O316  1  0.59505491  0.76946141  0.25361228  1
  O  O317  1  0.57756193  0.72352150  0.77716965  1
  O  O318  1  0.40191178  0.26926064  0.20459959  1
  O  O319  1  0.42794158  0.28597457  0.67178918  1
  O  O320  1  0.34665895  0.74549139  0.21433124  1
  O  O321  1  0.37427750  0.71215709  0.74356225  1
  O  O322  1  0.85105542  0.29348824  0.26562770  1
  O  O323  1  1.03777373  0.37388981  0.79795900  1
  O  O324  1  0.84551971  0.78229888  0.27004221  1
  O  O325  1  0.86751935  0.81549496  0.75696611  1
  O  O326  1  0.42445096  0.47998987  0.52822976  1
  O  O327  1  0.32538258  0.48255711  0.98372017  1
  O  O328  1  0.43847707  0.98888180  0.51566344  1
  O  O329  1  0.34249999  1.01923835  0.96414332  1
  O  O330  1  0.89665256  0.52833746  0.48681155  1
  O  O331  1  0.87401346  0.54480428  1.05453190  1
  O  O332  1  0.94771473  0.97107333  0.58106423  1
  O  O333  1  0.88371761  0.97107271  0.99685440  1
  O  O334  1  0.10039816  0.02555843  -0.02760461  1
  O  O335  1  0.10640480  0.00711359  0.49508968  1
  O  O336  1  0.02939381  0.52098192  0.10695862  1
  O  O337  1  0.10585050  0.42404488  0.51030813  1
  O  O338  1  0.63277041  0.07518826  -0.05691086  1
  O  O339  1  0.58856581  0.00760410  0.46829422  1
  O  O340  1  0.62692734  0.53167429  0.02937292  1
  O  O341  1  0.59148171  0.44153228  0.41120640  1
  O  O342  1  0.39651112  0.41217402  0.10126661  1
  O  O343  1  0.31794941  0.31996615  0.54922945  1
  O  O344  1  0.34424368  0.88154412  0.12468216  1
  O  O345  1  0.45675359  0.92607603  0.54105280  1
  O  O346  1  0.87492459  0.35715598  0.11181457  1
  O  O347  1  0.84101847  0.41186472  0.61631797  1
  O  O348  1  0.86867283  0.87766770  0.12363786  1
  O  O349  1  0.82602182  0.80056527  0.60230351  1
  O  O350  1  0.09294213  0.14707581  0.34378662  1
  O  O351  1  0.09240580  0.08812824  0.80552505  1
  O  O352  1  0.11352066  0.65342520  0.35275569  1
  O  O353  1  0.12321126  0.65157915  0.89583379  1
  O  O354  1  0.60507116  0.12211376  0.35563712  1
  O  O355  1  0.70113892  0.19898649  0.85304263  1
  O  O356  1  0.62117178  0.63095870  0.31027068  1
  O  O357  1  0.63207516  0.64881976  0.89276550  1
