# generated using pymatgen
data_V51Zn51O256
_symmetry_space_group_name_H-M   'P 1'
_cell_length_a   17.24014606
_cell_length_b   17.27011186
_cell_length_c   17.39719852
_cell_angle_alpha   90.33331266
_cell_angle_beta   90.71126701
_cell_angle_gamma   89.54046127
_symmetry_Int_Tables_number   1
_chemical_formula_structural   V51Zn51O256
_chemical_formula_sum   'V51 Zn51 O256'
_cell_volume   5179.17846696
_cell_formula_units_Z   1
loop_
 _symmetry_equiv_pos_site_id
 _symmetry_equiv_pos_as_xyz
  1  'x, y, z'
loop_
 _atom_site_type_symbol
 _atom_site_label
 _atom_site_symmetry_multiplicity
 _atom_site_fract_x
 _atom_site_fract_y
 _atom_site_fract_z
 _atom_site_occupancy
  V  V0  1  0.26835720  0.13074145  0.34618936  1
  V  V1  1  0.21493391  0.37177337  0.12533453  1
  V  V2  1  0.22822967  0.37142909  0.62713815  1
  V  V3  1  0.14736405  -0.00376663  0.66426821  1
  V  V4  1  0.30477159  0.87367248  0.63215318  1
  V  V5  1  0.52619510  0.26353056  0.71702508  1
  V  V6  1  0.08207097  0.22646847  0.84754193  1
  V  V7  1  0.77290737  0.16503234  0.91023513  1
  V  V8  1  0.73338875  0.70981088  0.03018688  1
  V  V9  1  0.15090062  0.86915505  0.22965451  1
  V  V10  1  0.67063188  -0.02927024  0.16876456  1
  V  V11  1  0.10744232  0.21636041  0.39596763  1
  V  V12  1  0.11737699  0.62903913  -0.01712650  1
  V  V13  1  0.66492051  0.91811477  0.79395430  1
  V  V14  1  0.67669815  0.61621641  0.86798321  1
  V  V15  1  0.75734871  0.08607779  0.35332729  1
  V  V16  1  -0.01330405  0.35962300  0.40407389  1
  V  V17  1  -0.03917707  0.87811624  0.86536309  1
  V  V18  1  0.76972052  0.03588237  0.72674762  1
  V  V19  1  0.52812589  -0.01617804  0.52043279  1
  V  V20  1  0.00657677  0.39951383  0.88794285  1
  V  V21  1  -0.07010777  -0.02355541  0.00778008  1
  V  V22  1  0.48772671  0.61472701  0.61483953  1
  V  V23  1  -0.00686156  0.13423229  0.65046259  1
  V  V24  1  0.27408892  0.61829728  0.84962737  1
  V  V25  1  0.21118986  0.23796183  0.00615419  1
  V  V26  1  -0.00317711  0.54692985  0.48976935  1
  V  V27  1  0.59599975  0.18726634  -0.00219780  1
  V  V28  1  0.35640241  0.41239085  0.02324105  1
  V  V29  1  0.14315816  0.64735512  0.48403989  1
  V  V30  1  0.86090815  0.37886319  -0.00955911  1
  V  V31  1  0.87107595  0.62997370  0.73856452  1
  V  V32  1  0.38605123  -0.01183492  0.88439485  1
  V  V33  1  0.19537472  0.51800829  0.72534122  1
  V  V34  1  0.61539539  0.21142747  0.36860970  1
  V  V35  1  0.89881541  0.14534605  0.24443906  1
  V  V36  1  0.86570913  0.33425429  0.51924989  1
  V  V37  1  -0.01372040  0.86697877  0.39621192  1
  V  V38  1  0.54652347  0.12584006  0.61479075  1
  V  V39  1  0.64445218  0.72282962  0.39937901  1
  V  V40  1  0.13372635  0.76876317  0.86137205  1
  V  V41  1  0.39222281  0.00661545  0.41073517  1
  V  V42  1  0.76919362  0.48958626  0.25906751  1
  V  V43  1  0.87057332  0.53553399  0.88807005  1
  V  V44  1  0.56978883  0.57613772  0.00405026  1
  V  V45  1  0.41945363  0.49329609  0.32751573  1
  V  V46  1  0.76820026  0.39723061  0.63460900  1
  V  V47  1  0.35410628  0.36351503  0.46967482  1
  V  V48  1  0.08390291  0.09529142  0.00725321  1
  V  V49  1  0.11706910  0.35824944  0.26495387  1
  V  V50  1  0.17691117  0.74782342  0.34630051  1
  Zn  Zn51  1  0.52803623  0.30515862  0.52209187  1
  Zn  Zn52  1  0.44190318  0.17671695  0.44749419  1
  Zn  Zn53  1  0.58921049  0.02303717  0.33842569  1
  Zn  Zn54  1  0.19573370  0.45327367  0.91209211  1
  Zn  Zn55  1  0.25395770  0.55599222  0.05115373  1
  Zn  Zn56  1  0.48340439  0.94341142  0.70337140  1
  Zn  Zn57  1  0.12227015  0.68328592  0.15925620  1
  Zn  Zn58  1  0.71071012  0.92677944  0.44853613  1
  Zn  Zn59  1  0.80446370  0.32993670  0.82114995  1
  Zn  Zn60  1  0.95030805  0.96899850  0.69350622  1
  Zn  Zn61  1  0.33659287  0.78592887  0.82039166  1
  Zn  Zn62  1  0.61829537  0.12387570  0.80203959  1
  Zn  Zn63  1  0.72689803  0.91635283  0.99043137  1
  Zn  Zn64  1  0.31274404  0.32718479  0.30172404  1
  Zn  Zn65  1  0.70359970  0.73690436  0.71854486  1
  Zn  Zn66  1  0.07954650  0.29090508  0.54490834  1
  Zn  Zn67  1  0.55199804  0.37576343  0.03432127  1
  Zn  Zn68  1  0.45877847  0.49220784  0.14080432  1
  Zn  Zn69  1  0.28942290  0.04105659  0.56759246  1
  Zn  Zn70  1  0.34547503  1.00592542  0.08737032  1
  Zn  Zn71  1  0.89864590  0.50956448  0.60669827  1
  Zn  Zn72  1  0.38943278  0.16410831  0.99319669  1
  Zn  Zn73  1  0.04421376  0.58654609  0.81508902  1
  Zn  Zn74  1  0.80989233  0.13544032  0.55145333  1
  Zn  Zn75  1  0.17102638  0.97047559  0.86807938  1
  Zn  Zn76  1  0.56396286  0.79903347  0.57517478  1
  Zn  Zn77  1  0.05645544  0.31311625  0.06375181  1
  Zn  Zn78  1  0.85896482  0.55986252  0.08203255  1
  Zn  Zn79  1  0.47647643  0.65844740  0.41712631  1
  Zn  Zn80  1  0.78710095  0.77331976  0.85543468  1
  Zn  Zn81  1  0.29810301  0.17301601  0.16132568  1
  Zn  Zn82  1  -0.06107712  0.08634161  0.83479877  1
  Zn  Zn83  1  0.15598101  0.85351749  0.51307742  1
  Zn  Zn84  1  0.08661594  0.06753882  0.28417204  1
  Zn  Zn85  1  0.16730732  0.18640007  0.66088801  1
  Zn  Zn86  1  0.78574798  0.50111944  0.46920657  1
  Zn  Zn87  1  0.68704145  0.77688525  0.20283193  1
  Zn  Zn88  1  1.00894378  0.67560574  0.35965604  1
  Zn  Zn89  1  0.94149202  0.18975517  0.98767110  1
  Zn  Zn90  1  0.42806204  0.40882359  0.62282845  1
  Zn  Zn91  1  0.90298427  0.35191951  0.24104981  1
  Zn  Zn92  1  0.05992144  0.81409720  0.03456876  1
  Zn  Zn93  1  0.80227062  0.06906513  0.08584303  1
  Zn  Zn94  1  0.69892152  0.46255493  0.96183874  1
  Zn  Zn95  1  0.79255876  0.28465927  0.34158105  1
  Zn  Zn96  1  0.15456118  0.43363082  0.44793691  1
  Zn  Zn97  1  0.62924371  0.14493761  0.19964379  1
  Zn  Zn98  1  0.16984359  0.69856709  0.68036667  1
  Zn  Zn99  1  0.29363465  0.56318033  0.56151856  1
  Zn  Zn100  1  0.47662230  0.65083849  0.83116974  1
  Zn  Zn101  1  1.04797476  0.96734039  0.14490712  1
  O  O102  1  0.09655981  0.05832271  0.09691501  1
  O  O103  1  0.18677178  0.08286459  0.62000734  1
  O  O104  1  0.17940897  0.64186832  0.07682242  1
  O  O105  1  0.12936160  0.67002789  0.58083342  1
  O  O106  1  0.62510664  0.15269360  0.08875925  1
  O  O107  1  0.63739794  0.12838644  0.59356364  1
  O  O108  1  0.53026372  0.56590098  0.09219149  1
  O  O109  1  0.58441218  0.58974388  0.61892196  1
  O  O110  1  0.38158019  0.39123851  0.36610656  1
  O  O111  1  0.29287000  0.41311502  0.94793099  1
  O  O112  1  0.36315864  0.93707061  0.35443071  1
  O  O113  1  0.35750869  0.88832083  0.86473759  1
  O  O114  1  0.87688216  0.33287830  0.41061674  1
  O  O115  1  0.87591221  0.39212127  0.88495427  1
  O  O116  1  0.90124612  0.85977313  0.43744306  1
  O  O117  1  0.87188791  0.83798301  0.87412588  1
  O  O118  1  0.26585752  0.02859894  0.40713039  1
  O  O119  1  0.28137019  0.00340549  0.86770176  1
  O  O120  1  0.33268746  0.52841168  0.40725775  1
  O  O121  1  0.23735561  0.51501652  0.82530492  1
  O  O122  1  0.71545901  -0.00913908  0.35801832  1
  O  O123  1  0.76473105  0.07435581  0.84582592  1
  O  O124  1  0.76463561  0.48755980  0.36099044  1
  O  O125  1  0.73812471  0.53231188  0.88574114  1
  O  O126  1  0.21268487  0.46808869  0.11761422  1
  O  O127  1  0.22673469  0.51095602  0.62720365  1
  O  O128  1  0.23001544  0.96817750  0.06512072  1
  O  O129  1  0.26732438  0.96819613  0.65562781  1
  O  O130  1  0.78769619  0.50105324  0.15897234  1
  O  O131  1  0.74406264  0.48628115  0.65214778  1
  O  O132  1  0.75979012  1.01330844  0.17217239  1
  O  O133  1  0.76996910  1.06936205  0.63451390  1
  O  O134  1  0.00174954  0.35306970  0.30038613  1
  O  O135  1  0.03284293  0.37370864  0.68837014  1
  O  O136  1  -0.04627770  0.93822566  0.30842266  1
  O  O137  1  -0.02062860  0.89441448  0.76934352  1
  O  O138  1  0.44004422  0.27304286  0.19748292  1
  O  O139  1  0.48480952  0.35451724  0.69748307  1
  O  O140  1  0.46513842  0.88127683  0.22975558  1
  O  O141  1  0.57010850  0.90165462  0.76102824  1
  O  O142  1  0.45355988  0.11736485  0.21299005  1
  O  O143  1  0.53693341  0.14677062  0.72358084  1
  O  O144  1  0.50359290  0.67521778  0.20235546  1
  O  O145  1  0.48908612  0.63804823  0.71531271  1
  O  O146  1  0.99663974  0.12594744  0.24974553  1
  O  O147  1  0.96354972  0.15881231  0.73960634  1
  O  O148  1  1.06742311  0.57159529  0.19185870  1
  O  O149  1  0.96616878  0.64698311  0.76122625  1
  O  O150  1  0.30449205  0.23700786  -0.02549249  1
  O  O151  1  0.37053228  0.26615985  0.47116543  1
  O  O152  1  0.34857023  0.78304134  0.04849236  1
  O  O153  1  0.41018284  0.72167882  0.47486743  1
  O  O154  1  0.88276103  0.28509275  0.00837637  1
  O  O155  1  0.82758187  0.25152247  0.55031313  1
  O  O156  1  0.81508933  0.66221725  0.06031285  1
  O  O157  1  0.98496820  0.76213871  0.59316318  1
  O  O158  1  0.14711672  0.21215401  0.48625355  1
  O  O159  1  0.04423107  0.20491657  1.03185262  1
  O  O160  1  0.15742446  0.75305510  0.45683335  1
  O  O161  1  0.12755786  0.74456708  0.97606289  1
  O  O162  1  0.62281796  0.39705428  0.41400133  1
  O  O163  1  0.60708260  0.28647225  0.99965604  1
  O  O164  1  0.62630484  0.73637865  0.50190367  1
  O  O165  1  0.54023208  0.69529855  1.01536156  1
  O  O166  1  0.45540232  0.24700739  0.13176374  1
  O  O167  1  0.51989223  0.23396008  0.61095085  1
  O  O168  1  0.39873803  0.90417049  0.20916846  1
  O  O169  1  0.49276424  0.71649905  0.60078529  1
  O  O170  1  0.93882762  0.35713294  0.13425341  1
  O  O171  1  1.05755501  0.20560068  0.61660393  1
  O  O172  1  1.01797017  0.72576700  0.11044471  1
  O  O173  1  0.96823036  0.78053742  0.65850586  1
  O  O174  1  0.01367931  0.19922354  0.39983299  1
  O  O175  1  0.00545755  0.30304941  0.84426828  1
  O  O176  1  0.00156772  0.78392095  0.33953429  1
  O  O177  1  0.03259505  0.80023661  0.87497965  1
  O  O178  1  0.53625574  0.24274903  0.42878134  1
  O  O179  1  0.47907807  0.25830940  0.82708366  1
  O  O180  1  0.53684780  0.75565901  0.38620156  1
  O  O181  1  0.46358646  0.68707982  1.00057282  1
  O  O182  1  0.24909011  0.08424044  0.46402613  1
  O  O183  1  0.18212213  0.14062257  0.99776185  1
  O  O184  1  0.23737935  0.62008309  0.48426365  1
  O  O185  1  0.27852030  0.60458615  0.94729094  1
  O  O186  1  0.78488545  0.11783192  0.44357965  1
  O  O187  1  0.76843548  0.14248585  1.00611187  1
  O  O188  1  0.84871461  0.74665676  0.52930712  1
  O  O189  1  0.66495796  0.61035346  1.01238196  1
  O  O190  1  0.16908983  0.34149347  0.03094652  1
  O  O191  1  0.25560468  0.37968571  0.44792905  1
  O  O192  1  0.22084120  0.90117787  0.03967901  1
  O  O193  1  0.26782039  0.86205152  0.53982836  1
  O  O194  1  0.76217590  0.38397969  0.00349287  1
  O  O195  1  0.77745024  0.39644635  0.51347616  1
  O  O196  1  0.75441708  0.80572799  0.00882662  1
  O  O197  1  0.77380652  0.90671870  0.54448789  1
  O  O198  1  0.13519364  0.43370922  0.32349379  1
  O  O199  1  0.09798204  0.52678356  0.73346317  1
  O  O200  1  0.10205000  0.96619126  0.24531081  1
  O  O201  1  0.14851084  0.98894999  0.76112825  1
  O  O202  1  0.67403952  0.47269364  0.24118157  1
  O  O203  1  0.62036687  0.44720742  0.76022614  1
  O  O204  1  0.60428670  1.03296510  0.22585126  1
  O  O205  1  0.65898741  1.02706025  0.75763395  1
  O  O206  1  0.44365892  0.04725429  0.21832617  1
  O  O207  1  0.41624098  -0.00826441  0.78604942  1
  O  O208  1  0.39911053  0.48615458  0.23104623  1
  O  O209  1  0.37031384  0.41999383  0.79147436  1
  O  O210  1  0.84307886  -0.22751680  0.29334952  1
  O  O211  1  0.87374344  0.03323573  0.74876675  1
  O  O212  1  0.87526748  0.46585799  0.26136267  1
  O  O213  1  0.84355206  0.54155764  0.78453082  1
  O  O214  1  0.08530217  0.33230092  0.42745568  1
  O  O215  1  0.09979966  0.41634983  0.86912840  1
  O  O216  1  0.16120718  0.85308984  0.33577921  1
  O  O217  1  0.17405746  0.85844977  0.87414680  1
  O  O218  1  0.59235738  0.38090784  0.35241988  1
  O  O219  1  0.56707069  0.45773474  0.80523382  1
  O  O220  1  0.67917482  0.82052723  0.41213997  1
  O  O221  1  0.67781908  0.93862837  0.89041889  1
  O  O222  1  0.35218771  0.11177798  0.08448029  1
  O  O223  1  0.36252835  0.11913486  0.64885034  1
  O  O224  1  0.52274136  0.74034405  0.18190077  1
  O  O225  1  0.37983031  0.61823328  0.60424088  1
  O  O226  1  0.87048165  0.13302913  0.15110368  1
  O  O227  1  0.91758678  0.12162306  0.58883690  1
  O  O228  1  0.94450627  0.59526570  0.15071833  1
  O  O229  1  0.86443557  0.60782638  0.64329339  1
  O  O230  1  0.22079799  0.23684137  0.11078899  1
  O  O231  1  0.23267843  0.27342808  0.64030549  1
  O  O232  1  0.28701440  0.75007471  0.03647516  1
  O  O233  1  0.26985012  0.77294511  0.66636158  1
  O  O234  1  0.76861651  0.26763433  0.12297694  1
  O  O235  1  0.66495067  0.34395621  0.61051965  1
  O  O236  1  0.67789478  0.72055599  0.11256611  1
  O  O237  1  0.80280324  0.74450966  0.58230041  1
  O  O238  1  0.27669352  0.22758311  0.35121206  1
  O  O239  1  0.15266669  0.25885685  0.91105905  1
  O  O240  1  0.26910328  0.72686481  0.34403202  1
  O  O241  1  0.25134847  0.72415175  0.85441769  1
  O  O242  1  0.69754422  0.26590148  0.38875232  1
  O  O243  1  0.75546315  0.26145371  0.88900215  1
  O  O244  1  0.72797640  0.67482932  0.41683546  1
  O  O245  1  0.72430224  0.69604841  0.91299583  1
  O  O246  1  -0.02946115  0.07353050  0.00374880  1
  O  O247  1  0.03909149  0.05072743  0.49089949  1
  O  O248  1  0.02596897  0.62012785  0.00424108  1
  O  O249  1  0.00955373  0.64617192  0.47352450  1
  O  O250  1  0.49864450  0.17171582  -0.01353954  1
  O  O251  1  0.49510358  0.10729989  0.52256089  1
  O  O252  1  0.45296806  0.61439492  -0.03024882  1
  O  O253  1  0.49341510  0.59487937  0.51258664  1
  O  O254  1  0.45374039  0.38970536  0.51398384  1
  O  O255  1  0.44381898  0.37645139  0.99579703  1
  O  O256  1  0.51241886  0.88618152  0.53517451  1
  O  O257  1  0.50035938  0.83289151  1.03607404  1
  O  O258  1  0.97134042  0.33154942  0.51594504  1
  O  O259  1  1.00039709  0.38473146  0.98496563  1
  O  O260  1  1.05589192  0.87958904  0.46882107  1
  O  O261  1  0.98324247  0.88678530  0.98646454  1
  O  O262  1  0.51194441  0.48063431  0.34541227  1
  O  O263  1  0.42068958  0.43116276  0.84009090  1
  O  O264  1  0.50194082  0.99668752  0.40883805  1
  O  O265  1  0.48414622  0.97353877  0.90705574  1
  O  O266  1  0.98922029  0.45647492  0.41703644  1
  O  O267  1  0.97299937  0.50333980  0.86519196  1
  O  O268  1  0.99055636  0.97958105  0.36136619  1
  O  O269  1  0.94636112  0.98183740  0.88996318  1
  O  O270  1  -0.05533560  -0.03182041  0.10611893  1
  O  O271  1  0.03760481  0.03642694  0.65862428  1
  O  O272  1  0.00736346  0.54723406  0.15269765  1
  O  O273  1  0.01034354  0.52692759  0.58384523  1
  O  O274  1  0.52683840  -0.12801972  0.08857652  1
  O  O275  1  0.52308980  0.01539182  0.62513316  1
  O  O276  1  0.53483756  0.41123157  0.13580383  1
  O  O277  1  0.46078226  0.51643720  0.63946967  1
  O  O278  1  0.22757906  0.35546113  0.23053298  1
  O  O279  1  0.21291898  0.40633267  0.72178282  1
  O  O280  1  0.23916795  0.88656690  0.20354510  1
  O  O281  1  0.27300847  0.82727827  0.72886246  1
  O  O282  1  0.77939479  0.37842187  0.26386055  1
  O  O283  1  0.77827677  0.34675081  0.71949990  1
  O  O284  1  0.80807240  0.75856075  0.23134215  1
  O  O285  1  0.75556776  0.93444783  0.73046473  1
  O  O286  1  0.27691120  0.10686862  0.25170872  1
  O  O287  1  0.32756212  0.14459922  0.70612552  1
  O  O288  1  0.34327466  0.68591470  0.19369528  1
  O  O289  1  0.22941721  0.61866163  0.73494937  1
  O  O290  1  0.72352245  0.14880918  0.28174200  1
  O  O291  1  0.75205089  0.13589908  0.78849081  1
  O  O292  1  0.77330649  0.58817785  0.27017769  1
  O  O293  1  0.67735748  0.63785865  0.77413176  1
  O  O294  1  0.38000175  0.10969021  0.37715316  1
  O  O295  1  0.38445503  0.08960919  0.89684238  1
  O  O296  1  0.42180209  0.59951413  0.34454952  1
  O  O297  1  0.36871257  0.61119944  0.82393417  1
  O  O298  1  0.85370216  0.07778776  0.30848573  1
  O  O299  1  0.87626244  0.16012564  0.89802392  1
  O  O300  1  0.92709520  0.61762125  0.32519726  1
  O  O301  1  0.88038595  0.62711427  0.90558017  1
  O  O302  1  0.09873319  0.36180791  0.16197597  1
  O  O303  1  0.14586568  0.38241364  0.56688613  1
  O  O304  1  0.09702307  0.86285359  0.13371860  1
  O  O305  1  0.12925873  0.91362572  0.61377497  1
  O  O306  1  0.70317275  0.29477913  0.12959917  1
  O  O307  1  0.62082620  0.37530296  0.55844998  1
  O  O308  1  0.67154368  0.88274556  0.21512806  1
  O  O309  1  0.64461513  0.78974977  0.64470941  1
  O  O310  1  0.13022872  0.26704846  0.30245862  1
  O  O311  1  0.12856101  0.20595082  0.76454014  1
  O  O312  1  0.14763015  0.75449408  0.23720585  1
  O  O313  1  0.12206671  0.75344240  0.76300274  1
  O  O314  1  0.58240364  0.21648895  0.27465287  1
  O  O315  1  0.61520606  0.27983767  0.74639043  1
  O  O316  1  0.65773675  0.73529796  0.30204258  1
  O  O317  1  0.69660516  0.81749578  0.79991784  1
  O  O318  1  0.36522031  0.25230215  0.22542916  1
  O  O319  1  0.41914897  0.24135923  0.78481796  1
  O  O320  1  0.35904028  0.75469248  0.19844742  1
  O  O321  1  0.44104347  0.75582129  0.81888469  1
  O  O322  1  0.87143455  0.24439930  0.26930664  1
  O  O323  1  0.97441803  0.33661486  0.70078145  1
  O  O324  1  0.96916260  0.75871619  0.16873693  1
  O  O325  1  0.81273689  0.71339630  0.75457923  1
  O  O326  1  0.34654323  0.49817777  0.47475162  1
  O  O327  1  0.36430058  0.50626689  1.06310021  1
  O  O328  1  0.38078292  0.99459271  0.51027788  1
  O  O329  1  0.37262156  0.96518916  0.98355825  1
  O  O330  1  0.88916258  0.53540727  0.49015459  1
  O  O331  1  0.86327263  0.49874910  0.98884239  1
  O  O332  1  0.84661498  0.93306636  0.55435083  1
  O  O333  1  0.82674385  0.98045444  1.00683692  1
  O  O334  1  0.11109656  0.01852834  -0.05219963  1
  O  O335  1  0.10267599  0.03274237  0.46661192  1
  O  O336  1  0.15155864  0.52978954  -0.01822776  1
  O  O337  1  0.10677954  0.53696450  0.46632136  1
  O  O338  1  0.65556447  -0.04469983  0.07156844  1
  O  O339  1  0.62478682  -0.01986417  0.50345676  1
  O  O340  1  0.59061938  0.47527701  -0.02029004  1
  O  O341  1  0.70352616  0.55537891  0.50595216  1
  O  O342  1  0.31682051  0.35535962  0.09976391  1
  O  O343  1  0.32273128  0.39069949  0.58375062  1
  O  O344  1  0.39028520  0.91372138  0.12901576  1
  O  O345  1  0.40268495  0.88117432  0.64749851  1
  O  O346  1  0.89924889  0.41101525  0.09466385  1
  O  O347  1  0.87675114  0.39900214  0.61298037  1
  O  O348  1  0.92445882  0.81083327  0.14427923  1
  O  O349  1  0.88284091  0.90313062  0.61435036  1
  O  O350  1  0.15491792  0.12605989  0.35062865  1
  O  O351  1  0.04085303  0.14362502  0.88460010  1
  O  O352  1  0.12159578  0.65696411  0.36168567  1
  O  O353  1  0.12234176  0.64280308  0.87506401  1
  O  O354  1  0.63095955  0.11459736  0.39314222  1
  O  O355  1  0.64243543  0.14941247  0.90990244  1
  O  O356  1  0.59327163  0.63117153  0.39079839  1
  O  O357  1  0.57293655  0.60872982  0.88411292  1
