# generated using pymatgen
data_V51Zn51O256
_symmetry_space_group_name_H-M   'P 1'
_cell_length_a   17.26615347
_cell_length_b   17.56924803
_cell_length_c   17.88671642
_cell_angle_alpha   89.76999215
_cell_angle_beta   90.12126097
_cell_angle_gamma   90.49975390
_symmetry_Int_Tables_number   1
_chemical_formula_structural   V51Zn51O256
_chemical_formula_sum   'V51 Zn51 O256'
_cell_volume   5425.73316448
_cell_formula_units_Z   1
loop_
 _symmetry_equiv_pos_site_id
 _symmetry_equiv_pos_as_xyz
  1  'x, y, z'
loop_
 _atom_site_type_symbol
 _atom_site_label
 _atom_site_symmetry_multiplicity
 _atom_site_fract_x
 _atom_site_fract_y
 _atom_site_fract_z
 _atom_site_occupancy
  V  V0  1  0.27060787  0.70299511  0.02953264  1
  V  V1  1  0.27132875  0.23393598  0.48692261  1
  V  V2  1  0.37549744  0.25379624  0.13428944  1
  V  V3  1  0.50106052  0.12434533  0.64164108  1
  V  V4  1  0.77437846  -0.01360555  0.27568713  1
  V  V5  1  0.36096158  0.51568998  0.38246736  1
  V  V6  1  0.65146902  0.03192491  0.60490596  1
  V  V7  1  0.37705717  0.38358675  -0.02685874  1
  V  V8  1  0.25897513  0.26554681  -0.02688078  1
  V  V9  1  0.65209855  0.84205433  0.74856333  1
  V  V10  1  0.01600515  0.58341314  0.65007379  1
  V  V11  1  -0.01549600  0.76687861  0.19116991  1
  V  V12  1  0.72289698  0.15286056  0.90407901  1
  V  V13  1  0.02834177  0.25780182  0.69511746  1
  V  V14  1  0.20864061  0.58410993  0.34589189  1
  V  V15  1  0.01955925  0.35125847  0.32688481  1
  V  V16  1  0.37477427  0.01091255  0.87939569  1
  V  V17  1  0.74600973  0.05198823  0.75518207  1
  V  V18  1  0.87786905  0.82899673  0.06005951  1
  V  V19  1  0.39267454  0.35798422  0.46734997  1
  V  V20  1  0.90497231  0.58288752  0.81588906  1
  V  V21  1  0.79228655  0.71844637  0.52030910  1
  V  V22  1  0.79545193  0.81733542  0.65854912  1
  V  V23  1  0.11293621  0.73651147  0.41925167  1
  V  V24  1  0.15251631  0.78218201  0.89155682  1
  V  V25  1  0.11064467  0.47714226  0.09037212  1
  V  V26  1  0.89443031  0.87695153  0.53850201  1
  V  V27  1  0.10833739  0.09051324  0.10185144  1
  V  V28  1  0.38762043  0.24956252  0.63110313  1
  V  V29  1  0.25036501  0.37854568  0.14794122  1
  V  V30  1  0.03998523  0.09554765  0.46762939  1
  V  V31  1  0.86530224  0.23987432  0.58961120  1
  V  V32  1  0.27088259  0.39126890  0.61355710  1
  V  V33  1  0.49138855  0.51096341  -0.00720604  1
  V  V34  1  0.37850447  0.72093455  0.17575663  1
  V  V35  1  0.62494897  0.36680939  0.25471167  1
  V  V36  1  0.77804655  0.14000551  0.35543787  1
  V  V37  1  0.45136986  0.83330083  0.40306616  1
  V  V38  1  0.49484914  0.59816143  0.16696446  1
  V  V39  1  0.72725355  0.50855068  0.76629922  1
  V  V40  1  -0.01486405  0.76258133  0.79175030  1
  V  V41  1  0.09526999  0.17154361  -0.05496391  1
  V  V42  1  0.71783859  0.30411203  0.01298073  1
  V  V43  1  0.87420709  0.13621284  0.21026855  1
  V  V44  1  0.75548856  0.64033485  0.93229599  1
  V  V45  1  0.87741066  0.29677239  0.11568435  1
  V  V46  1  0.13446604  0.23627941  0.34720197  1
  V  V47  1  0.60892677  0.23617291  0.36650835  1
  V  V48  1  0.75378597  0.26711911  0.47309262  1
  V  V49  1  0.85671283  0.62881369  0.25081231  1
  V  V50  1  0.49875094  0.00188045  0.48837798  1
  Zn  Zn51  1  0.67389049  0.56695645  0.22333927  1
  Zn  Zn52  1  0.45064214  0.66044601  0.34210830  1
  Zn  Zn53  1  0.03099438  0.62082391  0.28631374  1
  Zn  Zn54  1  0.48113670  0.41369410  0.59977491  1
  Zn  Zn55  1  0.47731512  0.93577205  0.71045153  1
  Zn  Zn56  1  0.43080665  0.41949956  0.21849270  1
  Zn  Zn57  1  0.79275012  0.83465071  0.87410512  1
  Zn  Zn58  1  0.37741938  0.88367200  0.23745306  1
  Zn  Zn59  1  0.18022626  0.40765714  0.45470574  1
  Zn  Zn60  1  0.92776618  0.95808613  0.75545293  1
  Zn  Zn61  1  0.07238011  0.53133309  0.91122918  1
  Zn  Zn62  1  0.17208284  0.67280141  0.18080817  1
  Zn  Zn63  1  0.30254163  0.09184964  0.05451963  1
  Zn  Zn64  1  0.31603277  0.32962105  0.79459511  1
  Zn  Zn65  1  0.61132190  0.04112254  0.33490962  1
  Zn  Zn66  1  0.78488416  0.35909900  0.86881527  1
  Zn  Zn67  1  0.68870525  0.20407760  0.65548458  1
  Zn  Zn68  1  0.24705375  0.49790577  0.96394829  1
  Zn  Zn69  1  0.93816391  0.47545063  0.16963665  1
  Zn  Zn70  1  0.54185082  0.11653384  0.83139851  1
  Zn  Zn71  1  0.05650861  0.90071394  0.45816946  1
  Zn  Zn72  1  0.20677757  0.19566050  0.16912982  1
  Zn  Zn73  1  0.05046766  0.76219566  0.60116744  1
  Zn  Zn74  1  0.43722072  0.16576641  0.45278472  1
  Zn  Zn75  1  0.35072625  0.81791716  0.94678955  1
  Zn  Zn76  1  0.96959841  0.63490158  0.47594152  1
  Zn  Zn77  1  0.13369930  0.66757116  0.75643599  1
  Zn  Zn78  1  0.82502000  0.15564821  0.01819818  1
  Zn  Zn79  1  0.31222570  0.72867967  0.37691069  1
  Zn  Zn80  1  0.15442188  0.14857128  0.60553370  1
  Zn  Zn81  1  0.67868160  0.46990181  0.94557291  1
  Zn  Zn82  1  0.82474560  0.31345503  0.29953745  1
  Zn  Zn83  1  0.53679717  0.50617532  0.32846712  1
  Zn  Zn84  1  0.55268483  0.27617544  0.52112900  1
  Zn  Zn85  1  0.06099296  0.08389830  0.79171515  1
  Zn  Zn86  1  0.71276056  0.22011355  0.19807570  1
  Zn  Zn87  1  0.07746506  0.29060725  0.07238779  1
  Zn  Zn88  1  0.95773629  0.39506168  0.79665018  1
  Zn  Zn89  1  0.90525770  0.24649944  0.91439156  1
  Zn  Zn90  1  0.75732344  0.70700227  0.11913642  1
  Zn  Zn91  1  0.30383028  0.30136855  0.30756103  1
  Zn  Zn92  1  0.95011236  0.96698458  0.16944436  1
  Zn  Zn93  1  0.33196685  0.07221583  0.55268489  1
  Zn  Zn94  1  0.54566913  0.34682333  0.08248789  1
  Zn  Zn95  1  0.57891076  0.56871751  0.83872743  1
  Zn  Zn96  1  0.75307458  0.69545102  0.76552464  1
  Zn  Zn97  1  0.69660810  0.42882722  0.38116438  1
  Zn  Zn98  1  0.84170126  0.07307703  0.51177951  1
  Zn  Zn99  1  0.32990629  0.54285763  0.09201146  1
  Zn  Zn100  1  0.08208588  0.41372368  0.63290538  1
  Zn  Zn101  1  0.61762337  0.61224215  0.04019574  1
  O  O102  1  0.09442099  0.18573633  0.12337106  1
  O  O103  1  0.05703428  0.11655991  0.55868685  1
  O  O104  1  0.12042505  0.58162853  0.12685199  1
  O  O105  1  0.10700580  0.58856224  0.69123760  1
  O  O106  1  0.51222426  0.06300056  0.10296501  1
  O  O107  1  0.61457842  0.12793270  0.61304965  1
  O  O108  1  0.60118677  0.60663590  0.14856694  1
  O  O109  1  0.58183356  0.62911665  0.57132938  1
  O  O110  1  0.38867490  0.33688821  0.37551486  1
  O  O111  1  0.38265942  0.37877242  0.87863359  1
  O  O112  1  0.33630351  0.85257496  0.38972789  1
  O  O113  1  0.38513860  0.91665236  0.92413312  1
  O  O114  1  0.92456693  0.33975763  0.34944207  1
  O  O115  1  0.88671188  0.33094989  0.85105544  1
  O  O116  1  0.98172707  0.98630276  0.31346166  1
  O  O117  1  0.86141813  0.93532793  0.86521309  1
  O  O118  1  0.25374318  -0.08546257  0.25724860  1
  O  O119  1  0.28332508  -0.00798185  0.84922817  1
  O  O120  1  0.23556853  0.49240575  0.38732149  1
  O  O121  1  0.25024762  0.47542772  0.85087665  1
  O  O122  1  0.78196665  0.03438959  0.36502561  1
  O  O123  1  0.73297282  0.05738987  0.85195264  1
  O  O124  1  0.74339866  0.51886497  0.45100551  1
  O  O125  1  0.67437949  0.58368409  0.90557255  1
  O  O126  1  0.24284202  0.47651628  0.12009726  1
  O  O127  1  0.29306187  0.48135375  0.60713586  1
  O  O128  1  0.32952244  0.97931498  0.10837879  1
  O  O129  1  0.24773774  0.88074731  0.57463526  1
  O  O130  1  0.75964329  0.49912210  0.17504496  1
  O  O131  1  0.74654392  0.46055359  0.69131393  1
  O  O132  1  0.69625635  0.93615672  0.10781646  1
  O  O133  1  0.73896978  1.03698130  0.56688730  1
  O  O134  1  0.01429689  0.41029528  0.23629444  1
  O  O135  1  0.03257426  0.35927088  0.71769677  1
  O  O136  1  -0.00924431  0.86022489  0.21124546  1
  O  O137  1  -0.04808804  0.85186679  0.78248968  1
  O  O138  1  0.52582783  0.40398483  0.27538896  1
  O  O139  1  0.56999307  0.40316035  0.67036656  1
  O  O140  1  0.38517552  0.90210224  0.34355347  1
  O  O141  1  0.55803534  0.87104787  0.74123396  1
  O  O142  1  0.46122895  0.10098348  0.24752847  1
  O  O143  1  0.51509380  0.14959861  0.73320135  1
  O  O144  1  0.50816933  0.60701942  0.26485452  1
  O  O145  1  0.49463094  0.55690694  0.68055913  1
  O  O146  1  0.96740893  0.13481346  0.22449009  1
  O  O147  1  0.98183369  0.17009951  0.74413801  1
  O  O148  1  0.94728888  0.57769513  0.22500927  1
  O  O149  1  0.99060948  0.58477654  0.86610026  1
  O  O150  1  0.36667194  0.28496526  0.00701478  1
  O  O151  1  0.39284317  0.25763904  0.50110771  1
  O  O152  1  0.36467851  0.73924304  0.02334302  1
  O  O153  1  0.28466078  0.72522278  0.57058685  1
  O  O154  1  0.85201226  0.27244243  0.01853438  1
  O  O155  1  0.86287456  0.26847528  0.49539913  1
  O  O156  1  0.85285988  0.81686838  -0.03167122  1
  O  O157  1  0.88608901  0.82449007  0.43150533  1
  O  O158  1  0.18276280  0.20634991  0.51292058  1
  O  O159  1  0.14462298  0.25578801  0.98239570  1
  O  O160  1  0.12064280  0.73648871  0.51328972  1
  O  O161  1  0.11031554  0.73982829  0.98968994  1
  O  O162  1  0.64246727  0.23943378  0.47010329  1
  O  O163  1  0.61964420  0.30418817  1.01374690  1
  O  O164  1  0.70915871  0.69104402  0.48664491  1
  O  O165  1  0.56940438  0.71547715  1.00278892  1
  O  O166  1  0.47147970  0.27956470  0.13149103  1
  O  O167  1  0.49703969  0.23876650  0.60823844  1
  O  O168  1  0.47727871  0.71166819  0.15995694  1
  O  O169  1  0.48878636  0.72284705  0.66326604  1
  O  O170  1  0.97409111  0.28496490  0.11186851  1
  O  O171  1  0.96979950  0.26149011  0.61496753  1
  O  O172  1  0.95744691  0.76483820  0.09536196  1
  O  O173  1  1.04232547  0.73893569  0.71174718  1
  O  O174  1  0.05436965  0.26764194  0.28423640  1
  O  O175  1  -0.00904391  0.23514545  0.79109856  1
  O  O176  1  0.02519458  0.68823039  0.39448682  1
  O  O177  1  0.04819378  0.75805548  0.86947509  1
  O  O178  1  0.51443371  0.21069081  0.38177507  1
  O  O179  1  0.55832091  0.32695691  0.85546277  1
  O  O180  1  0.42237266  0.73284702  0.41975301  1
  O  O181  1  0.52384512  0.73007800  0.84733033  1
  O  O182  1  0.32004823  0.14474590  0.46464227  1
  O  O183  1  0.26398351  0.16911456  0.98403419  1
  O  O184  1  0.27192724  0.67537589  0.61724135  1
  O  O185  1  0.26991419  0.60682185  1.00737862  1
  O  O186  1  0.77647615  0.14794280  0.45585177  1
  O  O187  1  0.70957057  0.12877085  0.99480674  1
  O  O188  1  0.86384352  0.65492039  0.50278168  1
  O  O189  1  0.73282779  0.64974216  1.03037369  1
  O  O190  1  0.27100191  0.38594353  -0.00993229  1
  O  O191  1  0.28079477  0.34839917  0.49528194  1
  O  O192  1  0.15788429  0.72619876  0.04804119  1
  O  O193  1  0.17438218  0.88092576  0.58292957  1
  O  O194  1  0.74613995  0.39774693  -0.00307177  1
  O  O195  1  0.74369643  0.36207062  0.46299166  1
  O  O196  1  0.61201842  0.77786671  -0.01624612  1
  O  O197  1  0.80007404  0.82695500  0.54034888  1
  O  O198  1  0.10795889  0.52730831  0.18439157  1
  O  O199  1  0.19795921  0.50972698  0.80875935  1
  O  O200  1  0.15079965  1.02940910  0.30422242  1
  O  O201  1  0.24792634  1.01248966  0.68160008  1
  O  O202  1  0.64528100  0.50019223  0.30518438  1
  O  O203  1  0.63467027  0.54573670  0.75276254  1
  O  O204  1  0.67239334  0.99040938  0.26238157  1
  O  O205  1  0.66516622  1.00763128  0.70330698  1
  O  O206  1  0.37884343  -0.01582601  0.16081891  1
  O  O207  1  0.41458913  -0.03557367  0.79710499  1
  O  O208  1  0.36742539  0.47188850  0.29838178  1
  O  O209  1  0.33049354  0.58133504  0.72731609  1
  O  O210  1  0.85782038  0.02333148  0.21684149  1
  O  O211  1  0.82938705  0.00606176  0.73342118  1
  O  O212  1  0.82427784  0.51442338  0.21074084  1
  O  O213  1  0.89046115  0.48641748  0.80661183  1
  O  O214  1  0.10384411  0.33787963  0.39319036  1
  O  O215  1  0.06683095  0.36631694  0.91786221  1
  O  O216  1  0.10660308  0.83042444  0.39296348  1
  O  O217  1  0.15888363  0.87381363  0.88110554  1
  O  O218  1  0.61240014  0.33856589  0.36863620  1
  O  O219  1  0.52386769  0.29707236  0.80340949  1
  O  O220  1  0.51819905  0.82425353  0.33839768  1
  O  O221  1  0.69598682  0.87605663  0.82840170  1
  O  O222  1  0.37234562  0.16023716  0.10627285  1
  O  O223  1  0.39526847  0.13872043  0.62714619  1
  O  O224  1  0.38176503  0.61186904  0.15568036  1
  O  O225  1  0.43251754  0.70670307  0.62443225  1
  O  O226  1  0.86399376  0.13723927  0.11324864  1
  O  O227  1  0.86876871  0.14506595  0.59585405  1
  O  O228  1  0.79944146  0.80552214  0.11585512  1
  O  O229  1  0.94418785  0.59260438  0.71814682  1
  O  O230  1  0.25566139  0.27569953  0.10704237  1
  O  O231  1  0.28989100  0.24086248  0.59833730  1
  O  O232  1  0.26679950  0.70832202  0.13222649  1
  O  O233  1  0.28503078  0.82982095  0.70254117  1
  O  O234  1  0.73891472  0.26721906  0.10456359  1
  O  O235  1  0.75164290  0.24734941  0.57628077  1
  O  O236  1  0.65857482  0.80550269  0.03227150  1
  O  O237  1  0.78809653  0.72040940  0.62877566  1
  O  O238  1  0.23694777  0.25978038  0.38867523  1
  O  O239  1  0.26433850  0.27616984  0.87911445  1
  O  O240  1  0.20235846  0.69551902  0.38049778  1
  O  O241  1  0.24644622  0.76706297  0.94868492  1
  O  O242  1  0.75427326  0.25063661  0.36651983  1
  O  O243  1  0.73140234  0.26493929  0.91781862  1
  O  O244  1  0.83498375  0.77157674  0.41940950  1
  O  O245  1  0.75057411  0.72357110  0.88260811  1
  O  O246  1  0.00114171  0.19502961  -0.05178726  1
  O  O247  1  -0.05617904  0.09580238  0.45667982  1
  O  O248  1  -0.00832293  0.62894022  0.02130655  1
  O  O249  1  0.00700448  0.65414565  0.57911228  1
  O  O250  1  0.54566761  0.09126675  0.04911684  1
  O  O251  1  0.50310440  0.10245549  0.51711093  1
  O  O252  1  0.48838959  0.59547107  0.04247608  1
  O  O253  1  0.52902386  0.62628273  0.52581363  1
  O  O254  1  0.49520408  0.37077807  0.49884262  1
  O  O255  1  0.47916808  0.40219060  1.01013817  1
  O  O256  1  0.48883635  0.88598123  0.47660125  1
  O  O257  1  0.55156373  0.93197951  1.01008207  1
  O  O258  1  1.01651596  0.46899031  0.45641982  1
  O  O259  1  1.01909165  0.35949511  0.97320511  1
  O  O260  1  0.99486629  0.84635273  0.53596289  1
  O  O261  1  0.85953683  0.97949530  0.92907530  1
  O  O262  1  0.45891162  0.55418720  0.38996595  1
  O  O263  1  0.49645934  0.53286432  0.89892946  1
  O  O264  1  0.52254208  1.01608805  0.39475637  1
  O  O265  1  0.47936006  1.04429642  0.88365719  1
  O  O266  1  1.03936251  0.45236142  0.30020713  1
  O  O267  1  1.04788724  0.42658247  0.86689824  1
  O  O268  1  0.96216032  0.93247755  0.35383360  1
  O  O269  1  1.02360019  1.00524069  0.74068446  1
  O  O270  1  0.04651649  0.02515547  0.14050337  1
  O  O271  1  0.18954048  -0.00934174  0.71537422  1
  O  O272  1  0.01353450  0.47024688  0.08389894  1
  O  O273  1  0.00997307  0.49317920  0.61366224  1
  O  O274  1  0.50088325  -0.07225983  0.05803850  1
  O  O275  1  0.49677746  0.02626225  0.65246291  1
  O  O276  1  0.47838993  0.50145192  0.15658642  1
  O  O277  1  0.45210589  0.52728009  0.63159470  1
  O  O278  1  0.23444188  0.36629839  0.24066038  1
  O  O279  1  0.26197547  0.37262766  0.70834172  1
  O  O280  1  0.20726390  0.92619317  0.20500744  1
  O  O281  1  0.35845477  0.83159166  0.70108245  1
  O  O282  1  0.72879267  0.37729183  0.27960532  1
  O  O283  1  0.71804133  0.44111031  0.84566593  1
  O  O284  1  0.79730279  0.89811769  0.28911024  1
  O  O285  1  0.80651678  0.80065919  0.75310476  1
  O  O286  1  0.21353232  0.04055337  0.33457126  1
  O  O287  1  0.23156725  0.06804691  0.60233949  1
  O  O288  1  0.22689394  0.60108044  0.25448408  1
  O  O289  1  0.36656994  0.71060633  0.80683837  1
  O  O290  1  0.75806998  0.13299594  0.24598869  1
  O  O291  1  0.74762794  0.14513393  0.72686493  1
  O  O292  1  0.76078963  0.64777185  0.20924700  1
  O  O293  1  0.79011341  0.59382847  0.77306217  1
  O  O294  1  0.39756264  0.08249547  0.27257000  1
  O  O295  1  0.35995296  0.10182571  0.84110638  1
  O  O296  1  0.31865826  0.60894812  0.38176162  1
  O  O297  1  0.37134266  0.55337846  0.77616878  1
  O  O298  1  0.87043018  0.15843796  0.32840297  1
  O  O299  1  0.83225178  0.15800165  0.90704127  1
  O  O300  1  0.84490487  0.61594379  0.33948526  1
  O  O301  1  0.84126679  0.59652687  0.91290552  1
  O  O302  1  0.13934099  0.37821087  0.10907451  1
  O  O303  1  0.16888741  0.38980595  0.57474144  1
  O  O304  1  0.20928159  1.08398803  0.12490113  1
  O  O305  1  0.14392893  0.84043638  0.63993204  1
  O  O306  1  0.61978606  0.38114059  0.16081593  1
  O  O307  1  0.61837604  0.34740050  0.64509408  1
  O  O308  1  0.51575152  0.92662316  0.21089566  1
  O  O309  1  0.70569512  0.86474476  0.65978282  1
  O  O310  1  0.18306092  0.19669109  0.27336549  1
  O  O311  1  0.11838674  0.22464027  0.67622262  1
  O  O312  1  0.06941928  0.71097287  0.21537476  1
  O  O313  1  0.19039336  0.73708014  0.81191825  1
  O  O314  1  0.62299151  0.25984932  0.25589319  1
  O  O315  1  0.64681349  0.30409381  0.70004535  1
  O  O316  1  0.56239457  0.87818665  0.19087874  1
  O  O317  1  0.65227622  0.74409592  0.74995557  1
  O  O318  1  0.34978420  0.24326370  0.22802619  1
  O  O319  1  0.38082608  0.26443337  0.72434141  1
  O  O320  1  0.36742674  0.71895333  0.27318749  1
  O  O321  1  0.38565942  0.77123604  0.83813616  1
  O  O322  1  0.85016304  0.25200609  0.20847269  1
  O  O323  1  0.83324855  0.27575433  0.69642305  1
  O  O324  1  0.90574517  0.72470272  0.24028752  1
  O  O325  1  0.90807701  0.69937359  0.80754853  1
  O  O326  1  0.37215026  0.46025424  0.46618057  1
  O  O327  1  0.37432727  0.49198832  0.99860697  1
  O  O328  1  0.39970041  0.99770106  0.50757656  1
  O  O329  1  0.35999612  1.04028909  0.97260462  1
  O  O330  1  0.96212749  0.52135214  0.44596117  1
  O  O331  1  0.93020108  0.60697351  1.04861370  1
  O  O332  1  0.88382218  0.96644202  0.51122632  1
  O  O333  1  0.91476825  1.02691802  0.93556859  1
  O  O334  1  0.10455762  0.08632953  0.00179290  1
  O  O335  1  0.07544662  0.00485153  0.45241092  1
  O  O336  1  0.13598219  0.50125743  -0.00592690  1
  O  O337  1  0.08673264  0.49372362  0.47594905  1
  O  O338  1  0.66617470  -0.00280069  0.09311021  1
  O  O339  1  0.58973932  -0.01937979  0.54426071  1
  O  O340  1  0.59650035  0.50018433  0.01136598  1
  O  O341  1  0.62150156  0.48517876  0.47393752  1
  O  O342  1  0.35573420  0.37589084  0.14584363  1
  O  O343  1  0.38215669  0.35896145  0.60542480  1
  O  O344  1  0.36993000  0.81932558  0.15652459  1
  O  O345  1  0.39488280  0.88032664  0.65144794  1
  O  O346  1  0.86983891  0.39133852  0.13265463  1
  O  O347  1  0.84459873  0.33867374  0.65826738  1
  O  O348  1  0.90430754  0.92032605  0.07910530  1
  O  O349  1  0.88339579  0.87460750  0.64112293  1
  O  O350  1  0.09043435  0.16574097  0.39924422  1
  O  O351  1  0.11867455  0.14490768  0.85566440  1
  O  O352  1  0.11007800  0.57644793  0.34785235  1
  O  O353  1  0.16292293  0.57218618  0.84500753  1
  O  O354  1  0.65374893  0.14244833  0.35178382  1
  O  O355  1  0.63039370  0.16528921  0.86464984  1
  O  O356  1  0.68269009  0.52586393  0.49467602  1
  O  O357  1  0.51052704  0.67171340  0.81014436  1
