# generated using pymatgen
data_V51Zn51O256
_symmetry_space_group_name_H-M   'P 1'
_cell_length_a   17.52336742
_cell_length_b   17.49159522
_cell_length_c   17.36458905
_cell_angle_alpha   91.32568497
_cell_angle_beta   91.96395434
_cell_angle_gamma   90.60762032
_symmetry_Int_Tables_number   1
_chemical_formula_structural   V51Zn51O256
_chemical_formula_sum   'V51 Zn51 O256'
_cell_volume   5317.55255753
_cell_formula_units_Z   1
loop_
 _symmetry_equiv_pos_site_id
 _symmetry_equiv_pos_as_xyz
  1  'x, y, z'
loop_
 _atom_site_type_symbol
 _atom_site_label
 _atom_site_symmetry_multiplicity
 _atom_site_fract_x
 _atom_site_fract_y
 _atom_site_fract_z
 _atom_site_occupancy
  V  V0  1  0.76248012  0.71774900  -0.01089124  1
  V  V1  1  0.05206458  0.26888390  0.25430884  1
  V  V2  1  0.24093562  0.41358139  0.06568417  1
  V  V3  1  0.59583322  0.28632036  0.32315429  1
  V  V4  1  0.10957562  0.24581590  0.88259091  1
  V  V5  1  0.02507472  0.59887818  0.10898677  1
  V  V6  1  0.01362578  0.38588296  0.39261814  1
  V  V7  1  0.70043818  0.24751436  -0.01280775  1
  V  V8  1  0.02470132  0.00453851  -0.00530223  1
  V  V9  1  -0.02811165  0.12954321  0.64137116  1
  V  V10  1  0.54866842  0.05443460  0.05604911  1
  V  V11  1  0.72143966  0.91843898  0.61381414  1
  V  V12  1  0.11815234  0.15916357  0.51872500  1
  V  V13  1  0.06116590  -0.03684640  0.64323008  1
  V  V14  1  0.13549048  0.45326482  0.70308235  1
  V  V15  1  0.75691018  0.36121118  0.11286634  1
  V  V16  1  0.70272724  0.05359819  0.93383776  1
  V  V17  1  0.90010235  0.73998241  0.10615730  1
  V  V18  1  0.88381261  0.00391790  0.88687558  1
  V  V19  1  0.14523153  0.60888878  0.51056250  1
  V  V20  1  -0.04062477  0.27056965  0.74399649  1
  V  V21  1  0.39352744  0.04864661  0.29003006  1
  V  V22  1  0.58789540  0.32703841  0.74493605  1
  V  V23  1  0.60108049  0.62758436  -0.00466081  1
  V  V24  1  0.47573625  0.48552545  -0.00619731  1
  V  V25  1  -0.05644301  0.63856045  0.73385404  1
  V  V26  1  0.39971265  0.64306879  0.22869698  1
  V  V27  1  0.72093538  0.45446188  0.75336356  1
  V  V28  1  0.88567510  -0.00471836  0.35598815  1
  V  V29  1  0.05629114  0.12194878  0.14512784  1
  V  V30  1  0.15888184  0.42156807  0.23699119  1
  V  V31  1  0.86823683  0.12326256  0.21488267  1
  V  V32  1  0.75296192  0.85852602  0.09815023  1
  V  V33  1  0.50280860  0.77324406  0.24912786  1
  V  V34  1  0.22736772  0.84217611  0.18672214  1
  V  V35  1  0.42407516  -0.06000954  0.82095004  1
  V  V36  1  0.92067316  0.63420224  0.24746665  1
  V  V37  1  0.67644406  0.20522354  0.44971183  1
  V  V38  1  0.71864756  0.49480220  0.22994757  1
  V  V39  1  0.25501615  0.85957180  0.61179924  1
  V  V40  1  0.53885221  0.50987980  0.50049630  1
  V  V41  1  0.47323160  0.03757345  0.55432145  1
  V  V42  1  0.85273390  0.35997383  0.47595038  1
  V  V43  1  0.22622881  -0.01848684  0.33219286  1
  V  V44  1  0.65248703  0.71175965  0.83470495  1
  V  V45  1  0.76182876  0.56949058  0.89217291  1
  V  V46  1  0.38810914  0.61083835  0.72204014  1
  V  V47  1  0.45345755  0.35736683  0.85988725  1
  V  V48  1  0.76119982  -0.01333941  0.21738699  1
  V  V49  1  0.45070393  0.26211704  0.19722426  1
  V  V50  1  0.05453298  0.90365213  0.30069171  1
  Zn  Zn51  1  0.03336384  0.32761522  0.57392709  1
  Zn  Zn52  1  0.41772415  0.45789571  0.19344437  1
  Zn  Zn53  1  0.07897613  0.59917948  0.82211247  1
  Zn  Zn54  1  0.20602062  0.93801099  1.02662374  1
  Zn  Zn55  1  0.56170925  0.53743858  0.82479674  1
  Zn  Zn56  1  0.25356075  0.46695335  0.40481664  1
  Zn  Zn57  1  0.65430526  0.86551930  0.94266806  1
  Zn  Zn58  1  0.69737555  0.14895342  0.12074919  1
  Zn  Zn59  1  0.68995054  0.67879587  0.16999197  1
  Zn  Zn60  1  0.47797390  0.70864947  0.46591741  1
  Zn  Zn61  1  0.63885283  0.42276682  0.94969616  1
  Zn  Zn62  1  0.33049233  0.61634343  0.44630037  1
  Zn  Zn63  1  0.75445173  0.63085905  0.69594724  1
  Zn  Zn64  1  0.37559060  -0.04323832  0.11175436  1
  Zn  Zn65  1  0.78784573  0.30869865  0.82098837  1
  Zn  Zn66  1  0.08099189  0.76342787  0.64795541  1
  Zn  Zn67  1  -0.01621918  0.47973985  0.23479067  1
  Zn  Zn68  1  0.51424178  0.18936448  0.91820999  1
  Zn  Zn69  1  0.56374087  0.06840614  0.79188568  1
  Zn  Zn70  1  0.89570447  0.95695029  0.09514226  1
  Zn  Zn71  1  0.37005741  0.58026956  0.05513390  1
  Zn  Zn72  1  0.80282497  0.56852764  0.10158394  1
  Zn  Zn73  1  0.81390696  0.07845318  0.52288500  1
  Zn  Zn74  1  0.93308367  0.64130852  0.93761050  1
  Zn  Zn75  1  0.26259268  0.35315373  0.79746597  1
  Zn  Zn76  1  0.98947377  0.58450835  0.41335844  1
  Zn  Zn77  1  0.86439696  0.83177605  0.26441319  1
  Zn  Zn78  1  0.05593511  0.06830038  0.80735824  1
  Zn  Zn79  1  0.75781648  0.88932677  0.82165945  1
  Zn  Zn80  1  0.20313433  0.62834446  0.19477454  1
  Zn  Zn81  1  0.50752218  0.14696672  0.38362049  1
  Zn  Zn82  1  0.05523215  0.08467100  0.33316548  1
  Zn  Zn83  1  0.27728694  0.06498607  0.59669936  1
  Zn  Zn84  1  0.39791914  0.29975095  0.01434815  1
  Zn  Zn85  1  0.45698908  0.83173993  0.58366317  1
  Zn  Zn86  1  0.78036306  0.28815151  0.28793423  1
  Zn  Zn87  1  0.14300344  0.91279372  0.47113911  1
  Zn  Zn88  1  0.50361888  0.76601539  0.93044754  1
  Zn  Zn89  1  0.46746903  0.76905280  0.75416683  1
  Zn  Zn90  1  0.10337279  0.28883140  0.08752393  1
  Zn  Zn91  1  0.88078957  0.96617033  0.69207451  1
  Zn  Zn92  1  0.59863659  0.32321529  0.54807955  1
  Zn  Zn93  1  0.54800274  0.87551361  0.08831918  1
  Zn  Zn94  1  0.61964491  0.15822671  0.64121721  1
  Zn  Zn95  1  0.57673961  0.04821233  0.22793663  1
  Zn  Zn96  1  0.55112650  0.57134900  0.29310791  1
  Zn  Zn97  1  0.70001843  0.41472522  0.40584330  1
  Zn  Zn98  1  0.73877667  0.50483266  0.55889235  1
  Zn  Zn99  1  0.06262439  0.85353820  0.12050650  1
  Zn  Zn100  1  0.89684406  0.45475682  0.74546528  1
  Zn  Zn101  1  0.45991315  0.89386680  0.39330056  1
  O  O102  1  0.12763570  0.18394398  0.12132639  1
  O  O103  1  0.26281455  0.12698994  0.83754813  1
  O  O104  1  0.12024452  0.62461363  0.12040580  1
  O  O105  1  0.17544212  0.55463875  0.58559848  1
  O  O106  1  0.59082143  0.11002419  0.13465407  1
  O  O107  1  0.62818125  0.21554075  0.55157770  1
  O  O108  1  0.61576532  0.63800721  0.09270941  1
  O  O109  1  0.73722492  0.60691286  0.59067071  1
  O  O110  1  0.32081865  0.27670766  0.37157129  1
  O  O111  1  0.36087873  0.38257867  0.84159839  1
  O  O112  1  0.43830222  0.81959821  0.46902469  1
  O  O113  1  0.45434171  0.83848701  0.85030886  1
  O  O114  1  0.82923461  0.32618519  0.38386477  1
  O  O115  1  0.93749551  0.34606132  0.97231006  1
  O  O116  1  0.86639485  0.89868479  0.35823531  1
  O  O117  1  0.85285436  0.91102090  0.87987717  1
  O  O118  1  0.23284088  -0.03484837  0.42833424  1
  O  O119  1  0.34218820  -0.06682451  0.87149989  1
  O  O120  1  0.29041405  0.56167623  0.35884912  1
  O  O121  1  0.23205466  0.63330284  0.99437141  1
  O  O122  1  0.77890061  0.00528535  0.31367857  1
  O  O123  1  0.69854976  -0.04390138  0.89734601  1
  O  O124  1  0.74452288  0.47929261  0.32385386  1
  O  O125  1  0.72085182  0.48210370  0.90649849  1
  O  O126  1  0.28247116  0.51408623  0.09527229  1
  O  O127  1  0.30864009  0.51905741  0.49199606  1
  O  O128  1  0.30909077  0.96148290  0.02370839  1
  O  O129  1  0.26444350  0.95796424  0.61350022  1
  O  O130  1  0.74962765  0.46963227  0.12283589  1
  O  O131  1  0.74120140  0.45321012  0.65826827  1
  O  O132  1  0.77010219  0.95195275  0.07761498  1
  O  O133  1  0.73317105  1.01562699  0.57916321  1
  O  O134  1  0.06291564  0.41458869  0.27125102  1
  O  O135  1  -0.04456784  0.36532380  0.72345692  1
  O  O136  1  -0.02489380  0.85726536  0.26335002  1
  O  O137  1  -0.08876677  0.85021025  0.72491538  1
  O  O138  1  0.41941806  0.35358233  0.22091078  1
  O  O139  1  0.48189080  0.33146688  0.76626273  1
  O  O140  1  0.52262464  0.83803861  0.32407273  1
  O  O141  1  0.51948173  0.81781242  0.67701758  1
  O  O142  1  0.50330172  0.06848546  0.29832738  1
  O  O143  1  0.49301696  0.13868754  0.82076395  1
  O  O144  1  0.52129262  0.67064793  0.24703625  1
  O  O145  1  0.48202090  0.57991647  0.75891261  1
  O  O146  1  1.05129748  0.16405492  0.25444715  1
  O  O147  1  0.98407444  0.13643932  0.74114539  1
  O  O148  1  1.01450394  0.63214459  0.22112267  1
  O  O149  1  0.97910640  0.64084626  0.83456219  1
  O  O150  1  0.30260848  0.15133068  0.00994049  1
  O  O151  1  0.39524589  0.26482240  0.52913518  1
  O  O152  1  0.39829041  0.78215935  -0.00335154  1
  O  O153  1  0.37979398  0.68177450  0.51936937  1
  O  O154  1  0.71888971  0.25565963  0.09787175  1
  O  O155  1  0.83113625  0.29828098  0.54062025  1
  O  O156  1  0.87086371  0.71585556  -0.00193074  1
  O  O157  1  0.78289821  0.72348400  0.49590164  1
  O  O158  1  0.10722742  0.25532467  0.53506185  1
  O  O159  1  0.09808929  0.27320221  0.97716798  1
  O  O160  1  0.12723297  0.68847602  0.57013399  1
  O  O161  1  0.05061647  0.76256839  0.94634394  1
  O  O162  1  0.66917296  0.31800964  0.46341414  1
  O  O163  1  0.60878667  0.24218966  0.95359268  1
  O  O164  1  0.64088406  0.67819326  0.40234027  1
  O  O165  1  0.65391150  0.71852330  0.97017925  1
  O  O166  1  0.44605484  0.24914687  0.09839417  1
  O  O167  1  0.45021620  0.27707528  0.57468463  1
  O  O168  1  0.49664784  0.81641577  0.16179228  1
  O  O169  1  0.53590034  0.76379304  0.54407225  1
  O  O170  1  1.01948047  0.29290497  0.16371742  1
  O  O171  1  0.98197497  0.24159631  0.64326574  1
  O  O172  1  0.99550912  0.75664278  0.10663160  1
  O  O173  1  1.01146215  0.69063554  0.68714191  1
  O  O174  1  -0.00672088  0.30046665  0.33290449  1
  O  O175  1  0.02188435  0.26966455  0.82900726  1
  O  O176  1  -0.04997816  0.80666845  0.47988103  1
  O  O177  1  0.05337139  0.80412537  0.88538975  1
  O  O178  1  0.53079950  0.25814889  0.38953450  1
  O  O179  1  0.43646776  0.26772626  0.90901564  1
  O  O180  1  0.57968186  0.72203827  0.39468559  1
  O  O181  1  0.55030850  0.73015853  0.83152042  1
  O  O182  1  0.21053152  0.12918433  0.54085910  1
  O  O183  1  0.24287736  0.11540325  0.99831978  1
  O  O184  1  0.22824097  0.65815198  0.48193592  1
  O  O185  1  0.34783706  0.73125049  0.99668610  1
  O  O186  1  0.75690981  0.15953301  0.47515552  1
  O  O187  1  0.71326041  0.14069214  1.00577138  1
  O  O188  1  0.78656154  0.76705848  0.44164912  1
  O  O189  1  0.74804783  0.60757428  1.00397699  1
  O  O190  1  0.19496490  0.44523965  -0.01117452  1
  O  O191  1  0.29515996  0.36983064  0.45631166  1
  O  O192  1  0.17253757  0.85997917  0.09578868  1
  O  O193  1  0.19743325  0.83774262  0.53355413  1
  O  O194  1  0.70407226  0.35909515  0.01340484  1
  O  O195  1  0.78970157  0.44221171  0.48653745  1
  O  O196  1  0.75570670  0.82226132  -0.01054183  1
  O  O197  1  0.67777159  0.89155392  0.52696652  1
  O  O198  1  0.16571834  0.51651387  0.22307327  1
  O  O199  1  0.11687751  0.54786081  0.73293078  1
  O  O200  1  0.12799600  0.99865732  0.31119311  1
  O  O201  1  0.10385539  1.00604599  0.72563957  1
  O  O202  1  0.62290570  0.50968915  0.23203799  1
  O  O203  1  0.62470180  0.47869848  0.75857570  1
  O  O204  1  0.66163405  0.98625641  0.20958784  1
  O  O205  1  0.62441387  1.07719608  0.70872992  1
  O  O206  1  0.39925713  -0.03784530  0.33446993  1
  O  O207  1  0.39876086  -0.12316768  0.73916504  1
  O  O208  1  0.44213468  0.54921986  0.25565338  1
  O  O209  1  0.36249502  0.56305494  0.80317445  1
  O  O210  1  0.87001662  -0.00263690  0.19778639  1
  O  O211  1  0.88422365  0.02103545  0.78625250  1
  O  O212  1  0.89157718  0.53714763  0.23870444  1
  O  O213  1  0.81444849  0.41631151  0.79878790  1
  O  O214  1  0.10163107  0.38245561  0.42491580  1
  O  O215  1  0.08838842  0.42155547  0.79488789  1
  O  O216  1  0.08319958  0.86308609  0.38555585  1
  O  O217  1  0.22128221  0.79851046  0.93653739  1
  O  O218  1  0.61071295  0.38234375  0.32963641  1
  O  O219  1  0.57288851  0.36865053  0.87043913  1
  O  O220  1  0.68429988  0.79509507  0.29149742  1
  O  O221  1  0.68228215  0.81116935  0.84013075  1
  O  O222  1  0.38505525  0.03248479  0.19322787  1
  O  O223  1  0.31121132  0.12289461  0.68142683  1
  O  O224  1  0.40012726  0.65239795  0.13098773  1
  O  O225  1  0.38399965  0.54343210  0.65016732  1
  O  O226  1  0.94514942  0.12661765  0.15295999  1
  O  O227  1  0.88155499  0.12309451  0.60168396  1
  O  O228  1  0.90329521  0.62790846  0.11626020  1
  O  O229  1  0.85528596  0.67600732  0.72000890  1
  O  O230  1  0.30005967  0.34235344  0.03572900  1
  O  O231  1  0.26654540  0.30211426  0.58627347  1
  O  O232  1  0.22082715  0.74717024  0.20075844  1
  O  O233  1  0.19713585  0.78966106  0.67740182  1
  O  O234  1  0.59270874  0.36552277  0.10693254  1
  O  O235  1  0.75420055  0.16778852  0.67650114  1
  O  O236  1  0.76280533  0.73088357  0.09916311  1
  O  O237  1  0.73672750  0.82208293  0.62364718  1
  O  O238  1  0.27704491  0.30083826  0.42178494  1
  O  O239  1  0.18997541  0.29024094  0.84845592  1
  O  O240  1  0.28189233  0.79659589  0.40957784  1
  O  O241  1  0.21566206  0.76219566  0.87491919  1
  O  O242  1  0.68638654  0.23798046  0.33847530  1
  O  O243  1  0.76265982  0.25822672  0.91384691  1
  O  O244  1  0.74808360  0.76020488  0.29817007  1
  O  O245  1  0.76124412  0.68441928  0.88345815  1
  O  O246  1  0.03351013  0.09373771  0.03770703  1
  O  O247  1  0.05337665  0.11740870  0.58529441  1
  O  O248  1  0.01098956  0.61023827  0.01030654  1
  O  O249  1  0.04353198  0.57420229  0.51639479  1
  O  O250  1  0.49826058  0.11433196  -0.00088913  1
  O  O251  1  0.47575010  0.11501333  0.49056088  1
  O  O252  1  0.51267709  0.66397890  -0.02301762  1
  O  O253  1  0.53177239  0.61076148  0.50861351  1
  O  O254  1  0.54020240  0.40546940  0.49374520  1
  O  O255  1  0.46065925  0.38774260  0.98178065  1
  O  O256  1  0.47000567  0.94446039  0.59677289  1
  O  O257  1  0.55634333  0.84835031  0.98092161  1
  O  O258  1  0.96194865  0.36903448  0.48571512  1
  O  O259  1  1.05124394  0.45494836  0.96548022  1
  O  O260  1  0.93882031  0.76209008  0.53241958  1
  O  O261  1  1.00626906  0.93377141  1.06974613  1
  O  O262  1  0.53374745  0.52764712  0.40015649  1
  O  O263  1  0.49421893  0.46342725  0.87100419  1
  O  O264  1  0.49107079  0.97441737  0.47253746  1
  O  O265  1  0.51986241  0.96718049  0.78503193  1
  O  O266  1  0.98268339  0.48078629  0.37235654  1
  O  O267  1  1.01785726  0.48415325  0.91088327  1
  O  O268  1  0.98923650  0.99067397  0.33563713  1
  O  O269  1  0.99567530  1.01670542  0.88893873  1
  O  O270  1  0.09452798  0.04098114  0.16868248  1
  O  O271  1  -0.03181507  0.00989402  0.64136940  1
  O  O272  1  0.01373873  0.50390526  0.12614447  1
  O  O273  1  -0.06011167  0.54256311  0.70495159  1
  O  O274  1  0.49359023  -0.02404041  0.09232460  1
  O  O275  1  0.45741946  0.08480469  0.64224041  1
  O  O276  1  0.45687167  0.49399988  0.09204501  1
  O  O277  1  0.56954048  0.51805088  0.59751936  1
  O  O278  1  0.22518147  0.41279399  0.31153589  1
  O  O279  1  0.22895922  0.43151602  0.72007437  1
  O  O280  1  0.24705072  0.89616331  0.28213364  1
  O  O281  1  0.21275222  0.86172420  0.71032946  1
  O  O282  1  0.73575614  0.36787548  0.21611414  1
  O  O283  1  0.69006956  0.34928127  0.77430992  1
  O  O284  1  0.77541914  0.87993787  0.20627313  1
  O  O285  1  0.76194275  0.93593602  0.71456780  1
  O  O286  1  0.28605852  0.05752749  0.30796603  1
  O  O287  1  0.31764570  0.16855013  0.85433426  1
  O  O288  1  0.30448948  0.62020595  0.24021390  1
  O  O289  1  0.29694385  0.63486836  0.69036036  1
  O  O290  1  0.76882776  0.09043030  0.18009801  1
  O  O291  1  0.78295166  0.13127791  0.72967594  1
  O  O292  1  0.75043845  0.59251278  0.20663324  1
  O  O293  1  0.75654130  0.55598861  0.78346235  1
  O  O294  1  0.39875519  0.13473304  0.36463836  1
  O  O295  1  0.38586767  0.01852669  0.77958781  1
  O  O296  1  0.42335053  0.64323378  0.39440859  1
  O  O297  1  0.38104448  0.70622151  0.78658230  1
  O  O298  1  0.89461478  0.09913501  0.30801079  1
  O  O299  1  0.80148320  0.06400800  0.90748565  1
  O  O300  1  0.93114603  0.64899292  0.34619617  1
  O  O301  1  0.85727851  0.55937514  0.90871089  1
  O  O302  1  0.16813190  0.37788519  0.13295886  1
  O  O303  1  0.09122900  0.41677772  0.61825308  1
  O  O304  1  0.11405017  0.86909065  0.22553555  1
  O  O305  1  0.04525167  0.86543184  0.65125506  1
  O  O306  1  0.55765334  0.39055814  0.16135443  1
  O  O307  1  0.58478105  0.35732911  0.65181260  1
  O  O308  1  0.65728122  0.85194627  0.10560395  1
  O  O309  1  0.64011286  0.93307547  0.66137251  1
  O  O310  1  0.14405341  0.29465022  0.26268330  1
  O  O311  1  0.10033260  0.36100259  0.74803039  1
  O  O312  1  0.28681645  0.74064563  0.36661441  1
  O  O313  1  0.07815716  0.77327445  0.82271595  1
  O  O314  1  0.55278473  0.25564055  0.23258027  1
  O  O315  1  0.59546793  0.23153722  0.72959968  1
  O  O316  1  0.63448208  0.75841043  0.23633155  1
  O  O317  1  0.67040644  0.68660345  0.74308044  1
  O  O318  1  0.39752257  0.19429186  0.23561497  1
  O  O319  1  0.30325809  0.28137138  0.70776373  1
  O  O320  1  0.40495748  0.74367414  0.26501833  1
  O  O321  1  0.44841754  0.68130575  0.67275973  1
  O  O322  1  0.83952442  0.21654792  0.22813733  1
  O  O323  1  0.86994816  0.25191221  0.77352213  1
  O  O324  1  0.87917612  0.72931424  0.21444371  1
  O  O325  1  0.86574616  0.81696882  0.76794318  1
  O  O326  1  0.44328655  0.48963102  0.51207420  1
  O  O327  1  0.40137290  0.54132477  0.95911325  1
  O  O328  1  0.37259500  1.04474298  0.53737403  1
  O  O329  1  0.47224026  0.97308238  0.90584833  1
  O  O330  1  0.88495810  0.59092868  0.48711423  1
  O  O331  1  0.89697452  0.40196145  0.96491148  1
  O  O332  1  0.87458777  1.02528666  0.44793608  1
  O  O333  1  0.91184122  1.00347658  0.99285460  1
  O  O334  1  0.11721526  -0.02431122  -0.02354930  1
  O  O335  1  0.10670146  -0.02674592  0.55782397  1
  O  O336  1  0.16793163  0.62037858  -0.03881150  1
  O  O337  1  0.16510633  0.53002663  0.44611658  1
  O  O338  1  0.62587426  0.01905266  0.00753863  1
  O  O339  1  0.57095284  0.05926158  0.57386661  1
  O  O340  1  0.57753667  0.51771684  -0.00915284  1
  O  O341  1  0.64209844  0.49582817  0.48095893  1
  O  O342  1  0.30266130  0.46223747  0.15636905  1
  O  O343  1  0.24996583  0.27595466  0.65060053  1
  O  O344  1  0.31523462  0.86620879  0.15277555  1
  O  O345  1  0.34520455  0.82165563  0.60168106  1
  O  O346  1  0.84758899  0.34951320  0.10247088  1
  O  O347  1  0.88250171  0.61393706  0.55507427  1
  O  O348  1  0.86907165  0.83629271  0.10374123  1
  O  O349  1  0.82673214  0.92992853  0.59347087  1
  O  O350  1  0.08921693  0.13476575  0.42643200  1
  O  O351  1  0.11499161  0.14845135  0.86689869  1
  O  O352  1  0.08996440  0.65174467  0.42330113  1
  O  O353  1  0.17269800  0.59305187  0.88501077  1
  O  O354  1  0.61563144  0.13252722  0.41668079  1
  O  O355  1  0.64804897  0.09476072  0.86551085  1
  O  O356  1  0.65320319  0.62401835  0.34918121  1
  O  O357  1  0.63267430  0.60810533  0.88050372  1
