# generated using pymatgen
data_V51Zn51O256
_symmetry_space_group_name_H-M   'P 1'
_cell_length_a   17.12967792
_cell_length_b   17.07197849
_cell_length_c   17.15010194
_cell_angle_alpha   90.27014386
_cell_angle_beta   89.82267163
_cell_angle_gamma   89.76833711
_symmetry_Int_Tables_number   1
_chemical_formula_structural   V51Zn51O256
_chemical_formula_sum   'V51 Zn51 O256'
_cell_volume   5015.21175583
_cell_formula_units_Z   1
loop_
 _symmetry_equiv_pos_site_id
 _symmetry_equiv_pos_as_xyz
  1  'x, y, z'
loop_
 _atom_site_type_symbol
 _atom_site_label
 _atom_site_symmetry_multiplicity
 _atom_site_fract_x
 _atom_site_fract_y
 _atom_site_fract_z
 _atom_site_occupancy
  V  V0  1  0.11145095  0.50872721  0.65639216  1
  V  V1  1  0.75329600  0.75968434  0.52132653  1
  V  V2  1  0.73603898  0.12111774  0.37346244  1
  V  V3  1  0.88718196  0.24820886  0.61121919  1
  V  V4  1  0.63662859  0.74902614  0.87082515  1
  V  V5  1  -0.00514669  -0.01023212  0.51905580  1
  V  V6  1  0.60877762  0.87860439  0.73509968  1
  V  V7  1  0.39127984  0.11939685  0.24629414  1
  V  V8  1  0.83125123  0.83763834  0.03178835  1
  V  V9  1  0.01974899  0.35880079  0.38723044  1
  V  V10  1  0.21810990  -0.00180546  0.25772258  1
  V  V11  1  0.60713194  0.35191251  0.28803469  1
  V  V12  1  0.39314804  0.46433660  0.93519969  1
  V  V13  1  0.10523166  0.13536147  0.48915227  1
  V  V14  1  0.60621525  0.11551134  0.02476900  1
  V  V15  1  0.37840156  0.52660162  0.37642100  1
  V  V16  1  0.25167342  0.48179268  0.25985600  1
  V  V17  1  0.74095482  -0.01367149  0.24071501  1
  V  V18  1  0.47884072  0.34261342  0.40663182  1
  V  V19  1  0.10864519  0.12656517  0.00139660  1
  V  V20  1  -0.03891519  0.74265593  0.23624377  1
  V  V21  1  0.47776649  0.76439385  0.76093998  1
  V  V22  1  0.89188186  0.12059211  0.72662208  1
  V  V23  1  0.48103640  0.64042526  0.64006675  1
  V  V24  1  0.49323609  0.50201043  0.51878350  1
  V  V25  1  0.28010624  0.48967697  0.77688117  1
  V  V26  1  0.26370437  0.01151310  0.72475652  1
  V  V27  1  -0.01155998  0.11457639  0.12861125  1
  V  V28  1  0.86543972  0.38342359  0.49171011  1
  V  V29  1  0.87573626  0.58758215  0.27848407  1
  V  V30  1  0.74244860  -0.00701416  0.72385841  1
  V  V31  1  0.37488549  0.91242882  0.00982435  1
  V  V32  1  0.12997868  0.36336364  0.24042637  1
  V  V33  1  -0.01216789  0.25865412  0.23436576  1
  V  V34  1  0.88198682  -0.00468333  0.86358210  1
  V  V35  1  0.39662449  -0.02379448  0.37787373  1
  V  V36  1  0.25164903  0.37845583  0.62600404  1
  V  V37  1  0.51712664  0.25675745  0.74713899  1
  V  V38  1  0.62292288  0.62588534  0.50616561  1
  V  V39  1  0.22972796  0.15188805  0.85183416  1
  V  V40  1  0.02483075  0.49600674  0.00004657  1
  V  V41  1  0.28262347  0.64475179  0.89155455  1
  V  V42  1  0.27956137  0.25417490  0.03090747  1
  V  V43  1  0.74265902  0.23836503  0.50188640  1
  V  V44  1  0.02058270  0.50766003  0.49248296  1
  V  V45  1  -0.00581650  0.86558440  0.37336483  1
  V  V46  1  0.88132846  0.00666769  0.36302279  1
  V  V47  1  0.74836363  0.13520932  0.84514286  1
  V  V48  1  -0.00060584  0.26695558  0.75369795  1
  V  V49  1  0.36035415  0.84140980  0.50884858  1
  V  V50  1  0.63283587  0.76024934  0.36426101  1
  Zn  Zn51  1  0.32152270  0.51693648  0.58336314  1
  Zn  Zn52  1  0.04732434  0.54247051  0.30049824  1
  Zn  Zn53  1  0.17994026  0.19268963  0.17548243  1
  Zn  Zn54  1  0.31967959  0.30722368  0.31021181  1
  Zn  Zn55  1  0.93876969  0.17827102  0.43616278  1
  Zn  Zn56  1  0.50348709  0.79193330  -0.02423924  1
  Zn  Zn57  1  0.69290745  0.18505162  0.66959276  1
  Zn  Zn58  1  0.78015431  0.83947796  0.83906703  1
  Zn  Zn59  1  0.74853864  0.78107522  0.20188604  1
  Zn  Zn60  1  0.21164358  0.64127701  0.70042573  1
  Zn  Zn61  1  0.06554318  0.07017098  0.81143456  1
  Zn  Zn62  1  0.81757321  0.05941376  0.55089822  1
  Zn  Zn63  1  0.68632534  0.95289426  0.91821955  1
  Zn  Zn64  1  0.04715394  0.56441586  0.83277666  1
  Zn  Zn65  1  0.31052290  0.03964624  0.52413917  1
  Zn  Zn66  1  0.71441344  0.92100679  0.43412041  1
  Zn  Zn67  1  0.93724883  0.17352471  0.92018409  1
  Zn  Zn68  1  0.18584619  0.19994836  0.67749948  1
  Zn  Zn69  1  0.49455231  0.60992974  0.86037343  1
  Zn  Zn70  1  0.42368514  0.16292992  0.39590895  1
  Zn  Zn71  1  0.93293614  0.92305126  0.70996776  1
  Zn  Zn72  1  0.40975310  0.11889452  0.94614029  1
  Zn  Zn73  1  0.56427807  0.04563879  0.31923101  1
  Zn  Zn74  1  0.59314523  0.52411267  0.36742587  1
  Zn  Zn75  1  0.93297934  0.68178302  0.93306314  1
  Zn  Zn76  1  0.45873761  0.69691453  0.42666323  1
  Zn  Zn77  1  0.93073200  0.68754521  0.43825586  1
  Zn  Zn78  1  0.81893148  0.58674610  0.48312940  1
  Zn  Zn79  1  0.47220548  0.44546011  0.25257445  1
  Zn  Zn80  1  0.56268566  0.06466622  0.79988490  1
  Zn  Zn81  1  0.64815993  0.38838641  0.49763213  1
  Zn  Zn82  1  0.05582186  0.07774747  0.30909869  1
  Zn  Zn83  1  0.28854743  0.55637026  0.06822737  1
  Zn  Zn84  1  0.64986400  0.27523296  0.90851190  1
  Zn  Zn85  1  0.54999331  0.80182879  0.56039718  1
  Zn  Zn86  1  0.35433029  0.90081101  0.22939139  1
  Zn  Zn87  1  0.19360609  0.44591343  0.43836454  1
  Zn  Zn88  1  0.20438915  0.40247105  0.93369900  1
  Zn  Zn89  1  0.86079535  0.67820717  0.08833297  1
  Zn  Zn90  1  0.07227378  0.32569079  0.57183338  1
  Zn  Zn91  1  0.83567761  0.02319063  0.06973163  1
  Zn  Zn92  1  0.66339175  0.68604757  0.68652854  1
  Zn  Zn93  1  0.93955263  0.42781603  0.66327311  1
  Zn  Zn94  1  0.31041133  0.82892870  0.82717734  1
  Zn  Zn95  1  0.93206222  0.93469429  0.19002821  1
  Zn  Zn96  1  0.66278719  0.16471440  0.20684955  1
  Zn  Zn97  1  0.81635690  0.30599611  0.32773460  1
  Zn  Zn98  1  0.19228631  0.95963886  0.94220804  1
  Zn  Zn99  1  0.44148816  0.43342724  0.69317522  1
  Zn  Zn100  1  0.16223483  0.94255092  0.42285335  1
  Zn  Zn101  1  0.81323937  0.80941949  0.34543852  1
  O  O102  1  0.10394331  0.14023708  0.10859430  1
  O  O103  1  0.16549223  0.11688607  0.58860667  1
  O  O104  1  0.11613373  0.69860982  0.18287689  1
  O  O105  1  0.11021891  0.60850314  0.64756793  1
  O  O106  1  0.61012671  0.11750986  0.12588939  1
  O  O107  1  0.62173389  0.11278775  0.63195224  1
  O  O108  1  0.62404975  0.61150385  0.06698975  1
  O  O109  1  0.59073601  0.62843908  0.61760909  1
  O  O110  1  0.38141802  0.36458984  0.38945269  1
  O  O111  1  0.41985880  0.37326189  0.94498222  1
  O  O112  1  0.37261357  0.88310366  0.34452573  1
  O  O113  1  0.35620732  0.90426069  0.90489190  1
  O  O114  1  0.89208549  0.36754088  0.39290063  1
  O  O115  1  0.83240517  0.42417375  0.86630312  1
  O  O116  1  0.87977039  0.89467163  0.37736831  1
  O  O117  1  0.87773454  0.89447345  0.83399356  1
  O  O118  1  0.23811318  -0.00373604  0.35953288  1
  O  O119  1  0.20935259  0.00187010  0.83716941  1
  O  O120  1  0.26654583  0.50855472  0.36754857  1
  O  O121  1  0.29116909  0.46769359  0.88267985  1
  O  O122  1  0.76070360  0.00730756  0.37890164  1
  O  O123  1  0.76338098  0.00957873  0.84113383  1
  O  O124  1  0.74533918  0.45019233  0.33952531  1
  O  O125  1  0.71949411  0.52625449  0.84742885  1
  O  O126  1  0.25737637  0.53032550  0.17310642  1
  O  O127  1  0.23364539  0.52284504  0.66505067  1
  O  O128  1  0.25458092  1.05181328  0.16563524  1
  O  O129  1  0.27048803  1.00895582  0.62469469  1
  O  O130  1  0.75347219  0.50073080  0.07125105  1
  O  O131  1  0.71589682  0.40308177  0.65180338  1
  O  O132  1  0.75084271  1.00408261  0.14388243  1
  O  O133  1  0.74849212  1.00953927  0.62571359  1
  O  O134  1  0.02161879  0.36651086  0.27124560  1
  O  O135  1  -0.01854421  0.36574459  0.74478208  1
  O  O136  1  -0.02861099  0.85031871  0.25332986  1
  O  O137  1  0.02293582  0.84477094  0.73571474  1
  O  O138  1  0.49840466  0.33263185  0.29732839  1
  O  O139  1  0.50513112  0.36280112  0.75390867  1
  O  O140  1  0.40436339  0.78528102  0.21597503  1
  O  O141  1  0.50790611  0.87274459  0.74942850  1
  O  O142  1  0.48413033  0.12323187  0.29722721  1
  O  O143  1  0.52344783  0.15417967  0.72826427  1
  O  O144  1  0.51800628  0.63573266  0.21322840  1
  O  O145  1  0.48739070  0.64703986  0.74571306  1
  O  O146  1  1.00067080  0.14700909  0.23457664  1
  O  O147  1  0.99130833  0.11734172  0.73394878  1
  O  O148  1  0.97732275  0.63006835  0.26623356  1
  O  O149  1  0.93276454  0.58200593  0.79056275  1
  O  O150  1  0.36587038  0.21580544  -0.00376290  1
  O  O151  1  0.30292075  0.23662531  0.47677739  1
  O  O152  1  0.39129255  0.80472619  0.01182362  1
  O  O153  1  0.31174294  0.75112240  0.45102804  1
  O  O154  1  0.83149134  0.19393348  -0.01816450  1
  O  O155  1  0.87421670  0.24717675  0.50433323  1
  O  O156  1  0.90000960  0.78482786  -0.01959620  1
  O  O157  1  0.84433624  0.70602678  0.51183951  1
  O  O158  1  0.10117124  0.23373834  0.51061457  1
  O  O159  1  0.16375714  0.23041354  1.00065571  1
  O  O160  1  0.15863860  0.68329987  0.50661590  1
  O  O161  1  0.13103398  0.80096378  0.94473187  1
  O  O162  1  0.64817831  0.26230195  0.50906326  1
  O  O163  1  0.64595797  0.20305698  0.99075169  1
  O  O164  1  0.63204726  0.73702958  0.50461195  1
  O  O165  1  0.61333367  0.78340167  0.96495289  1
  O  O166  1  0.52749908  0.32095997  0.06961707  1
  O  O167  1  0.50271420  0.27958778  0.64713188  1
  O  O168  1  0.63204978  0.65530223  0.12329139  1
  O  O169  1  0.48481892  0.74425102  0.64021303  1
  O  O170  1  0.99135465  0.26074376  0.13834345  1
  O  O171  1  0.98738189  0.25824846  0.62160444  1
  O  O172  1  0.95357480  0.72762289  0.13960115  1
  O  O173  1  1.03399414  0.78978776  0.68754108  1
  O  O174  1  -0.00040711  0.25899150  0.37635185  1
  O  O175  1  -0.01416201  0.24614786  0.85080695  1
  O  O176  1  -0.01901990  0.76297807  0.37581552  1
  O  O177  1  0.01275879  0.73038582  0.85470804  1
  O  O178  1  0.48057452  0.24896386  0.43715035  1
  O  O179  1  0.55297982  0.25886038  0.84529523  1
  O  O180  1  0.53400369  0.74035978  0.35573407  1
  O  O181  1  0.49238761  0.76372028  0.86138170  1
  O  O182  1  0.21485984  0.11938003  0.52229084  1
  O  O183  1  0.22199386  0.16831208  0.98159478  1
  O  O184  1  0.21902668  0.66445787  0.54414252  1
  O  O185  1  0.24989031  0.61801017  0.98447136  1
  O  O186  1  0.74994346  0.13111135  0.49116255  1
  O  O187  1  0.78113758  0.13943478  0.96876768  1
  O  O188  1  0.71643527  0.59734940  0.52656506  1
  O  O189  1  0.85875512  0.62663893  0.99168796  1
  O  O190  1  0.26636063  0.35237169  0.00845593  1
  O  O191  1  0.25321123  0.41938933  0.52879556  1
  O  O192  1  0.27032177  0.90563545  0.01100356  1
  O  O193  1  0.23946163  0.85586988  0.47179758  1
  O  O194  1  0.79899310  0.38588619  -0.08345145  1
  O  O195  1  0.76485184  0.35583584  0.48341931  1
  O  O196  1  0.76602175  0.87773495  -0.03324013  1
  O  O197  1  0.76375406  0.85951384  0.51642125  1
  O  O198  1  0.14333630  0.48253421  0.27191693  1
  O  O199  1  0.09146558  0.50106194  0.75323009  1
  O  O200  1  0.11997144  1.00678172  0.24874157  1
  O  O201  1  0.14623774  0.98849003  0.78174227  1
  O  O202  1  0.70130370  0.51103377  0.32303156  1
  O  O203  1  0.68251176  0.55880836  0.79376599  1
  O  O204  1  0.64210680  0.99226836  0.25895505  1
  O  O205  1  0.63012117  0.98915327  0.74247200  1
  O  O206  1  0.37624464  0.01300261  0.27158366  1
  O  O207  1  0.35253406  0.01139742  0.75650255  1
  O  O208  1  0.36614339  0.48150475  0.27132658  1
  O  O209  1  0.37513069  0.50205671  0.75641934  1
  O  O210  1  0.86006516  0.00072165  0.26000599  1
  O  O211  1  0.86435254  0.01153157  0.73039092  1
  O  O212  1  0.89594420  0.49474956  0.27071178  1
  O  O213  1  0.84707002  0.51767154  0.68416735  1
  O  O214  1  0.12119498  0.36617903  0.39273316  1
  O  O215  1  0.13542677  0.36664268  0.86033497  1
  O  O216  1  0.09159076  0.87686946  0.35974454  1
  O  O217  1  0.13426384  0.86120942  0.90352834  1
  O  O218  1  0.59961554  0.37127430  0.39228997  1
  O  O219  1  0.65739333  0.38243912  0.90164211  1
  O  O220  1  0.63229233  0.85959775  0.38946332  1
  O  O221  1  0.64483708  0.87109286  0.84460772  1
  O  O222  1  0.40856843  0.13085832  0.15489232  1
  O  O223  1  0.40706647  0.10448516  0.59811179  1
  O  O224  1  0.43717856  0.65642179  0.05886171  1
  O  O225  1  0.38723725  0.61156787  0.61964590  1
  O  O226  1  0.89027791  0.11829308  0.11119219  1
  O  O227  1  0.87756885  0.13329597  0.62088624  1
  O  O228  1  0.83919344  0.59596697  0.16767761  1
  O  O229  1  0.84944064  0.58215829  0.65058383  1
  O  O230  1  0.27035906  0.24356870  0.13050921  1
  O  O231  1  0.24873066  0.27895734  0.62500748  1
  O  O232  1  0.19018243  0.70338801  0.18286336  1
  O  O233  1  0.23525468  0.70972152  0.61022232  1
  O  O234  1  0.68501860  0.34968723  0.08855532  1
  O  O235  1  0.76697014  0.24270928  0.60710063  1
  O  O236  1  0.78473008  0.76768588  0.09676784  1
  O  O237  1  0.73516907  0.73936246  0.61786706  1
  O  O238  1  0.25320682  0.26636510  0.43406582  1
  O  O239  1  0.24520703  0.24611597  0.84445487  1
  O  O240  1  0.23927594  0.78228732  0.43440076  1
  O  O241  1  0.26409027  0.74266674  0.88058758  1
  O  O242  1  0.75610125  0.22820001  0.38604862  1
  O  O243  1  0.74792096  0.23501388  0.85054213  1
  O  O244  1  0.74025536  0.74669644  0.40697453  1
  O  O245  1  0.73745718  0.73813444  0.86161343  1
  O  O246  1  0.00357799  0.13469336  0.00509028  1
  O  O247  1  0.00178398  0.10968589  0.50648129  1
  O  O248  1  0.02338764  0.59769407  -0.05702195  1
  O  O249  1  -0.01351064  0.60121990  0.48829238  1
  O  O250  1  0.50872783  0.11853998  -0.00085952  1
  O  O251  1  0.46152514  0.12323555  0.55360094  1
  O  O252  1  0.48967412  0.67149515  0.01098691  1
  O  O253  1  0.50084169  0.61830276  0.50757438  1
  O  O254  1  0.49371016  0.39845937  0.49993905  1
  O  O255  1  0.56595264  0.43825240  1.02873073  1
  O  O256  1  0.45466874  0.79552089  0.49268593  1
  O  O257  1  0.47808841  0.91364156  0.99002084  1
  O  O258  1  0.99735078  0.38399467  0.49532566  1
  O  O259  1  1.01041574  0.40469447  1.03513817  1
  O  O260  1  0.99509451  0.89137341  0.47731274  1
  O  O261  1  1.07059431  0.84080726  1.07722930  1
  O  O262  1  0.48279224  0.49679111  0.36467948  1
  O  O263  1  0.47622104  0.50477285  0.89162201  1
  O  O264  1  0.49529546  0.97848014  0.38028967  1
  O  O265  1  0.47252684  1.06822904  0.86126054  1
  O  O266  1  1.01019666  0.47967345  0.38831234  1
  O  O267  1  1.02535676  0.46855882  0.89496404  1
  O  O268  1  0.98439225  0.99670844  0.35593633  1
  O  O269  1  0.98152278  1.00494016  0.84938924  1
  O  O270  1  -0.00057305  0.01711091  0.14123304  1
  O  O271  1  -0.01386371  -0.02870992  0.61565767  1
  O  O272  1  0.05157702  0.55016915  0.07998612  1
  O  O273  1  0.01357555  0.49132789  0.60663705  1
  O  O274  1  0.55434918  -0.14551142  0.14509001  1
  O  O275  1  0.55200165  -0.02360869  0.53525915  1
  O  O276  1  0.47903019  0.58141418  0.18589204  1
  O  O277  1  0.49603353  0.50320633  0.61937255  1
  O  O278  1  0.24533940  0.37487885  0.25838604  1
  O  O279  1  0.25141440  0.39876775  0.74305721  1
  O  O280  1  0.24238613  0.90615521  0.22216904  1
  O  O281  1  0.26067292  0.89209192  0.74305248  1
  O  O282  1  0.72593134  0.37920304  0.29634959  1
  O  O283  1  0.72212459  0.42833380  0.72137863  1
  O  O284  1  0.76052558  0.88397957  0.25467043  1
  O  O285  1  0.74914659  0.89258380  0.73086887  1
  O  O286  1  0.26163689  0.10727637  0.22745915  1
  O  O287  1  0.23148308  0.11976895  0.74605675  1
  O  O288  1  0.19617432  0.65818018  0.32872845  1
  O  O289  1  0.23497125  0.59507385  0.80398316  1
  O  O290  1  0.74409517  0.11222576  0.26825387  1
  O  O291  1  0.76173104  0.12105119  0.73714994  1
  O  O292  1  0.77855883  0.60101869  0.22266772  1
  O  O293  1  0.72686786  0.60457256  0.74559453  1
  O  O294  1  0.36456121  0.07428689  0.42690187  1
  O  O295  1  0.31216644  0.10768841  0.88699899  1
  O  O296  1  0.38565192  0.62381436  0.36786373  1
  O  O297  1  0.37995602  0.63174169  0.88615531  1
  O  O298  1  0.86953002  0.11092823  0.37519460  1
  O  O299  1  0.87041494  0.11685804  0.84059369  1
  O  O300  1  0.85742141  0.60979071  0.37843175  1
  O  O301  1  0.88801509  0.63389087  0.82112017  1
  O  O302  1  0.12897002  0.37789427  0.14796403  1
  O  O303  1  0.13958030  0.39970489  0.62798429  1
  O  O304  1  0.12664208  0.86854427  0.11183804  1
  O  O305  1  0.19862746  0.84507978  0.70581433  1
  O  O306  1  0.58547772  0.43620033  0.23308861  1
  O  O307  1  0.65592122  0.43203829  0.60854733  1
  O  O308  1  0.53205970  0.79384990  0.11194050  1
  O  O309  1  0.61169094  0.86404414  0.63488796  1
  O  O310  1  0.12074149  0.25862439  0.24837390  1
  O  O311  1  0.09506635  0.24434784  0.72925495  1
  O  O312  1  0.07854403  0.75228989  0.23417830  1
  O  O313  1  0.18556243  0.78322898  0.74461724  1
  O  O314  1  0.64068388  0.26880933  0.24329484  1
  O  O315  1  0.62429442  0.25755686  0.72647592  1
  O  O316  1  0.66517692  0.75059736  0.26889713  1
  O  O317  1  0.60985566  0.76241567  0.75593113  1
  O  O318  1  0.35365681  0.20406304  0.30191922  1
  O  O319  1  0.42221288  0.23596363  0.77524694  1
  O  O320  1  0.36739402  0.73806677  0.17476020  1
  O  O321  1  0.38053428  0.77479695  0.75598622  1
  O  O322  1  0.89020418  0.26950419  0.25301874  1
  O  O323  1  0.88854090  0.23290859  0.72577071  1
  O  O324  1  0.85848643  0.73790971  0.26328808  1
  O  O325  1  0.93424361  0.75637284  0.65896246  1
  O  O326  1  0.38677864  0.51343396  0.48305155  1
  O  O327  1  0.37780541  0.50243781  1.02898345  1
  O  O328  1  0.37205500  0.94428433  0.48682310  1
  O  O329  1  0.37734450  1.01383702  1.00797193  1
  O  O330  1  0.86469286  0.48311234  0.50388653  1
  O  O331  1  0.92379895  0.50680658  1.00844742  1
  O  O332  1  0.89282800  1.00520529  0.48562819  1
  O  O333  1  0.86763791  1.00847277  0.96095794  1
  O  O334  1  0.13254356  0.02908239  0.00301319  1
  O  O335  1  0.09878623  0.00433870  0.49520935  1
  O  O336  1  0.12957727  0.47627374  -0.01444516  1
  O  O337  1  0.11945115  0.51623076  0.49636502  1
  O  O338  1  0.65128339  0.03072094  -0.01073386  1
  O  O339  1  0.61561134  0.00381877  0.51637828  1
  O  O340  1  0.71907834  0.48946047  0.00998437  1
  O  O341  1  0.59709176  0.50670636  0.48920584  1
  O  O342  1  0.52559612  0.39591019  0.07533501  1
  O  O343  1  0.35391652  0.40596477  0.62970863  1
  O  O344  1  0.37870687  0.90839748  0.11131864  1
  O  O345  1  0.34413059  0.83733401  0.60116938  1
  O  O346  1  0.75471811  0.33861013  0.10039428  1
  O  O347  1  0.87282174  0.35849527  0.60256652  1
  O  O348  1  0.87464531  0.90958833  0.09196441  1
  O  O349  1  0.88879472  0.81122059  0.67874646  1
  O  O350  1  0.11432859  0.13052812  0.38968336  1
  O  O351  1  0.12206853  0.13475155  0.88598095  1
  O  O352  1  0.12728295  0.64726547  0.34785231  1
  O  O353  1  0.06122334  0.68550958  0.81707571  1
  O  O354  1  0.63835618  0.11378888  0.38190733  1
  O  O355  1  0.65086817  0.11464188  0.85053972  1
  O  O356  1  0.62366848  0.63072885  0.40151312  1
  O  O357  1  0.60026846  0.65417999  0.87345488  1
