# generated using pymatgen
data_V51Zn51O256
_symmetry_space_group_name_H-M   'P 1'
_cell_length_a   17.40589473
_cell_length_b   17.32713391
_cell_length_c   17.30986640
_cell_angle_alpha   89.17354644
_cell_angle_beta   89.79582322
_cell_angle_gamma   89.48731136
_symmetry_Int_Tables_number   1
_chemical_formula_structural   V51Zn51O256
_chemical_formula_sum   'V51 Zn51 O256'
_cell_volume   5219.77364048
_cell_formula_units_Z   1
loop_
 _symmetry_equiv_pos_site_id
 _symmetry_equiv_pos_as_xyz
  1  'x, y, z'
loop_
 _atom_site_type_symbol
 _atom_site_label
 _atom_site_symmetry_multiplicity
 _atom_site_fract_x
 _atom_site_fract_y
 _atom_site_fract_z
 _atom_site_occupancy
  V  V0  1  0.59296147  0.62830821  -0.00874797  1
  V  V1  1  0.50757481  0.73803894  0.80311799  1
  V  V2  1  0.75473593  0.36673290  0.63367061  1
  V  V3  1  0.48599332  0.14226042  0.12580862  1
  V  V4  1  0.25807043  0.64719032  0.89379359  1
  V  V5  1  0.00974596  0.15401436  0.11757419  1
  V  V6  1  0.04259113  0.53685522  0.00799632  1
  V  V7  1  -0.02282962  0.49722506  0.49069195  1
  V  V8  1  0.01802389  0.73405748  0.23605659  1
  V  V9  1  0.86739476  0.00251322  0.87063217  1
  V  V10  1  0.60676355  0.37084793  0.74645555  1
  V  V11  1  0.75504662  0.13919997  0.36503999  1
  V  V12  1  0.15167880  0.01308263  0.09880976  1
  V  V13  1  0.28385271  0.02225063  0.36702595  1
  V  V14  1  0.27110432  0.22246255  0.01583814  1
  V  V15  1  0.37939369  0.85545348  -0.02805276  1
  V  V16  1  0.76487780  -0.02944587  0.70423902  1
  V  V17  1  0.50399312  0.26481610  0.27751940  1
  V  V18  1  0.52388199  0.12257643  0.62679682  1
  V  V19  1  0.60934217  0.15813208  0.48218567  1
  V  V20  1  0.74578981  0.61450573  0.37846558  1
  V  V21  1  0.84044830  0.86778653  -0.02625347  1
  V  V22  1  0.10001831  -0.00643175  0.60990983  1
  V  V23  1  0.70107502  0.37464191  0.11745861  1
  V  V24  1  0.22271548  0.65366428  0.53141460  1
  V  V25  1  0.60559788  0.85969245  0.74344997  1
  V  V26  1  -0.00182421  0.40134436  0.91627867  1
  V  V27  1  0.12763841  0.89717417  0.23526048  1
  V  V28  1  -0.03818659  0.62918042  0.12196655  1
  V  V29  1  0.73378587  0.22518240  0.01474200  1
  V  V30  1  0.12892525  0.75105766  0.40184541  1
  V  V31  1  0.23056778  0.12784269  0.86281352  1
  V  V32  1  0.83488141  0.51056735  0.88864781  1
  V  V33  1  0.36015961  0.49587919  0.88434047  1
  V  V34  1  0.59560102  0.50635449  0.13887231  1
  V  V35  1  0.75031923  0.13007389  0.85170173  1
  V  V36  1  0.00227549  0.78294837  0.73914954  1
  V  V37  1  0.26224106  0.85039257  0.11803619  1
  V  V38  1  0.16369826  0.87508851  0.76499793  1
  V  V39  1  0.60770129  0.24278353  0.86505934  1
  V  V40  1  0.74066817  0.49987062  0.74204591  1
  V  V41  1  0.26824284  0.00682356  0.73650715  1
  V  V42  1  0.75533930  0.25783079  0.50132639  1
  V  V43  1  0.26360470  0.28339532  0.50326560  1
  V  V44  1  0.66689365  0.85902726  0.23791015  1
  V  V45  1  0.50133591  0.47535829  -0.01177311  1
  V  V46  1  0.41359837  0.68695355  0.20271039  1
  V  V47  1  0.21675203  0.49872456  0.28479415  1
  V  V48  1  0.50500600  -0.00745268  0.00853478  1
  V  V49  1  0.38097725  0.62700908  0.76213874  1
  V  V50  1  0.39521235  0.02882512  0.86653667  1
  Zn  Zn51  1  0.92755560  0.88686566  0.19944882  1
  Zn  Zn52  1  0.31751426  0.07360731  0.54776988  1
  Zn  Zn53  1  0.68684249  0.18541193  0.68626898  1
  Zn  Zn54  1  0.67082366  0.42673630  0.93170316  1
  Zn  Zn55  1  0.37673565  0.70791164  0.58265503  1
  Zn  Zn56  1  0.07807411  0.31021266  0.46667558  1
  Zn  Zn57  1  0.40471426  0.40548353  0.74967180  1
  Zn  Zn58  1  0.84774045  0.08682791  0.01235806  1
  Zn  Zn59  1  0.56884938  0.29814566  0.05378761  1
  Zn  Zn60  1  0.05929611  0.82582127  0.08606278  1
  Zn  Zn61  1  0.60565821  0.88475324  0.53363085  1
  Zn  Zn62  1  0.65261866  0.18637924  0.19534933  1
  Zn  Zn63  1  0.24160864  0.53762288  0.06490384  1
  Zn  Zn64  1  0.44734631  0.18870708  0.95599870  1
  Zn  Zn65  1  0.47012362  0.86533087  0.12883710  1
  Zn  Zn66  1  0.79380169  0.42129796  0.43427971  1
  Zn  Zn67  1  0.39763697  0.52438989  0.16477224  1
  Zn  Zn68  1  0.12220039  0.93207499  0.43220831  1
  Zn  Zn69  1  0.91570975  0.68305378  0.92432684  1
  Zn  Zn70  1  0.84137442  0.78575740  0.33694157  1
  Zn  Zn71  1  0.33574527  0.37129193  0.33778592  1
  Zn  Zn72  1  0.21882552  0.94495041  0.93315872  1
  Zn  Zn73  1  0.81405042  0.81727993  0.78858638  1
  Zn  Zn74  1  0.58415086  0.04219058  0.80820833  1
  Zn  Zn75  1  0.08253980  0.57330079  0.81892186  1
  Zn  Zn76  1  0.64276339  1.00680042  0.38502307  1
  Zn  Zn77  1  -0.06672575  0.25336726  0.02205266  1
  Zn  Zn78  1  0.54689825  0.59844487  0.30798717  1
  Zn  Zn79  1  0.22671785  0.71060400  0.23752494  1
  Zn  Zn80  1  0.92361318  0.21105674  0.41952538  1
  Zn  Zn81  1  0.32967292  0.05252586  0.04403262  1
  Zn  Zn82  1  0.67957717  0.94237607  0.91723697  1
  Zn  Zn83  1  0.58321511  0.71289130  0.12679971  1
  Zn  Zn84  1  0.95514418  0.64922508  0.39259531  1
  Zn  Zn85  1  0.30407307  0.12238038  0.19267365  1
  Zn  Zn86  1  0.30742375  0.83170999  0.30839549  1
  Zn  Zn87  1  0.37337190  0.84671557  0.76294747  1
  Zn  Zn88  1  0.79725525  0.55298834  0.56548602  1
  Zn  Zn89  1  0.19434253  0.15818839  0.66396539  1
  Zn  Zn90  1  0.55277630  0.77593445  0.38995381  1
  Zn  Zn91  1  0.57008980  0.29055383  0.59090749  1
  Zn  Zn92  1  0.56878193  0.55271887  0.81821845  1
  Zn  Zn93  1  0.97968102  0.96841872  0.75172946  1
  Zn  Zn94  1  0.38564836  0.64812906  1.00285057  1
  Zn  Zn95  1  0.12432645  0.80282525  0.59191574  1
  Zn  Zn96  1  0.71360133  0.04318574  0.54996954  1
  Zn  Zn97  1  0.18207795  0.66932863  0.71554351  1
  Zn  Zn98  1  0.32609558  0.29775971  0.85542150  1
  Zn  Zn99  1  0.79440864  0.53673190  0.08988838  1
  Zn  Zn100  1  0.69547392  0.67831442  0.81781776  1
  Zn  Zn101  1  0.71230231  0.31274263  0.29881219  1
  O  O102  1  0.10308562  0.10274951  0.10872408  1
  O  O103  1  0.15129238  0.08022733  0.60154145  1
  O  O104  1  0.13529538  0.71797901  -0.00304507  1
  O  O105  1  0.22954770  0.56595804  0.56610363  1
  O  O106  1  0.57838679  0.11616120  0.15075249  1
  O  O107  1  0.62905280  0.12716399  0.59834209  1
  O  O108  1  0.61741344  0.60565754  0.10490308  1
  O  O109  1  0.63210674  0.67899498  0.62062315  1
  O  O110  1  0.38368538  0.42526929  0.41257343  1
  O  O111  1  0.37816858  0.39569845  0.86891301  1
  O  O112  1  0.45192224  0.83639471  0.38000536  1
  O  O113  1  0.37869587  0.87107463  0.87497827  1
  O  O114  1  0.78125799  0.39431921  0.33426465  1
  O  O115  1  0.90692732  0.43467461  0.88318804  1
  O  O116  1  0.81990967  0.87899599  0.41254641  1
  O  O117  1  0.84953833  0.89200124  0.87049515  1
  O  O118  1  0.31905492  -0.06658133  0.33852765  1
  O  O119  1  0.27344083  0.02176707  0.86707386  1
  O  O120  1  0.21792439  0.51698671  0.38212480  1
  O  O121  1  0.26545457  0.49952223  0.88833570  1
  O  O122  1  0.75009890  0.04010091  0.37496384  1
  O  O123  1  0.74445438  0.02391004  0.86978301  1
  O  O124  1  0.73144842  0.51678913  0.41597028  1
  O  O125  1  0.73752291  0.48466523  0.85928185  1
  O  O126  1  0.21228007  0.50507241  0.17699491  1
  O  O127  1  0.21403134  0.49208297  0.71532405  1
  O  O128  1  0.24687888  1.03174508  0.12099297  1
  O  O129  1  0.28725088  1.01796033  0.64011277  1
  O  O130  1  0.70968199  0.48120084  0.13129412  1
  O  O131  1  0.74425340  0.48226016  0.62927600  1
  O  O132  1  0.83494697  1.02620282  0.22943364  1
  O  O133  1  0.78490907  0.97872188  0.60628394  1
  O  O134  1  -0.06114555  0.30488029  0.21111378  1
  O  O135  1  0.04803090  0.39905842  0.81235546  1
  O  O136  1  0.03891514  0.85423061  0.19732868  1
  O  O137  1  0.04600058  0.87420964  0.76238532  1
  O  O138  1  0.46745512  0.36567921  0.24320155  1
  O  O139  1  0.50994898  0.37105732  0.74288796  1
  O  O140  1  0.57223350  0.87085339  0.20032846  1
  O  O141  1  0.50227981  0.84010803  0.75563147  1
  O  O142  1  0.46835493  0.18456836  0.22500200  1
  O  O143  1  0.53806965  0.09375571  0.71971388  1
  O  O144  1  0.44656951  0.59779792  0.24503818  1
  O  O145  1  0.50390196  0.63594248  0.77822617  1
  O  O146  1  0.97571896  0.13885129  0.20489552  1
  O  O147  1  0.95537086  0.21762346  0.78940567  1
  O  O148  1  0.97689798  0.64295424  0.23633311  1
  O  O149  1  1.01298788  0.68245918  0.78751789  1
  O  O150  1  0.35501433  0.25711220  -0.03116067  1
  O  O151  1  0.34748642  0.32796214  0.52820142  1
  O  O152  1  0.38211667  0.76130806  -0.00471919  1
  O  O153  1  0.45028324  0.79293351  0.54628670  1
  O  O154  1  0.82362440  0.25985786  0.03479079  1
  O  O155  1  0.85119302  0.25115353  0.50061431  1
  O  O156  1  0.86906860  0.77305449  -0.03385628  1
  O  O157  1  0.89615432  0.73665530  0.41897528  1
  O  O158  1  0.17296343  0.25355765  0.45192947  1
  O  O159  1  0.16507855  0.26304147  1.00577607  1
  O  O160  1  0.12310298  0.81982165  0.47590149  1
  O  O161  1  0.10215947  0.77999343  0.98070836  1
  O  O162  1  0.60925275  0.25815988  0.49159955  1
  O  O163  1  0.62786968  0.24281095  0.96902709  1
  O  O164  1  0.59568834  0.78757369  0.48609788  1
  O  O165  1  0.60882042  0.72193256  1.01642201  1
  O  O166  1  0.48340010  0.22992331  0.07540581  1
  O  O167  1  0.49617019  0.21857475  0.62957917  1
  O  O168  1  0.48239559  0.74925013  0.15786865  1
  O  O169  1  0.56735157  0.69562135  0.59810101  1
  O  O170  1  1.01739558  0.25181328  0.10001380  1
  O  O171  1  1.02114764  0.22165100  0.46013919  1
  O  O172  1  1.00076737  0.72989020  0.12530286  1
  O  O173  1  1.03333539  0.75990180  0.64833561  1
  O  O174  1  -0.06604173  0.29846307  0.33895652  1
  O  O175  1  -0.02089748  0.30760245  0.93584601  1
  O  O176  1  0.03976416  0.72129142  0.35492609  1
  O  O177  1  -0.00361109  0.73488813  0.84832471  1
  O  O178  1  0.48516212  0.25539635  0.36921942  1
  O  O179  1  0.51193574  0.23491579  0.87278758  1
  O  O180  1  0.52417054  0.70436247  0.31705747  1
  O  O181  1  0.51232837  0.74953900  0.89494362  1
  O  O182  1  0.30377696  0.18464364  0.52207386  1
  O  O183  1  0.26133330  0.12659990  0.97864703  1
  O  O184  1  0.31251978  0.68394340  0.49880493  1
  O  O185  1  0.27437876  0.62118158  0.99721108  1
  O  O186  1  0.72792706  0.14496222  0.49108781  1
  O  O187  1  0.74543683  0.12857929  1.03415897  1
  O  O188  1  0.76162752  0.62241034  0.48482784  1
  O  O189  1  0.75465103  0.67242881  1.03563840  1
  O  O190  1  0.21392097  0.32187724  0.01275238  1
  O  O191  1  0.22262732  0.37391551  0.51984758  1
  O  O192  1  0.27943574  0.88170790  0.01202229  1
  O  O193  1  0.44457115  0.90339927  0.42026925  1
  O  O194  1  0.72069834  0.36982543  0.01733206  1
  O  O195  1  0.74452325  0.36458990  0.51441949  1
  O  O196  1  0.74310642  0.87079735  -0.01974134  1
  O  O197  1  0.76915007  0.87135374  0.46360765  1
  O  O198  1  0.12084509  0.48585275  0.28091721  1
  O  O199  1  0.11907874  0.57836916  0.71736622  1
  O  O200  1  0.12076709  0.99245539  0.21477521  1
  O  O201  1  0.16774391  0.99165913  0.74612062  1
  O  O202  1  0.58860872  0.52402784  0.23501371  1
  O  O203  1  0.62268510  0.47364397  0.75997864  1
  O  O204  1  0.65548490  0.94977250  0.28557541  1
  O  O205  1  0.69167333  1.03215371  0.71715869  1
  O  O206  1  0.46047214  -0.00018839  0.28012650  1
  O  O207  1  0.37652189  0.00023391  0.76952737  1
  O  O208  1  0.32603178  0.48448934  0.27129462  1
  O  O209  1  0.39008675  0.51868845  0.77482154  1
  O  O210  1  0.86438035  -0.03070098  0.26414239  1
  O  O211  1  0.85235919  -0.00705070  0.75707927  1
  O  O212  1  0.91947577  0.43710468  0.17677621  1
  O  O213  1  0.83591162  0.50415750  0.75563523  1
  O  O214  1  0.09185567  0.37422349  0.38636611  1
  O  O215  1  0.09998780  0.38267936  0.86684903  1
  O  O216  1  0.10721534  0.88147414  0.33206216  1
  O  O217  1  0.16343437  0.88211413  0.86287909  1
  O  O218  1  0.58274925  0.39277007  0.40745974  1
  O  O219  1  0.62505861  0.35047840  0.85858743  1
  O  O220  1  0.63660906  0.82896891  0.33680874  1
  O  O221  1  0.61573821  0.92923109  0.81678219  1
  O  O222  1  0.39359340  0.09224220  0.13072696  1
  O  O223  1  0.42285546  0.07438337  0.60965670  1
  O  O224  1  0.36945542  0.64277864  0.12645905  1
  O  O225  1  0.39168887  0.63501579  0.66320047  1
  O  O226  1  0.93916479  0.13435431  0.04502612  1
  O  O227  1  0.91506454  0.18298428  0.62576582  1
  O  O228  1  0.86645572  0.60820004  0.12899430  1
  O  O229  1  0.83796343  0.63397092  0.63563066  1
  O  O230  1  0.28387482  0.20452513  0.11150269  1
  O  O231  1  0.22269548  0.24805394  0.59643715  1
  O  O232  1  0.24700473  0.75537922  0.12155603  1
  O  O233  1  0.19661705  0.71425684  0.60903287  1
  O  O234  1  0.67302710  0.25507833  0.10284263  1
  O  O235  1  0.73156033  0.25839810  0.60970158  1
  O  O236  1  0.76438774  0.73157519  0.07224868  1
  O  O237  1  0.86074942  0.69983934  0.61287247  1
  O  O238  1  0.29209714  0.28436094  0.40254311  1
  O  O239  1  0.24099862  0.22871564  0.86663091  1
  O  O240  1  0.21333531  0.75948916  0.34949793  1
  O  O241  1  0.26246673  0.74128700  0.89313875  1
  O  O242  1  0.73417300  0.25311108  0.39701048  1
  O  O243  1  0.75007359  0.21869857  0.90450188  1
  O  O244  1  0.75540113  0.71630846  0.37545318  1
  O  O245  1  0.78415136  0.72972539  0.84358230  1
  O  O246  1  -0.04512341  -0.01161484  0.13731639  1
  O  O247  1  -0.01679851  0.16669451  0.62322330  1
  O  O248  1  -0.02057185  0.62805746  0.00987481  1
  O  O249  1  -0.04275106  0.60170966  0.50134970  1
  O  O250  1  0.49132846  0.09838351  0.01568588  1
  O  O251  1  0.52047911  0.12571863  0.50621107  1
  O  O252  1  0.49577540  0.61637281  -0.00566100  1
  O  O253  1  0.50008407  0.55766845  0.42174028  1
  O  O254  1  0.56717201  0.47784523  0.53258880  1
  O  O255  1  0.50983000  0.37918367  0.99957950  1
  O  O256  1  0.42829231  0.84821421  0.59513536  1
  O  O257  1  0.47290344  0.87903638  1.00961876  1
  O  O258  1  0.96187862  0.40631503  0.45190745  1
  O  O259  1  1.01311259  0.43579274  1.01396572  1
  O  O260  1  0.94657937  0.83845778  0.52127452  1
  O  O261  1  0.95948711  0.87199319  1.03590845  1
  O  O262  1  0.54162503  0.42789484  0.36160381  1
  O  O263  1  0.50524913  0.49121436  0.88884116  1
  O  O264  1  0.50923585  1.03789817  0.31326804  1
  O  O265  1  0.49426682  1.01204127  0.87750147  1
  O  O266  1  0.98845828  0.53734919  0.39090884  1
  O  O267  1  1.03323322  0.52466235  0.90413440  1
  O  O268  1  0.92627187  0.99237738  0.41088890  1
  O  O269  1  0.96395983  1.00290370  0.85664116  1
  O  O270  1  0.00101673  -0.02025837  0.08100120  1
  O  O271  1  0.01621508  0.01290975  0.66030809  1
  O  O272  1  0.01617389  0.54589696  0.12018310  1
  O  O273  1  -0.02862868  0.48012905  0.58897156  1
  O  O274  1  0.49940118  -0.02198251  0.10727971  1
  O  O275  1  0.47626635  0.01855425  0.59878351  1
  O  O276  1  0.49684536  0.50165504  0.10771005  1
  O  O277  1  0.41747412  0.45088182  0.61539195  1
  O  O278  1  0.23309854  0.39371938  0.29336617  1
  O  O279  1  0.10964969  0.28637673  0.73552093  1
  O  O280  1  0.22750731  0.86561374  0.22522789  1
  O  O281  1  0.27036948  0.89542115  0.74800144  1
  O  O282  1  0.75448353  0.33851424  0.19256742  1
  O  O283  1  0.73183264  0.38025327  0.73469959  1
  O  O284  1  0.76185826  0.82980313  0.26714599  1
  O  O285  1  0.73285469  0.87519250  0.73193058  1
  O  O286  1  0.28955065  0.09512884  0.29579224  1
  O  O287  1  0.25160146  0.11846802  0.75318276  1
  O  O288  1  0.22697993  0.60025591  0.27291074  1
  O  O289  1  0.27980900  0.63921505  0.77222269  1
  O  O290  1  0.73089165  0.16096170  0.26929586  1
  O  O291  1  0.77036140  0.15598840  0.75932325  1
  O  O292  1  0.74030886  0.58816180  0.28278330  1
  O  O293  1  0.70902497  0.59507320  0.74240087  1
  O  O294  1  0.33930957  0.04587479  0.44696911  1
  O  O295  1  0.38842557  0.12611330  0.87196688  1
  O  O296  1  0.47979313  0.60749935  0.46909847  1
  O  O297  1  0.36936103  0.61226472  0.88106271  1
  O  O298  1  0.85319451  0.14774782  0.37070481  1
  O  O299  1  0.85358654  0.10754641  0.88853290  1
  O  O300  1  0.84783806  0.60343049  0.35829093  1
  O  O301  1  0.87105698  0.59980285  0.86932825  1
  O  O302  1  0.07905881  0.23319691  0.28498625  1
  O  O303  1  0.06716913  0.34144843  0.56610955  1
  O  O304  1  0.15386458  0.89460445  0.10793639  1
  O  O305  1  0.14384404  0.90165724  0.63873420  1
  O  O306  1  0.60134836  0.39016836  0.13513022  1
  O  O307  1  0.62367075  0.36683843  0.64172536  1
  O  O308  1  0.71141372  0.90400324  0.16111982  1
  O  O309  1  0.60300257  0.88481163  0.64786828  1
  O  O310  1  0.14539149  0.22098940  0.26296800  1
  O  O311  1  0.10197674  0.22009667  0.70947705  1
  O  O312  1  0.11690880  0.72506850  0.22393607  1
  O  O313  1  0.16324686  0.77784630  0.74891481  1
  O  O314  1  0.60644144  0.27204271  0.26491144  1
  O  O315  1  0.62692732  0.25558178  0.75670710  1
  O  O316  1  0.65185032  0.76479934  0.19990706  1
  O  O317  1  0.61755326  0.75764235  0.77205237  1
  O  O318  1  0.39965682  0.32551205  0.25661045  1
  O  O319  1  0.33213657  0.32478193  0.74663537  1
  O  O320  1  0.34139916  0.73446413  0.25855590  1
  O  O321  1  0.40189930  0.73473704  0.78157662  1
  O  O322  1  0.90778371  0.27434944  0.26918330  1
  O  O323  1  0.93920422  0.27717738  0.75453155  1
  O  O324  1  0.92157698  0.79432877  0.26148519  1
  O  O325  1  0.90853634  0.80881879  0.72768901  1
  O  O326  1  0.38570054  0.50269839  0.57710773  1
  O  O327  1  0.39592098  0.49877896  0.98560467  1
  O  O328  1  0.50711972  0.93434468  0.44491991  1
  O  O329  1  0.38680360  0.99101108  0.97274433  1
  O  O330  1  0.86600222  0.48996188  0.49532198  1
  O  O331  1  0.81791655  0.51300267  0.98577762  1
  O  O332  1  0.90969302  1.01419884  0.47582311  1
  O  O333  1  0.86023829  0.98073802  0.97637103  1
  O  O334  1  0.14811662  -0.00006182  0.00254248  1
  O  O335  1  0.06869130  -0.02595929  0.51794790  1
  O  O336  1  0.13687531  0.54220086  0.02616529  1
  O  O337  1  0.07417247  0.49284308  0.50227331  1
  O  O338  1  0.59870161  -0.02301269  -0.01505832  1
  O  O339  1  0.64433612  -0.02126214  0.49223913  1
  O  O340  1  0.60563235  0.50491809  0.00225293  1
  O  O341  1  0.56847608  0.53681880  0.57048876  1
  O  O342  1  0.32421748  0.47393095  0.10094574  1
  O  O343  1  0.19820672  0.42402214  0.72459354  1
  O  O344  1  0.35638881  0.86722062  0.14440623  1
  O  O345  1  0.36694952  0.82197015  0.63945394  1
  O  O346  1  0.87762031  0.42922769  0.12059466  1
  O  O347  1  0.84779582  0.35817217  0.63757362  1
  O  O348  1  0.89418039  0.86709256  0.08220353  1
  O  O349  1  0.89466539  0.85842129  0.56441502  1
  O  O350  1  0.19150403  0.01151240  0.39968821  1
  O  O351  1  0.13876709  0.11588940  0.86805492  1
  O  O352  1  0.14592711  0.66600184  0.45685573  1
  O  O353  1  0.16274720  0.62799844  0.87471333  1
  O  O354  1  0.62243639  0.12428495  0.38787677  1
  O  O355  1  0.64096647  0.13441329  0.85315437  1
  O  O356  1  0.64456888  0.62811816  0.37756401  1
  O  O357  1  0.62993870  0.62034434  0.89495549  1
