# generated using pymatgen
data_V51Zn51O256
_symmetry_space_group_name_H-M   'P 1'
_cell_length_a   17.35842514
_cell_length_b   17.59721303
_cell_length_c   17.24417864
_cell_angle_alpha   91.15642305
_cell_angle_beta   90.61131865
_cell_angle_gamma   88.16505761
_symmetry_Int_Tables_number   1
_chemical_formula_structural   V51Zn51O256
_chemical_formula_sum   'V51 Zn51 O256'
_cell_volume   5263.36705400
_cell_formula_units_Z   1
loop_
 _symmetry_equiv_pos_site_id
 _symmetry_equiv_pos_as_xyz
  1  'x, y, z'
loop_
 _atom_site_type_symbol
 _atom_site_label
 _atom_site_symmetry_multiplicity
 _atom_site_fract_x
 _atom_site_fract_y
 _atom_site_fract_z
 _atom_site_occupancy
  V  V0  1  0.60285025  0.52679261  0.17179022  1
  V  V1  1  0.77616297  0.88328416  0.60502622  1
  V  V2  1  0.26402978  0.38000882  0.14578525  1
  V  V3  1  0.77379834  0.32328751  0.10840457  1
  V  V4  1  0.86133220  0.39228869  0.47501704  1
  V  V5  1  0.69531513  0.87728719  0.79017024  1
  V  V6  1  -0.01841702  0.20380750  0.19556553  1
  V  V7  1  0.35954949  0.62459267  0.28240616  1
  V  V8  1  0.86009328  0.06382558  0.17266069  1
  V  V9  1  0.48363783  0.75041739  0.28130063  1
  V  V10  1  0.13305167  0.61995212  0.52515220  1
  V  V11  1  0.74702885  0.64455197  0.35402035  1
  V  V12  1  0.90103220  0.37015136  0.01151187  1
  V  V13  1  0.11852215  0.37086551  0.25635811  1
  V  V14  1  0.13402671  0.52253410  0.15015759  1
  V  V15  1  0.71812496  0.74121906  0.50094976  1
  V  V16  1  0.52139556  0.45779203  0.47486896  1
  V  V17  1  0.24294512  0.20306996  0.41203913  1
  V  V18  1  0.46958996  0.82842708  0.86845574  1
  V  V19  1  0.88499176  0.51705232  0.92805974  1
  V  V20  1  0.24198069  0.91136334  0.62216608  1
  V  V21  1  0.58370874  0.07823043  0.00018216  1
  V  V22  1  0.59425275  0.88637456  0.19695304  1
  V  V23  1  0.63751608  0.45527102  0.61182589  1
  V  V24  1  0.48313555  0.64202480  0.13280535  1
  V  V25  1  0.26239109  0.27502368  -0.00914572  1
  V  V26  1  0.27159100  0.87769635  0.13462656  1
  V  V27  1  0.08426028  0.17199781  0.49251515  1
  V  V28  1  0.74814691  0.61933535  0.91755277  1
  V  V29  1  0.74721391  0.76790460  0.02398181  1
  V  V30  1  0.37926391  0.47833880  0.37027901  1
  V  V31  1  0.13936476  0.90721724  0.75534873  1
  V  V32  1  0.10523806  0.39686811  0.76255136  1
  V  V33  1  0.63559131  0.74264800  0.87066316  1
  V  V34  1  0.88205742  0.52275291  0.34867412  1
  V  V35  1  0.24522554  0.02159899  0.26011577  1
  V  V36  1  0.33692699  0.83848196  0.49954746  1
  V  V37  1  0.01833660  0.52932610  0.02767160  1
  V  V38  1  0.87967542  0.74349995  0.61595519  1
  V  V39  1  0.65241092  0.34723630  0.23502920  1
  V  V40  1  0.34409118  0.54742030  0.73233733  1
  V  V41  1  0.54497005  0.61153726  0.56701839  1
  V  V42  1  0.59908792  0.32833379  0.84733084  1
  V  V43  1  0.36674293  0.26947765  0.65256366  1
  V  V44  1  0.00395936  -0.04180292  0.49439476  1
  V  V45  1  0.46059671  0.89062652  0.39283725  1
  V  V46  1  0.15595836  0.03391810  0.07277341  1
  V  V47  1  -0.01272617  0.71550887  0.75392693  1
  V  V48  1  0.85715096  0.60435311  0.71833667  1
  V  V49  1  0.63947133  0.13004052  0.49757396  1
  V  V50  1  0.38499432  0.39982179  0.00309733  1
  Zn  Zn51  1  0.91658841  0.43129269  0.66193144  1
  Zn  Zn52  1  0.85548159  0.34252121  0.28034613  1
  Zn  Zn53  1  0.55189516  0.00968806  0.34554877  1
  Zn  Zn54  1  0.31664809  0.74642080  0.77264577  1
  Zn  Zn55  1  0.79437041  0.55905189  0.54708261  1
  Zn  Zn56  1  0.69017547  0.45706202  1.00582585  1
  Zn  Zn57  1  0.15938823  0.27303026  0.64129147  1
  Zn  Zn58  1  0.82241439  0.01885193  0.48838896  1
  Zn  Zn59  1  0.07338374  0.80414822  0.58239069  1
  Zn  Zn60  1  0.83667861  0.77471846  0.83315304  1
  Zn  Zn61  1  0.09875422  0.04748975  0.87540786  1
  Zn  Zn62  1  0.42427827  0.95049491  0.21837277  1
  Zn  Zn63  1  0.59910375  0.86844320  0.99328586  1
  Zn  Zn64  1  0.15976558  0.89161268  0.95888922  1
  Zn  Zn65  1  0.64410705  0.92535029  0.47966475  1
  Zn  Zn66  1  0.70777922  0.44954397  0.40474787  1
  Zn  Zn67  1  0.56127916  0.58252182  0.35218837  1
  Zn  Zn68  1  0.31881151  0.55867920  0.09430953  1
  Zn  Zn69  1  0.31488684  0.82768122  0.29409912  1
  Zn  Zn70  1  0.45243633  0.81912253  0.07934632  1
  Zn  Zn71  1  0.18177241  0.66818251  0.72196877  1
  Zn  Zn72  1  0.22411631  0.68646068  0.16684351  1
  Zn  Zn73  1  0.95133259  0.22816834  0.37877121  1
  Zn  Zn74  1  1.03475236  1.02067005  0.21150946  1
  Zn  Zn75  1  0.96128702  0.92320687  0.67104296  1
  Zn  Zn76  1  0.18604127  0.20179508  0.17973139  1
  Zn  Zn77  1  0.69322463  0.69445307  0.68733279  1
  Zn  Zn78  1  0.94314863  0.67890141  0.43105961  1
  Zn  Zn79  1  0.29376549  0.09753028  0.57901838  1
  Zn  Zn80  1  -0.00984678  0.31278841  0.54181042  1
  Zn  Zn81  1  0.01678809  0.86146437  -0.14672239  1
  Zn  Zn82  1  0.47272122  0.24058166  0.98399387  1
  Zn  Zn83  1  0.55978022  0.34184516  0.09554612  1
  Zn  Zn84  1  0.73836948  -0.04814523  0.08546683  1
  Zn  Zn85  1  0.30572273  0.37111325  0.82931844  1
  Zn  Zn86  1  0.66455444  0.70938182  0.20011988  1
  Zn  Zn87  1  0.30672765  0.51183052  0.52646808  1
  Zn  Zn88  1  0.94527617  0.44739972  0.17880419  1
  Zn  Zn89  1  0.55281539  0.00460162  0.81195078  1
  Zn  Zn90  1  0.19016994  0.94903419  0.43468561  1
  Zn  Zn91  1  1.13652993  0.18430654  0.98372332  1
  Zn  Zn92  1  0.07899179  0.34124563  0.07027315  1
  Zn  Zn93  1  0.64680582  0.26432633  0.66539731  1
  Zn  Zn94  1  0.76373325  0.38205261  0.89162267  1
  Zn  Zn95  1  0.32027378  0.32146719  0.30006424  1
  Zn  Zn96  1  0.08548902  0.51344596  0.35283146  1
  Zn  Zn97  1  0.48610152  0.25985766  0.47928259  1
  Zn  Zn98  1  0.20998632  0.39726280  0.42803473  1
  Zn  Zn99  1  0.50814142  0.74880145  0.49414206  1
  Zn  Zn100  1  0.11486541  0.06620592  0.35216291  1
  Zn  Zn101  1  0.45149201  0.44617951  0.20185132  1
  O  O102  1  0.15101557  0.13279694  0.08802830  1
  O  O103  1  -0.00659288  0.13523950  0.68392468  1
  O  O104  1  0.14163146  0.61910628  0.14518600  1
  O  O105  1  0.12496471  0.63616264  0.62860844  1
  O  O106  1  0.54524913  0.07060843  0.09204350  1
  O  O107  1  0.64648202  0.16960117  0.59250714  1
  O  O108  1  0.59424448  0.63232756  0.15578450  1
  O  O109  1  0.61928129  0.64080097  0.62666964  1
  O  O110  1  0.39963965  0.38304393  0.34317775  1
  O  O111  1  0.38355311  0.39521789  0.90345871  1
  O  O112  1  0.34329244  0.86876596  0.39810286  1
  O  O113  1  0.38026978  0.80441999  0.83475217  1
  O  O114  1  0.86152695  0.41693152  0.36224766  1
  O  O115  1  0.87148246  0.41445819  0.90586657  1
  O  O116  1  0.84908225  0.84247660  0.32031042  1
  O  O117  1  0.79465555  1.09785600  0.86403530  1
  O  O118  1  0.23720794  0.01778305  0.36385753  1
  O  O119  1  0.35307919  -0.00877008  0.91826944  1
  O  O120  1  0.28163421  0.47261730  0.38394169  1
  O  O121  1  0.25720827  0.65385936  1.05331317  1
  O  O122  1  0.74221122  -0.03798349  0.39593833  1
  O  O123  1  0.76886837  0.16367622  0.85937085  1
  O  O124  1  0.76359346  0.53899118  0.36981182  1
  O  O125  1  0.74732948  0.51736199  0.92791381  1
  O  O126  1  0.23905112  0.49511291  0.13728740  1
  O  O127  1  0.22676475  0.44360841  0.52673314  1
  O  O128  1  0.22985079  0.99287125  0.13103976  1
  O  O129  1  0.24556073  1.00717959  0.60648254  1
  O  O130  1  0.67231704  0.49600897  0.10676271  1
  O  O131  1  0.73066970  0.48688291  0.59527439  1
  O  O132  1  0.95834480  0.91078307  0.06585013  1
  O  O133  1  0.80102110  0.97487934  0.58853462  1
  O  O134  1  0.02075663  0.38711113  0.24240658  1
  O  O135  1  0.01191133  0.39352256  0.71696969  1
  O  O136  1  -0.09338647  0.87318920  0.29777437  1
  O  O137  1  0.03682684  0.87685537  0.74070576  1
  O  O138  1  0.56467187  0.40756926  0.19335514  1
  O  O139  1  0.54023981  0.38911682  0.80567126  1
  O  O140  1  0.44308371  0.85961837  0.28635361  1
  O  O141  1  0.53012745  0.86849153  0.66003791  1
  O  O142  1  0.46100112  0.16232190  0.33864292  1
  O  O143  1  0.50659527  0.07851596  0.75218006  1
  O  O144  1  0.49535074  0.65022470  0.27935954  1
  O  O145  1  0.44260962  0.54266348  0.72530308  1
  O  O146  1  1.04085660  0.13943443  0.24260219  1
  O  O147  1  0.92707148  0.01321496  0.75360482  1
  O  O148  1  1.03909287  0.70863070  0.30777309  1
  O  O149  1  0.95796795  0.62120136  0.76057499  1
  O  O150  1  0.37186639  0.28280947  0.00785294  1
  O  O151  1  0.41391265  0.24265533  0.56143369  1
  O  O152  1  0.35279514  0.72941470  0.00606545  1
  O  O153  1  0.32902732  0.74755804  0.49742031  1
  O  O154  1  0.91737359  0.28308735  -0.01737341  1
  O  O155  1  0.93480126  0.31804401  0.44348497  1
  O  O156  1  0.84125003  0.77477022  0.02814846  1
  O  O157  1  0.89876697  0.73545152  0.51941903  1
  O  O158  1  0.08547300  0.25809789  0.55614967  1
  O  O159  1  0.15350825  0.29132032  1.00433047  1
  O  O160  1  0.13793787  0.72338132  0.52418343  1
  O  O161  1  0.13669384  0.72412386  0.93670624  1
  O  O162  1  0.67423084  0.20321799  0.44677664  1
  O  O163  1  0.63713411  0.15834249  1.01258599  1
  O  O164  1  0.62177521  0.76075132  0.50510472  1
  O  O165  1  0.62756877  0.75338939  0.97102934  1
  O  O166  1  0.52322605  0.24218624  0.08359104  1
  O  O167  1  0.44842547  0.25399030  0.70815654  1
  O  O168  1  0.47292129  0.74428296  0.16229933  1
  O  O169  1  0.47167663  0.67951206  0.57419885  1
  O  O170  1  1.02766028  0.25608608  0.12911093  1
  O  O171  1  0.94677556  0.18049759  0.65502002  1
  O  O172  1  1.00103592  0.80839947  0.13893023  1
  O  O173  1  0.98715630  0.74688339  0.64899656  1
  O  O174  1  -0.07038193  0.25632347  0.27369329  1
  O  O175  1  0.06917349  0.14483817  0.90935224  1
  O  O176  1  -0.00672752  0.75020944  0.35932381  1
  O  O177  1  -0.04813700  0.77366823  0.83532648  1
  O  O178  1  0.46816068  0.22944774  0.36378028  1
  O  O179  1  0.54233079  0.27040785  0.90576981  1
  O  O180  1  0.50379648  0.76769581  0.37889948  1
  O  O181  1  0.53524487  0.75021955  0.84016232  1
  O  O182  1  0.28585964  0.14535548  0.48051982  1
  O  O183  1  0.25819182  0.17840658  0.98591060  1
  O  O184  1  0.23478823  0.60341920  0.52740672  1
  O  O185  1  0.28233033  0.71415171  1.00527868  1
  O  O186  1  0.73882566  0.09500939  0.50010245  1
  O  O187  1  0.67549656  0.03145759  1.02140761  1
  O  O188  1  0.73314353  0.64426159  0.50913503  1
  O  O189  1  0.74143766  0.64780781  1.01057493  1
  O  O190  1  0.27748606  0.38351267  0.03505010  1
  O  O191  1  0.22311856  0.29026325  0.45260653  1
  O  O192  1  0.22207313  0.86607498  0.04688122  1
  O  O193  1  0.23415737  0.88225926  0.50864645  1
  O  O194  1  0.78401398  0.37435308  0.01384936  1
  O  O195  1  0.76923310  0.36866354  0.47126039  1
  O  O196  1  0.71381931  0.86999443  0.01627845  1
  O  O197  1  0.73040118  0.86228642  0.51260726  1
  O  O198  1  0.12462672  0.51255057  0.24942462  1
  O  O199  1  0.08770809  0.49246090  0.75373121  1
  O  O200  1  0.12781739  0.99788042  0.26555679  1
  O  O201  1  0.12363099  1.00157534  0.77735405  1
  O  O202  1  0.62793880  0.52726774  0.26617004  1
  O  O203  1  0.62231861  0.48141893  0.70240592  1
  O  O204  1  0.72506472  0.98884507  0.33030796  1
  O  O205  1  0.65423063  0.96821556  0.78547034  1
  O  O206  1  0.34506875  0.02180697  0.24585657  1
  O  O207  1  0.34611177  -0.00856491  0.84734561  1
  O  O208  1  0.39030923  0.51738230  0.26977829  1
  O  O209  1  0.33676803  0.45177329  0.76015463  1
  O  O210  1  0.92824946  0.01025638  0.22541769  1
  O  O211  1  0.91504361  0.00040623  0.82719235  1
  O  O212  1  0.88329515  0.51441713  0.25052783  1
  O  O213  1  0.86767170  0.50585792  0.72133366  1
  O  O214  1  0.12422632  0.40599224  0.35933574  1
  O  O215  1  0.07275616  0.37605961  0.85300905  1
  O  O216  1  0.14814683  0.82985438  0.36542027  1
  O  O217  1  0.14685025  0.86444350  0.84844658  1
  O  O218  1  0.66357859  0.38475828  0.32604524  1
  O  O219  1  0.64755440  0.38606551  0.92743027  1
  O  O220  1  0.56568606  0.90871073  0.40406073  1
  O  O221  1  0.64169901  0.85478900  0.87602961  1
  O  O222  1  0.40430647  0.14239758  0.17521264  1
  O  O223  1  0.34238893  0.16952724  0.65219353  1
  O  O224  1  0.38359475  0.62134322  0.16363591  1
  O  O225  1  0.33558985  0.52368926  0.63145425  1
  O  O226  1  0.82640798  0.00994404  0.09366913  1
  O  O227  1  0.81374796  0.10530521  0.69902987  1
  O  O228  1  0.91829961  0.66858878  0.18335553  1
  O  O229  1  0.86584031  0.62606276  0.61754734  1
  O  O230  1  0.25097349  0.27899473  0.13192114  1
  O  O231  1  0.26591848  0.27361535  0.61540392  1
  O  O232  1  0.26759659  0.78386810  0.16557374  1
  O  O233  1  0.24637625  0.74705415  0.68506926  1
  O  O234  1  0.79259164  0.23456350  0.08846182  1
  O  O235  1  0.76949355  0.24774948  0.67704849  1
  O  O236  1  0.71703151  0.75613080  0.11755386  1
  O  O237  1  0.76868589  0.75729040  0.60370458  1
  O  O238  1  0.30119476  0.22095817  0.33421806  1
  O  O239  1  0.26348634  0.29699750  0.89365253  1
  O  O240  1  0.19551142  0.78138392  0.33963631  1
  O  O241  1  0.23450301  0.69038427  0.81880211  1
  O  O242  1  0.77921372  0.20655507  0.33705611  1
  O  O243  1  0.70517051  0.32918696  0.81735877  1
  O  O244  1  0.75703425  0.74279501  0.40661740  1
  O  O245  1  0.75749007  0.73548032  0.89966577  1
  O  O246  1  -0.02571075  0.10431961  -0.01666773  1
  O  O247  1  -0.00811039  0.15921883  0.45483695  1
  O  O248  1  0.00749579  0.62286105  0.02678117  1
  O  O249  1  0.03517210  0.64550610  0.49361816  1
  O  O250  1  0.49148625  0.12440736  -0.02064390  1
  O  O251  1  0.54100703  0.16456462  0.50194310  1
  O  O252  1  0.48073471  0.64721939  0.03927134  1
  O  O253  1  0.55967635  0.61283167  0.46967411  1
  O  O254  1  0.50627785  0.36259080  0.47929344  1
  O  O255  1  0.48177983  0.38582860  1.03191279  1
  O  O256  1  0.44753509  0.85369097  0.49417952  1
  O  O257  1  0.47766069  0.83630737  0.97049368  1
  O  O258  1  1.04378166  0.42715931  0.54586145  1
  O  O259  1  0.99612213  0.40599085  1.02296942  1
  O  O260  1  1.01878859  0.86090434  0.50212524  1
  O  O261  1  1.04155078  0.86201274  0.96549431  1
  O  O262  1  0.50474933  0.49019657  0.37844765  1
  O  O263  1  0.52076445  0.51019037  0.92994948  1
  O  O264  1  0.44065901  0.98469456  0.38050633  1
  O  O265  1  0.49346870  0.91411625  0.83075759  1
  O  O266  1  0.97932222  0.52570690  0.37519298  1
  O  O267  1  0.98260658  0.51920585  0.91585782  1
  O  O268  1  1.08338705  0.99188627  0.43673565  1
  O  O269  1  0.97813157  0.97910743  0.87190908  1
  O  O270  1  0.07089520  0.00236198  0.10379209  1
  O  O271  1  -0.00505691  -0.01141414  0.59010889  1
  O  O272  1  0.01997508  0.51464180  0.13538353  1
  O  O273  1  0.00386242  0.47491512  0.58393018  1
  O  O274  1  0.53958758  -0.03237390  0.23867608  1
  O  O275  1  0.47535381  -0.08680679  0.66748184  1
  O  O276  1  0.50146225  0.53049393  0.14516737  1
  O  O277  1  0.52996992  0.50652510  0.57899638  1
  O  O278  1  0.23831367  0.38012427  0.25086788  1
  O  O279  1  0.19569873  0.40773677  0.80937833  1
  O  O280  1  0.25407816  0.90617186  0.23826361  1
  O  O281  1  0.24201214  0.90858047  0.72933532  1
  O  O282  1  0.76481086  0.33667548  0.21805734  1
  O  O283  1  0.80811809  0.24722997  0.61646755  1
  O  O284  1  0.68364202  0.91695598  0.18114808  1
  O  O285  1  0.78971606  0.87958268  0.81843544  1
  O  O286  1  0.22185315  0.11510270  0.23926157  1
  O  O287  1  0.17351767  0.15658555  0.68122745  1
  O  O288  1  0.26374591  0.63537390  0.26199889  1
  O  O289  1  0.23710089  0.56971397  0.71043237  1
  O  O290  1  0.78662165  0.08639061  0.22862018  1
  O  O291  1  0.75203116  0.07547180  0.70873716  1
  O  O292  1  0.75416121  0.66513121  0.25831288  1
  O  O293  1  0.76251628  0.62230010  0.74199193  1
  O  O294  1  0.43958778  0.03329204  0.52559629  1
  O  O295  1  0.39378687  0.19177567  0.86868391  1
  O  O296  1  0.36515381  0.60524524  0.37821109  1
  O  O297  1  0.32813737  0.56270555  0.83222144  1
  O  O298  1  0.82767730  0.16654059  0.37255789  1
  O  O299  1  0.93720138  0.18528202  0.81937003  1
  O  O300  1  0.86629405  0.62773570  0.37347657  1
  O  O301  1  0.84928644  0.60598651  0.88481581  1
  O  O302  1  0.14067405  0.39684051  0.14883003  1
  O  O303  1  0.16197913  0.38458037  0.67204967  1
  O  O304  1  0.01956399  0.75870750  0.09151721  1
  O  O305  1  0.14269271  0.87360344  0.63855915  1
  O  O306  1  0.67050776  0.33468919  0.11174209  1
  O  O307  1  0.63304797  0.35463898  0.61141763  1
  O  O308  1  0.55452642  0.87248093  0.10514700  1
  O  O309  1  0.70975858  0.88660622  0.67651460  1
  O  O310  1  0.13142865  0.27446476  0.25632485  1
  O  O311  1  0.10657365  0.28969362  0.74113740  1
  O  O312  1  0.07051316  0.74552013  0.25475923  1
  O  O313  1  0.08371329  0.70346588  0.76677693  1
  O  O314  1  0.61697142  0.26383882  0.24642081  1
  O  O315  1  0.61663180  0.25125524  0.76753301  1
  O  O316  1  0.58997829  0.79511070  0.24554095  1
  O  O317  1  0.67350781  0.77215076  0.76669598  1
  O  O318  1  0.40108667  0.21194466  0.17333256  1
  O  O319  1  0.32453128  0.29828266  0.74240822  1
  O  O320  1  0.37732479  0.73250091  0.28638908  1
  O  O321  1  0.36006148  0.64868766  0.72398658  1
  O  O322  1  0.91385323  0.14976468  0.14419844  1
  O  O323  1  0.89431769  0.22642054  0.78023304  1
  O  O324  1  0.89595962  0.73212198  0.20410271  1
  O  O325  1  0.86529854  0.72412084  0.72531400  1
  O  O326  1  0.40309872  0.48938378  0.47763217  1
  O  O327  1  0.37229487  0.49663448  1.02186017  1
  O  O328  1  0.40753144  1.03649423  0.59025343  1
  O  O329  1  0.34078255  1.14966148  0.85153480  1
  O  O330  1  0.86861092  0.49150376  0.49004798  1
  O  O331  1  0.88822128  0.51782509  1.02658416  1
  O  O332  1  0.91606215  0.98295195  0.44924331  1
  O  O333  1  0.90814204  1.11833642  0.96304092  1
  O  O334  1  0.15756109  0.00557298  -0.02940938  1
  O  O335  1  0.11222243  0.10366724  0.54918886  1
  O  O336  1  0.11664450  0.51030137  0.02912747  1
  O  O337  1  0.09777227  0.53443921  0.54714273  1
  O  O338  1  0.56025414  -0.02211424  -0.02053409  1
  O  O339  1  0.62307445  0.02934030  0.53020543  1
  O  O340  1  0.52610961  0.57032293  -0.10370956  1
  O  O341  1  0.62297684  0.45932991  0.47951824  1
  O  O342  1  0.36310873  0.38647197  0.16612762  1
  O  O343  1  0.38158853  0.35982311  0.61801192  1
  O  O344  1  0.37295542  0.89229448  0.12425087  1
  O  O345  1  0.33436220  0.86742041  0.60763914  1
  O  O346  1  0.88052941  0.36938539  0.12029029  1
  O  O347  1  0.89553577  0.36239123  0.58062141  1
  O  O348  1  0.96009455  0.88235012  0.00007432  1
  O  O349  1  0.87598127  0.85149532  0.63495768  1
  O  O350  1  0.14245598  0.16492449  0.40142980  1
  O  O351  1  0.19047325  0.14683207  0.75166060  1
  O  O352  1  0.14555581  0.59293286  0.42407861  1
  O  O353  1  0.12958637  0.66110562  0.96314609  1
  O  O354  1  0.61029089  0.08427561  0.40551284  1
  O  O355  1  0.58899994  0.07833271  0.89370486  1
  O  O356  1  0.64987683  0.64880474  0.36125800  1
  O  O357  1  0.65709923  0.64040629  0.86587003  1
