# generated using pymatgen
data_V51Zn51O256
_symmetry_space_group_name_H-M   'P 1'
_cell_length_a   17.68989265
_cell_length_b   17.71992812
_cell_length_c   17.48978733
_cell_angle_alpha   90.86443323
_cell_angle_beta   89.30857615
_cell_angle_gamma   89.70732954
_symmetry_Int_Tables_number   1
_chemical_formula_structural   V51Zn51O256
_chemical_formula_sum   'V51 Zn51 O256'
_cell_volume   5481.31233313
_cell_formula_units_Z   1
loop_
 _symmetry_equiv_pos_site_id
 _symmetry_equiv_pos_as_xyz
  1  'x, y, z'
loop_
 _atom_site_type_symbol
 _atom_site_label
 _atom_site_symmetry_multiplicity
 _atom_site_fract_x
 _atom_site_fract_y
 _atom_site_fract_z
 _atom_site_occupancy
  V  V0  1  0.88066268  0.00478769  0.85919364  1
  V  V1  1  -0.01815235  0.86427573  0.86624524  1
  V  V2  1  0.37818492  0.13041035  0.71609067  1
  V  V3  1  0.88135793  0.86345470  0.52111248  1
  V  V4  1  0.74759169  0.04007160  0.18296935  1
  V  V5  1  0.35968114  0.47723788  0.75367758  1
  V  V6  1  0.12126511  0.34308152  0.75397167  1
  V  V7  1  0.04140913  0.35009115  0.93184293  1
  V  V8  1  0.41136049  0.87688863  0.47317862  1
  V  V9  1  0.50396540  0.34358375  0.38279579  1
  V  V10  1  0.39232080  0.32563892  0.53141846  1
  V  V11  1  -0.02284223  0.54153656  0.56385554  1
  V  V12  1  0.11589854  -0.01182073  0.62228401  1
  V  V13  1  0.72181564  0.44088238  0.77024176  1
  V  V14  1  0.00814093  0.27384334  0.27119073  1
  V  V15  1  -0.02995044  0.39830709  0.44420440  1
  V  V16  1  0.24587307  0.76388204  0.00510862  1
  V  V17  1  0.27210597  0.11283089  0.86738569  1
  V  V18  1  0.27134396  0.63184107  0.84706989  1
  V  V19  1  0.51090234  0.71818930  0.69624566  1
  V  V20  1  0.59892533  0.64706690  -0.01610241  1
  V  V21  1  0.61864930  0.75657706  0.86398567  1
  V  V22  1  0.49157614  0.20801446  0.09671878  1
  V  V23  1  0.36419866  -0.02637166  0.80761938  1
  V  V24  1  0.78326031  0.52531844  0.24867440  1
  V  V25  1  0.74197405  0.85435040  0.62259670  1
  V  V26  1  0.13853735  0.79530355  0.38101158  1
  V  V27  1  0.38042418  0.64008766  0.25891059  1
  V  V28  1  0.73255363  0.31443183  0.63558113  1
  V  V29  1  0.46070158  -0.02419330  0.01037499  1
  V  V30  1  0.01747714  -0.00947821  -0.01427737  1
  V  V31  1  0.08036901  0.56209520  0.20796633  1
  V  V32  1  0.88625407  0.73828678  0.10443795  1
  V  V33  1  0.42418155  0.38982205  0.06145153  1
  V  V34  1  0.44396805  -0.00411496  0.34517103  1
  V  V35  1  0.12386012  0.28896250  0.41329883  1
  V  V36  1  0.34826962  0.76247837  0.58997108  1
  V  V37  1  0.38969093  0.76554573  0.13514229  1
  V  V38  1  0.66926508  0.49633490  0.60235170  1
  V  V39  1  0.22107693  0.12910887  0.40016879  1
  V  V40  1  -0.01922624  0.21391156  0.75051307  1
  V  V41  1  -0.00345605  0.74209068  0.74525983  1
  V  V42  1  0.89745073  -0.01331613  0.28266071  1
  V  V43  1  0.75735190  0.78130063  0.44162479  1
  V  V44  1  0.24244685  0.04934560  0.24840882  1
  V  V45  1  0.13608272  0.51133955  0.66097101  1
  V  V46  1  0.64586751  -0.05068171  0.07089216  1
  V  V47  1  0.49964135  0.51336574  -0.01737750  1
  V  V48  1  0.70487351  0.08134405  0.88466195  1
  V  V49  1  0.53265696  0.08299065  0.63191531  1
  V  V50  1  0.46700256  0.84593092  0.83949092  1
  Zn  Zn51  1  0.92146708  0.68533985  0.91000344  1
  Zn  Zn52  1  0.95927098  0.57712386  0.33470864  1
  Zn  Zn53  1  0.19514637  0.92598374  0.90092301  1
  Zn  Zn54  1  0.53350786  0.82316240  0.03798203  1
  Zn  Zn55  1  0.34325763  0.04381877  0.53172049  1
  Zn  Zn56  1  0.30397194  0.28647124  0.78293150  1
  Zn  Zn57  1  0.95745562  0.71912665  0.47426446  1
  Zn  Zn58  1  0.36413407  0.96811174  0.16873830  1
  Zn  Zn59  1  0.07056368  0.10367793  0.30039509  1
  Zn  Zn60  1  0.42914341  0.45596732  0.23792149  1
  Zn  Zn61  1  0.21741926  0.24335192  0.28004449  1
  Zn  Zn62  1  0.83477732  -0.07564515  0.04332280  1
  Zn  Zn63  1  0.38331792  0.23302395  0.94639464  1
  Zn  Zn64  1  0.83326723  0.02335073  0.45858139  1
  Zn  Zn65  1  0.66242902  0.69595448  0.57443364  1
  Zn  Zn66  1  0.52919947  0.04495362  0.17952298  1
  Zn  Zn67  1  0.17970889  0.15839767  0.72977878  1
  Zn  Zn68  1  0.70244253  0.67097041  0.15760025  1
  Zn  Zn69  1  0.83561113  0.34961119  0.33705700  1
  Zn  Zn70  1  0.86301031  0.56664000  0.00353166  1
  Zn  Zn71  1  0.21549364  0.96056486  0.43961255  1
  Zn  Zn72  1  0.29483179  0.57957229  0.59771106  1
  Zn  Zn73  1  0.64660524  0.47510621  0.41034028  1
  Zn  Zn74  1  0.69949745  0.48975823  0.95106716  1
  Zn  Zn75  1  0.72334894  0.12111950  0.60248234  1
  Zn  Zn76  1  0.16325800  0.74562257  0.18579938  1
  Zn  Zn77  1  0.46295291  0.16414681  0.45078417  1
  Zn  Zn78  1  0.81300228  0.43298302  0.53179202  1
  Zn  Zn79  1  0.50483481  0.07743901  0.84274439  1
  Zn  Zn80  1  0.77945886  0.22734176  0.76537652  1
  Zn  Zn81  1  0.54215668  0.52173461  0.71640671  1
  Zn  Zn82  1  0.07047722  0.79748453  0.03106430  1
  Zn  Zn83  1  0.66510890  0.13572632  0.07489324  1
  Zn  Zn84  1  0.32757913  0.85264756  0.28403938  1
  Zn  Zn85  1  0.08105767  0.04732485  0.83272438  1
  Zn  Zn86  1  0.41286462  0.69764830  0.95753658  1
  Zn  Zn87  1  0.73483923  0.89491679  0.89921598  1
  Zn  Zn88  1  0.18610848  0.70346995  0.69018631  1
  Zn  Zn89  1  0.56478700  0.39658859  0.14329517  1
  Zn  Zn90  1  0.57457269  0.56974054  0.25635994  1
  Zn  Zn91  1  0.22149805  0.41729916  0.50241267  1
  Zn  Zn92  1  0.32992027  0.10073633  0.06267838  1
  Zn  Zn93  1  0.27814417  0.80658492  0.79989464  1
  Zn  Zn94  1  0.54529852  0.36455735  0.61905547  1
  Zn  Zn95  1  0.45175978  0.90923327  0.66298587  1
  Zn  Zn96  1  0.97514202  0.16071236  0.91556687  1
  Zn  Zn97  1  0.37141959  0.68548650  0.44004473  1
  Zn  Zn98  1  0.86662988  0.88474705  0.73035986  1
  Zn  Zn99  1  0.36345336  0.55719835  0.11266632  1
  Zn  Zn100  1  0.03240521  0.28159930  0.58700406  1
  Zn  Zn101  1  0.04476254  0.39968470  0.12549568  1
  O  O102  1  0.12965629  0.21843446  0.08168974  1
  O  O103  1  0.14253370  0.08786272  0.64620531  1
  O  O104  1  0.09666056  0.65004400  0.16809473  1
  O  O105  1  0.19317178  0.59494588  0.65708437  1
  O  O106  1  0.57358171  0.18996778  0.04695532  1
  O  O107  1  0.62835703  0.09023353  0.64569717  1
  O  O108  1  0.65677172  0.66113985  0.05903715  1
  O  O109  1  0.67704417  0.59169935  0.60385574  1
  O  O110  1  0.30055888  0.35765584  0.54041415  1
  O  O111  1  0.22774557  0.40225826  1.06220303  1
  O  O112  1  0.38866393  0.90393855  0.36499170  1
  O  O113  1  0.35766382  0.87133041  0.83392358  1
  O  O114  1  0.86800501  0.39270176  0.43449957  1
  O  O115  1  0.82955445  0.36857012  0.92744360  1
  O  O116  1  0.87906018  0.89902112  0.30000197  1
  O  O117  1  0.88233297  0.87968237  0.85001379  1
  O  O118  1  0.24348297  0.03017068  0.36091233  1
  O  O119  1  0.27674606  -0.00041547  0.85956814  1
  O  O120  1  0.39419116  0.53492316  0.46241957  1
  O  O121  1  0.33602220  0.55733391  0.81976565  1
  O  O122  1  0.63813790  0.11840426  0.38275558  1
  O  O123  1  0.77035327  -0.00441209  0.87649316  1
  O  O124  1  0.72128702  0.50391581  0.33110967  1
  O  O125  1  0.68843555  0.42883884  0.86406318  1
  O  O126  1  0.17542929  0.55199421  0.21672229  1
  O  O127  1  0.32735861  0.50236051  0.66543290  1
  O  O128  1  0.28912237  1.08088478  0.16412567  1
  O  O129  1  0.20719606  0.95175175  0.63369053  1
  O  O130  1  0.83468339  0.50528083  0.16824675  1
  O  O131  1  0.73909511  0.43564197  0.64560668  1
  O  O132  1  0.74610550  0.96160507  0.10351058  1
  O  O133  1  0.66248437  0.97343502  0.48238416  1
  O  O134  1  -0.03643485  0.47852297  0.36926704  1
  O  O135  1  0.02696964  0.29936167  0.77486437  1
  O  O136  1  -0.00226932  0.97306720  0.23176085  1
  O  O137  1  -0.07345728  0.79525977  0.70347158  1
  O  O138  1  0.46235943  0.37238740  0.29936458  1
  O  O139  1  0.54983690  0.32635778  0.73890382  1
  O  O140  1  0.60522081  0.84500493  0.25518966  1
  O  O141  1  0.48273100  0.82987079  0.73880910  1
  O  O142  1  0.49671792  0.15285140  0.17505524  1
  O  O143  1  0.48418055  0.10617415  0.72648230  1
  O  O144  1  0.47328016  0.62897038  0.26980267  1
  O  O145  1  0.50350142  0.62412949  0.71069734  1
  O  O146  1  0.99736382  0.17663150  0.26958626  1
  O  O147  1  1.02237976  0.14043722  0.80501947  1
  O  O148  1  0.95702587  0.67224743  0.37546128  1
  O  O149  1  1.02528283  0.55538167  0.83427330  1
  O  O150  1  0.37962039  0.33430440  -0.00367044  1
  O  O151  1  0.39218436  0.23236362  0.50678963  1
  O  O152  1  0.36340484  0.76274301  0.03531193  1
  O  O153  1  0.35093406  0.78801519  0.47701208  1
  O  O154  1  0.84022661  0.32272043  -0.02241906  1
  O  O155  1  0.88900363  0.20583745  0.50098881  1
  O  O156  1  0.87572883  0.74584736  -0.00036655  1
  O  O157  1  0.86041464  0.77215897  0.45931805  1
  O  O158  1  0.08865405  0.24951195  0.49458682  1
  O  O159  1  0.16831386  0.22787450  1.02426852  1
  O  O160  1  0.16814165  0.79848394  0.47723860  1
  O  O161  1  0.15397817  0.73523689  0.98943004  1
  O  O162  1  0.72733017  0.26681936  0.42691061  1
  O  O163  1  0.53598383  0.25993531  0.89135984  1
  O  O164  1  0.68144074  0.72505350  0.47022877  1
  O  O165  1  0.56907552  0.74664491  0.96420951  1
  O  O166  1  0.49143460  0.30918619  0.11415224  1
  O  O167  1  0.54260664  0.23018047  0.65696847  1
  O  O168  1  0.48472969  0.77051970  0.12385621  1
  O  O169  1  0.56364206  0.72915685  0.61747457  1
  O  O170  1  1.03763581  0.30788961  0.18386141  1
  O  O171  1  0.99594235  0.20227015  0.65374407  1
  O  O172  1  0.98385288  0.73278805  0.07629303  1
  O  O173  1  0.96659601  0.65349757  0.73770039  1
  O  O174  1  0.01586914  0.32887248  0.38342618  1
  O  O175  1  0.00152703  0.26081798  0.94010645  1
  O  O176  1  0.04168019  0.79957412  0.40002681  1
  O  O177  1  -0.02219665  0.75343342  0.85479131  1
  O  O178  1  0.50953279  0.24721183  0.39096139  1
  O  O179  1  0.47774024  0.20351801  0.88208212  1
  O  O180  1  0.50109333  0.75149824  0.35200951  1
  O  O181  1  0.44229407  0.75638218  0.86794096  1
  O  O182  1  0.26845535  0.11210716  0.48349675  1
  O  O183  1  0.27739194  0.10716542  0.96546847  1
  O  O184  1  0.26974741  0.52204790  0.49392337  1
  O  O185  1  0.24950562  0.58871875  1.06232296  1
  O  O186  1  0.72704048  0.20218117  0.45658121  1
  O  O187  1  0.70911461  0.11501360  0.97622882  1
  O  O188  1  0.79011405  0.65232202  0.41566628  1
  O  O189  1  0.77229106  0.52179959  1.02066671  1
  O  O190  1  0.21334193  0.36665247  0.12049758  1
  O  O191  1  0.21474905  0.24353469  0.57175166  1
  O  O192  1  0.24519726  0.85246389  -0.03144394  1
  O  O193  1  0.29693412  0.94471442  0.50280245  1
  O  O194  1  0.70287467  0.38038435  0.04015277  1
  O  O195  1  0.75886873  0.27066676  0.35318437  1
  O  O196  1  0.77011282  0.85525596  -0.00747700  1
  O  O197  1  0.76773249  0.86598396  0.50400552  1
  O  O198  1  0.07536177  0.57907092  0.31037542  1
  O  O199  1  0.14760025  0.44747299  0.73736896  1
  O  O200  1  0.14764818  1.05382430  0.23428408  1
  O  O201  1  0.08998245  1.00515908  0.72172552  1
  O  O202  1  0.69720701  0.52484872  0.19344261  1
  O  O203  1  0.64780429  0.50163136  0.73158087  1
  O  O204  1  0.63399120  1.03823973  0.13635679  1
  O  O205  1  0.61158189  0.94481421  0.74692163  1
  O  O206  1  0.44638999  0.00224547  0.23985506  1
  O  O207  1  0.35934096  -0.03344136  0.71185028  1
  O  O208  1  0.35998795  0.54111878  0.22363396  1
  O  O209  1  0.45550662  0.46514911  0.74572353  1
  O  O210  1  0.84736428  0.01710970  0.19816693  1
  O  O211  1  0.88036254  -0.00168171  0.76191322  1
  O  O212  1  0.85258122  0.55840575  0.30918879  1
  O  O213  1  0.79910309  0.48929773  0.78115826  1
  O  O214  1  0.15509925  0.37931869  0.42616007  1
  O  O215  1  0.11622887  0.36343965  0.85849173  1
  O  O216  1  0.14376590  0.89985418  0.38510600  1
  O  O217  1  0.03572082  0.85883310  0.78794029  1
  O  O218  1  0.59221792  0.38281181  0.39640854  1
  O  O219  1  0.60198459  0.23910608  0.87686033  1
  O  O220  1  0.61660274  0.85675818  0.32257487  1
  O  O221  1  0.56487708  0.84734269  0.86471414  1
  O  O222  1  0.40700091  0.18218061  0.04546292  1
  O  O223  1  0.37133251  0.09847141  0.62301614  1
  O  O224  1  0.36849920  0.66099528  0.14684014  1
  O  O225  1  0.33650680  0.66570867  0.54669254  1
  O  O226  1  0.87743657  0.25823390  0.11954868  1
  O  O227  1  0.76269486  0.05663159  0.52865118  1
  O  O228  1  0.87439279  0.63683610  0.09747988  1
  O  O229  1  0.82858699  0.62724226  0.72071985  1
  O  O230  1  0.27543829  0.33422019  0.26234911  1
  O  O231  1  0.24915752  0.20388856  0.61628161  1
  O  O232  1  0.23875231  0.76977438  0.10671107  1
  O  O233  1  0.26416641  0.77265602  0.63639850  1
  O  O234  1  0.81343890  0.28444140  0.12330501  1
  O  O235  1  0.74527877  0.21392677  0.65497868  1
  O  O236  1  0.78625867  0.73550191  0.12252175  1
  O  O237  1  0.74187834  0.75660230  0.61985149  1
  O  O238  1  0.21491620  0.23782799  0.40621308  1
  O  O239  1  0.30692245  0.21355645  0.86914245  1
  O  O240  1  0.22808585  0.81496400  0.33121272  1
  O  O241  1  0.29732045  0.68379206  0.93394527  1
  O  O242  1  0.66542085  0.27220474  0.22751070  1
  O  O243  1  0.73782363  0.15034880  0.82631041  1
  O  O244  1  0.74744569  0.79875049  0.35131004  1
  O  O245  1  0.70408390  0.79780505  0.85794073  1
  O  O246  1  0.01101057  0.08814030  -0.01133761  1
  O  O247  1  -0.09477898  0.19933156  0.43292920  1
  O  O248  1  -0.04170710  0.60008211  -0.03003295  1
  O  O249  1  -0.02017855  0.63293620  0.53509134  1
  O  O250  1  0.47840499  0.04857317  -0.04752098  1
  O  O251  1  0.51212087  0.12231264  0.54492610  1
  O  O252  1  0.48944112  0.62143528  -0.00973219  1
  O  O253  1  0.48985004  0.67415849  0.45035619  1
  O  O254  1  0.44109402  0.37719649  0.45777330  1
  O  O255  1  0.52311817  0.42482221  1.03813571  1
  O  O256  1  0.49905432  0.84991720  0.46513312  1
  O  O257  1  0.46443012  0.88473566  0.96919322  1
  O  O258  1  0.97560348  0.35672651  0.53142161  1
  O  O259  1  1.07283105  0.37847391  1.02341740  1
  O  O260  1  0.96482692  0.81106146  0.53965195  1
  O  O261  1  1.02731505  0.86210893  0.95773753  1
  O  O262  1  0.59079142  0.55165139  0.36281980  1
  O  O263  1  0.48321707  0.48477890  0.89672844  1
  O  O264  1  0.53368947  0.98054152  0.35984245  1
  O  O265  1  0.46291929  0.95787587  0.82897579  1
  O  O266  1  1.01842686  0.48713793  0.48871982  1
  O  O267  1  0.97229910  0.41084191  0.91233796  1
  O  O268  1  1.00594000  1.00058374  0.30429412  1
  O  O269  1  0.98700477  0.97838039  0.86528431  1
  O  O270  1  0.03739367  -0.03697494  0.07234012  1
  O  O271  1  0.02938473  0.01014566  0.57775675  1
  O  O272  1  -0.02043833  0.58994102  0.22341778  1
  O  O273  1  0.03835316  0.53172230  0.64920774  1
  O  O274  1  0.52860327  -0.02751351  0.08295492  1
  O  O275  1  0.51553073  -0.01212234  0.62715952  1
  O  O276  1  0.53502624  0.48201839  0.20275350  1
  O  O277  1  0.57259818  0.47127036  0.60589796  1
  O  O278  1  0.31228721  0.41525537  0.35392303  1
  O  O279  1  0.32045214  0.39323576  0.78216225  1
  O  O280  1  0.27755790  0.95459199  0.24414266  1
  O  O281  1  0.19122378  0.86587434  0.80909945  1
  O  O282  1  0.79932180  0.42600437  0.26546210  1
  O  O283  1  0.74138876  0.33489806  0.74179703  1
  O  O284  1  0.70958411  1.02690220  0.26792220  1
  O  O285  1  0.75652437  0.87688658  0.72099036  1
  O  O286  1  0.25961849  0.14660212  0.29885545  1
  O  O287  1  0.28023344  0.11574328  0.74667942  1
  O  O288  1  0.23716982  0.68888030  0.23515751  1
  O  O289  1  0.26372856  0.70249403  0.77455725  1
  O  O290  1  0.74336089  0.13395158  0.15318582  1
  O  O291  1  0.66943356  -0.02067841  0.73589189  1
  O  O292  1  0.76875800  0.62736187  0.23910912  1
  O  O293  1  0.79631458  0.66918857  0.76591301  1
  O  O294  1  0.42433827  0.08609985  0.38118136  1
  O  O295  1  0.38346079  0.08242401  0.82382595  1
  O  O296  1  0.33922793  0.63885249  0.34968776  1
  O  O297  1  0.20362496  0.56034409  1.01675735  1
  O  O298  1  0.86419763  0.04333941  0.35824676  1
  O  O299  1  0.88743778  0.09749913  0.88452252  1
  O  O300  1  0.81843397  0.60686966  0.45999580  1
  O  O301  1  0.83618354  0.62144985  0.91226013  1
  O  O302  1  0.06578948  0.45910108  0.22434968  1
  O  O303  1  0.09808547  0.33550909  0.65813762  1
  O  O304  1  0.09661971  0.81057157  0.13440474  1
  O  O305  1  0.08274840  0.89762707  0.63182727  1
  O  O306  1  0.67291379  0.35948658  0.10222116  1
  O  O307  1  0.64431710  0.32114572  0.59692441  1
  O  O308  1  0.62466484  0.85815299  0.09238593  1
  O  O309  1  0.65568890  0.88725681  0.60768119  1
  O  O310  1  0.11271855  0.26470726  0.30830682  1
  O  O311  1  0.19173668  0.26982474  0.75298767  1
  O  O312  1  0.10526053  0.77867397  0.28077351  1
  O  O313  1  0.08736143  0.73953005  0.70114400  1
  O  O314  1  0.61690617  0.32163543  0.24176046  1
  O  O315  1  0.55076963  0.25282463  0.72746673  1
  O  O316  1  0.62146371  0.66220409  0.22374740  1
  O  O317  1  0.58575074  0.72823553  0.77437114  1
  O  O318  1  0.30387412  0.34640292  0.33623891  1
  O  O319  1  0.37790541  0.22647071  0.71810419  1
  O  O320  1  0.36756295  0.74859448  0.24891951  1
  O  O321  1  0.41220528  0.73121143  0.66136951  1
  O  O322  1  0.91727373  0.30982068  0.27764196  1
  O  O323  1  0.88759131  0.22515139  0.77357256  1
  O  O324  1  0.91436409  0.74035973  0.19875377  1
  O  O325  1  0.98388935  0.50529797  0.81298653  1
  O  O326  1  0.32850459  0.52360249  0.43777477  1
  O  O327  1  0.40192949  0.49442434  1.03162969  1
  O  O328  1  0.42371204  0.97906160  0.48613786  1
  O  O329  1  0.37532379  0.99700763  1.06094826  1
  O  O330  1  0.88673949  0.50858418  0.56754623  1
  O  O331  1  0.91644182  0.45969983  1.04337270  1
  O  O332  1  0.90772943  0.94068182  0.47174333  1
  O  O333  1  0.90723778  0.96986298  0.98014117  1
  O  O334  1  0.11190417  -0.00923556  -0.07445932  1
  O  O335  1  0.14924682  -0.00214015  0.52431865  1
  O  O336  1  0.06030779  0.52070102  0.11602292  1
  O  O337  1  0.16138811  0.46560463  0.58104859  1
  O  O338  1  0.65025588  -0.04521186  -0.02470794  1
  O  O339  1  0.59844613  -0.00253066  0.48347400  1
  O  O340  1  0.60237296  0.53847637  -0.01690588  1
  O  O341  1  0.70353968  0.47166969  0.50577534  1
  O  O342  1  0.37764746  0.40049036  0.14544593  1
  O  O343  1  0.44188940  0.34401731  0.61412279  1
  O  O344  1  0.36227048  0.85749020  0.16741443  1
  O  O345  1  0.39748723  0.85610717  0.58391049  1
  O  O346  1  0.92769493  0.41618248  0.09843637  1
  O  O347  1  0.80117318  0.32840096  0.56815661  1
  O  O348  1  0.87933923  0.83781021  0.10509530  1
  O  O349  1  0.84965061  0.89649265  0.61191939  1
  O  O350  1  0.12429671  0.11313797  0.39939093  1
  O  O351  1  0.17574182  0.11770835  0.84144899  1
  O  O352  1  0.15904406  0.70034921  0.39085521  1
  O  O353  1  0.18753716  0.59732035  0.85733314  1
  O  O354  1  0.63207800  0.15784802  0.32668971  1
  O  O355  1  0.61422994  0.06368162  0.85633737  1
  O  O356  1  0.53362860  0.71185541  0.40148532  1
  O  O357  1  0.64878353  0.65625750  0.89740892  1
