# generated using pymatgen
data_V51Zn51O256
_symmetry_space_group_name_H-M   'P 1'
_cell_length_a   17.70289386
_cell_length_b   17.67192444
_cell_length_c   17.54599395
_cell_angle_alpha   89.20481118
_cell_angle_beta   88.41406075
_cell_angle_gamma   89.18933118
_symmetry_Int_Tables_number   1
_chemical_formula_structural   V51Zn51O256
_chemical_formula_sum   'V51 Zn51 O256'
_cell_volume   5486.01110137
_cell_formula_units_Z   1
loop_
 _symmetry_equiv_pos_site_id
 _symmetry_equiv_pos_as_xyz
  1  'x, y, z'
loop_
 _atom_site_type_symbol
 _atom_site_label
 _atom_site_symmetry_multiplicity
 _atom_site_fract_x
 _atom_site_fract_y
 _atom_site_fract_z
 _atom_site_occupancy
  V  V0  1  0.34877656  0.27720766  0.15992078  1
  V  V1  1  0.35544941  0.03364445  0.37778071  1
  V  V2  1  0.52663498  0.38810601  0.37567800  1
  V  V3  1  0.14895714  -0.03166640  0.69723266  1
  V  V4  1  0.12282033  0.24569842  0.82599330  1
  V  V5  1  -0.06153040  0.12081187  0.09383070  1
  V  V6  1  0.45131527  0.88209618  0.92630628  1
  V  V7  1  0.73146803  0.35428304  0.63884427  1
  V  V8  1  0.30155630  0.27269373  0.53104139  1
  V  V9  1  0.92931903  0.47471953  0.86175815  1
  V  V10  1  0.84819150  0.88668968  0.51780019  1
  V  V11  1  0.27014698  0.78776678  0.51851176  1
  V  V12  1  0.82118346  -0.00043229  0.37673531  1
  V  V13  1  0.87282682  0.35074510  -0.01977142  1
  V  V14  1  0.00115864  0.47225646  0.01780918  1
  V  V15  1  0.91782049  0.74912037  0.03279113  1
  V  V16  1  0.66730678  0.86188643  0.11714463  1
  V  V17  1  0.87100079  0.13978732  0.75148878  1
  V  V18  1  0.59645500  0.78909680  0.42170119  1
  V  V19  1  0.48592303  0.52492614  0.03750998  1
  V  V20  1  0.15145907  0.74724624  0.86128073  1
  V  V21  1  0.66087748  0.51759905  0.77114349  1
  V  V22  1  0.31612288  0.09439160  0.20477355  1
  V  V23  1  0.73520353  0.22321641  -0.04129417  1
  V  V24  1  0.18426786  0.51032327  0.63213434  1
  V  V25  1  0.91763357  -0.00963827  0.85897466  1
  V  V26  1  -0.03590170  0.55592318  0.37580237  1
  V  V27  1  0.62701485  0.14715982  0.50240479  1
  V  V28  1  0.03540900  -0.00491362  0.43883309  1
  V  V29  1  0.44373377  0.72087914  0.74273746  1
  V  V30  1  0.25355941  0.69687540  0.07436527  1
  V  V31  1  0.78095432  0.41899790  0.12218287  1
  V  V32  1  0.38651441  0.07343453  0.69019833  1
  V  V33  1  -0.00722730  0.32695329  0.33781820  1
  V  V34  1  0.82892951  0.23424304  0.12190401  1
  V  V35  1  0.78431630  0.25949386  0.48028396  1
  V  V36  1  0.27746427  0.49521995  0.30609208  1
  V  V37  1  0.42949366  0.54263435  0.36330152  1
  V  V38  1  0.20949134  0.09037518  0.97438975  1
  V  V39  1  0.89488303  0.42403672  0.49157515  1
  V  V40  1  0.59716773  0.03425083  0.11125351  1
  V  V41  1  0.50593868  0.26064280  0.25749309  1
  V  V42  1  0.56906008  0.13266672  -0.03384344  1
  V  V43  1  0.66006784  0.26594960  0.35941720  1
  V  V44  1  0.88263976  0.62730028  0.77355679  1
  V  V45  1  0.63584613  0.61057164  -0.02527466  1
  V  V46  1  0.34049323  0.49184700  0.92992453  1
  V  V47  1  0.53308303  0.53870904  0.55386342  1
  V  V48  1  0.13713727  0.39697080  0.10104523  1
  V  V49  1  0.38521265  0.75949126  0.18256945  1
  V  V50  1  0.25194900  0.86536162  0.14579246  1
  Zn  Zn51  1  0.87897181  0.74148191  0.38011231  1
  Zn  Zn52  1  0.21577097  0.99248244  0.51030698  1
  Zn  Zn53  1  0.49644552  0.54586939  0.84823530  1
  Zn  Zn54  1  0.82159675  0.33171642  0.29360100  1
  Zn  Zn55  1  0.73250633  0.46427163  0.93625174  1
  Zn  Zn56  1  0.06769105  0.83223610  0.54214305  1
  Zn  Zn57  1  0.04915010  0.09071378  0.81753394  1
  Zn  Zn58  1  0.80997435  0.32110467  0.80380380  1
  Zn  Zn59  1  0.09408824  0.46310952  0.29440508  1
  Zn  Zn60  1  0.64613786  0.22125928  0.14879655  1
  Zn  Zn61  1  0.31727877  0.46010879  0.11651725  1
  Zn  Zn62  1  0.37909535  0.15743380  1.04066061  1
  Zn  Zn63  1  -0.00323554  0.31451000  0.12391453  1
  Zn  Zn64  1  0.76132792  0.16068276  0.64074602  1
  Zn  Zn65  1  0.81855494  0.75471543  0.18423527  1
  Zn  Zn66  1  0.58219736  0.39095072  0.15810971  1
  Zn  Zn67  1  0.55006352  0.40140418  0.70392668  1
  Zn  Zn68  1  0.73337585  0.83128568  0.30480121  1
  Zn  Zn69  1  0.30612849  0.85313404  0.77824023  1
  Zn  Zn70  1  0.85067026  0.80654612  0.84160641  1
  Zn  Zn71  1  0.17779163  0.20469017  0.12582277  1
  Zn  Zn72  1  0.64690996  0.80776783  0.95393873  1
  Zn  Zn73  1  0.93538366  0.44636620  0.21475470  1
  Zn  Zn74  1  0.93561639  0.17909980  0.91697989  1
  Zn  Zn75  1  0.53772215  0.10777244  0.36687193  1
  Zn  Zn76  1  0.86342803  0.46987245  0.68780659  1
  Zn  Zn77  1  0.19058732  0.43506393  0.82418266  1
  Zn  Zn78  1  0.65342058  0.71377301  0.73940661  1
  Zn  Zn79  1  0.44427651  0.43808327  0.21489236  1
  Zn  Zn80  1  0.30808207  0.84870848  0.31706280  1
  Zn  Zn81  1  0.31092445  0.57857333  0.49938096  1
  Zn  Zn82  1  0.07916376  0.44252772  0.47498336  1
  Zn  Zn83  1  0.93152025  0.91079296  0.69909989  1
  Zn  Zn84  1  0.92538246  0.14777442  0.39344920  1
  Zn  Zn85  1  0.09223125  0.93311125  -0.06168240  1
  Zn  Zn86  1  0.50596063  0.29782040  0.56188821  1
  Zn  Zn87  1  0.52181901  0.73965533  0.05484733  1
  Zn  Zn88  1  0.59602437  0.57982876  0.39088935  1
  Zn  Zn89  1  0.40657867  0.67423935  0.94726419  1
  Zn  Zn90  1  0.92133108  0.11692243  0.55494076  1
  Zn  Zn91  1  0.42016537  0.89595523  0.60986611  1
  Zn  Zn92  1  0.34553957  0.32441850  0.36147597  1
  Zn  Zn93  1  0.41538333  0.95431104  0.10718386  1
  Zn  Zn94  1  0.64308627  0.41559537  0.48090835  1
  Zn  Zn95  1  0.14262119  0.70497008  0.65895301  1
  Zn  Zn96  1  0.67328926  0.97317249  0.48508968  1
  Zn  Zn97  1  -0.03371185  0.03264424  0.26147846  1
  Zn  Zn98  1  0.73934785  0.60310693  0.65397256  1
  Zn  Zn99  1  0.83237600  0.56529990  0.00934789  1
  Zn  Zn100  1  0.17726899  0.54851827  0.15958433  1
  Zn  Zn101  1  0.49898508  0.04722829  0.81511343  1
  O  O102  1  0.08109571  0.17940963  0.22406490  1
  O  O103  1  0.07033051  0.17167359  0.61074662  1
  O  O104  1  0.11806797  0.45941221  0.18099960  1
  O  O105  1  -0.01570812  0.61418851  0.57796589  1
  O  O106  1  0.62401270  0.11591342  0.15114824  1
  O  O107  1  0.69327702  0.12349691  0.57064392  1
  O  O108  1  0.64041585  0.65772042  0.19212130  1
  O  O109  1  0.70398958  0.70359625  0.64571607  1
  O  O110  1  0.43059263  0.39119451  0.37846333  1
  O  O111  1  0.38301579  0.41656743  0.89509825  1
  O  O112  1  0.34795562  0.94411495  0.34361749  1
  O  O113  1  0.37466640  0.87641411  0.86127656  1
  O  O114  1  0.90650093  0.36843824  0.36041741  1
  O  O115  1  0.86934275  0.38421960  0.87903928  1
  O  O116  1  0.78985996  0.92626228  0.32457644  1
  O  O117  1  0.89770809  0.89742687  0.80498709  1
  O  O118  1  0.29656805  0.04001445  0.45743734  1
  O  O119  1  0.30434820  0.09800145  0.99372835  1
  O  O120  1  0.32411993  0.53808806  0.39644350  1
  O  O121  1  0.24708258  0.48405133  0.90158777  1
  O  O122  1  0.74424809  0.03829586  0.42031456  1
  O  O123  1  0.66118870  -0.04454872  0.87938928  1
  O  O124  1  0.75312608  0.55929039  0.35293217  1
  O  O125  1  0.71272304  0.46097003  0.83347796  1
  O  O126  1  0.22999808  0.40469626  0.08131921  1
  O  O127  1  0.27066906  0.53184021  0.58742311  1
  O  O128  1  0.21886429  0.94474011  0.11241359  1
  O  O129  1  0.18653853  1.00766937  0.61330885  1
  O  O130  1  0.79731710  0.51160789  0.10443588  1
  O  O131  1  0.69664588  0.50138538  0.68052908  1
  O  O132  1  0.65877670  0.96030803  0.14178202  1
  O  O133  1  0.76087823  0.94653756  0.71234947  1
  O  O134  1  -0.00784375  0.33819079  0.23892070  1
  O  O135  1  0.04224214  0.35449088  0.66798084  1
  O  O136  1  -0.09726230  0.90753559  0.20695930  1
  O  O137  1  0.05531985  0.91017234  0.70871482  1
  O  O138  1  0.52853938  0.38197662  0.26199509  1
  O  O139  1  0.43159877  0.27953575  0.81957772  1
  O  O140  1  0.48510616  0.93497510  0.29032665  1
  O  O141  1  0.46414711  0.81867307  0.73303798  1
  O  O142  1  0.51869782  0.16665939  0.26801676  1
  O  O143  1  0.47345777  0.11611739  0.72848378  1
  O  O144  1  0.58907499  0.61394074  0.20918044  1
  O  O145  1  0.45374044  0.61990622  0.75858803  1
  O  O146  1  1.08234352  0.12092438  0.26425486  1
  O  O147  1  0.97155113  0.08563122  0.72614324  1
  O  O148  1  1.11174357  0.69324477  0.37842272  1
  O  O149  1  0.97037330  0.64224119  0.74749197  1
  O  O150  1  0.36304869  0.26632938  0.06383871  1
  O  O151  1  0.40137009  0.26673159  0.55075926  1
  O  O152  1  0.30713995  0.68474117  -0.00574744  1
  O  O153  1  0.36514438  0.79307193  0.54283676  1
  O  O154  1  0.85157446  0.25043045  -0.03132974  1
  O  O155  1  0.82848589  0.34679169  0.48395554  1
  O  O156  1  0.89505471  0.76645146  -0.06403809  1
  O  O157  1  0.86241403  0.80362423  0.46830790  1
  O  O158  1  0.20747108  0.29721341  0.51654396  1
  O  O159  1  0.22281449  0.29389791  0.97826504  1
  O  O160  1  0.16851257  0.79574428  0.49527664  1
  O  O161  1  0.16392658  0.73138177  0.95806507  1
  O  O162  1  0.68498315  0.24804870  0.47866093  1
  O  O163  1  0.63075632  0.21117476  0.97745286  1
  O  O164  1  0.59145005  0.75077983  0.51238922  1
  O  O165  1  0.62327577  0.70664897  1.00237607  1
  O  O166  1  0.55120815  0.27980209  0.16268047  1
  O  O167  1  0.58877018  0.23198982  0.77874336  1
  O  O168  1  0.48853346  0.89224264  0.23595100  1
  O  O169  1  0.43565266  0.69992645  0.64851324  1
  O  O170  1  0.94380317  0.21944518  0.11883062  1
  O  O171  1  0.99980359  0.30385461  0.65041734  1
  O  O172  1  1.01176891  0.73196731  0.02841929  1
  O  O173  1  1.06407262  0.74791547  0.60469046  1
  O  O174  1  -0.01274228  0.23256953  0.36511225  1
  O  O175  1  0.03695922  0.19338984  0.85909158  1
  O  O176  1  -0.17939891  0.76237789  0.29209840  1
  O  O177  1  0.06087387  0.71258280  0.86397552  1
  O  O178  1  0.54003761  0.28031678  0.35534780  1
  O  O179  1  0.41163774  0.23603728  0.87143106  1
  O  O180  1  0.50538332  0.81039158  0.40449409  1
  O  O181  1  0.43107773  0.72025570  0.84627101  1
  O  O182  1  0.27394929  0.18059902  0.53892770  1
  O  O183  1  0.15667946  0.14837459  1.03351038  1
  O  O184  1  0.27927532  0.68906443  0.49842076  1
  O  O185  1  0.18844148  0.62667434  1.08884245  1
  O  O186  1  0.84837341  0.18370333  0.47731076  1
  O  O187  1  0.75643696  0.13820934  0.93299700  1
  O  O188  1  0.74973770  0.59263050  0.52408932  1
  O  O189  1  0.73272515  0.57542732  0.96246140  1
  O  O190  1  0.27966276  0.31643949  -0.05508699  1
  O  O191  1  0.31332385  0.36105319  0.47509498  1
  O  O192  1  0.21480875  0.78981085  0.08698657  1
  O  O193  1  0.25884057  0.88628472  0.53674277  1
  O  O194  1  0.77276803  0.39639750  0.00958449  1
  O  O195  1  0.71292710  0.40887742  0.56049622  1
  O  O196  1  0.70818549  0.85831997  0.02741069  1
  O  O197  1  0.75421024  0.91172053  0.53207721  1
  O  O198  1  0.18362436  0.51621932  0.32735517  1
  O  O199  1  0.19450534  0.46248979  0.71809002  1
  O  O200  1  0.03482284  0.84135341  0.27015456  1
  O  O201  1  0.12414756  1.04020202  0.75549336  1
  O  O202  1  0.69260462  0.56997696  0.31789756  1
  O  O203  1  0.56256463  0.48655881  0.77582023  1
  O  O204  1  0.59148414  1.02340536  0.29154287  1
  O  O205  1  0.60598540  1.00189320  0.73724877  1
  O  O206  1  0.34714328  0.00768159  0.17498554  1
  O  O207  1  0.43952488  -0.01923523  0.67426359  1
  O  O208  1  0.39331609  0.51418348  0.27421609  1
  O  O209  1  0.40693987  0.42786138  0.74349065  1
  O  O210  1  0.85287288  -0.06981525  0.16340556  1
  O  O211  1  0.92174234  0.02167263  0.73789742  1
  O  O212  1  0.85647178  0.59806741  0.22264651  1
  O  O213  1  0.94143859  0.46022426  0.76625573  1
  O  O214  1  0.07078798  0.38245589  0.37137260  1
  O  O215  1  0.13918451  0.33999553  0.84215337  1
  O  O216  1  -0.00663289  0.79146622  0.29668636  1
  O  O217  1  0.10899534  0.84305608  0.87433674  1
  O  O218  1  0.64770556  0.36806267  0.37626666  1
  O  O219  1  0.56340047  0.34739745  0.88571023  1
  O  O220  1  0.60853597  0.88310282  0.45496177  1
  O  O221  1  0.54905341  0.84224953  0.92443152  1
  O  O222  1  0.37663696  0.16355090  0.16209754  1
  O  O223  1  0.40953059  0.08286299  0.59583664  1
  O  O224  1  0.47196539  0.72745077  0.15769515  1
  O  O225  1  0.42576540  0.57679480  0.53033380  1
  O  O226  1  0.83884567  0.12888292  0.10322486  1
  O  O227  1  0.87506153  0.14886324  0.64186580  1
  O  O228  1  0.89642286  0.65204278  0.01507198  1
  O  O229  1  0.83811894  0.57865032  0.69729545  1
  O  O230  1  0.25506207  0.26830974  0.17737342  1
  O  O231  1  0.29747114  0.30344373  0.62273696  1
  O  O232  1  0.31571733  0.69255800  0.15300564  1
  O  O233  1  0.23563773  0.75711246  0.61228539  1
  O  O234  1  0.73601569  0.23851684  0.07851723  1
  O  O235  1  0.76585216  0.26606699  0.59652034  1
  O  O236  1  0.81565890  0.74759162  0.07056414  1
  O  O237  1  0.68255670  0.80161254  0.80297549  1
  O  O238  1  0.33961938  0.23809414  0.43128820  1
  O  O239  1  0.21202441  0.20264742  0.86871487  1
  O  O240  1  0.28895905  0.80560976  0.42082830  1
  O  O241  1  0.23633748  0.80795501  0.85292835  1
  O  O242  1  0.76887999  0.27063374  0.37134463  1
  O  O243  1  0.73526967  0.28122138  0.87842978  1
  O  O244  1  0.70531780  0.79692904  0.41471390  1
  O  O245  1  0.72682075  0.80239389  0.86470356  1
  O  O246  1  -0.03247306  0.11097188  0.00188447  1
  O  O247  1  -0.02063519  0.08026959  0.47393260  1
  O  O248  1  0.02054427  0.55748645  0.04241203  1
  O  O249  1  -0.06285105  0.64916083  0.37311931  1
  O  O250  1  0.48281186  0.15023611  0.00595809  1
  O  O251  1  0.55338755  0.19831818  0.54022056  1
  O  O252  1  0.46907209  0.62314795  0.02659950  1
  O  O253  1  0.56689871  0.61017746  0.60078351  1
  O  O254  1  0.53768390  0.36917672  0.47811575  1
  O  O255  1  0.53006062  0.32618994  0.94378058  1
  O  O256  1  0.51780874  0.86219842  0.59674519  1
  O  O257  1  0.44685092  0.78057420  0.97882527  1
  O  O258  1  0.98314774  0.39011224  0.50227824  1
  O  O259  1  0.96616259  0.34038964  0.99275788  1
  O  O260  1  1.02382770  0.90623891  0.48025394  1
  O  O261  1  1.06355528  0.88970494  1.03094403  1
  O  O262  1  0.53012846  0.49781428  0.35554811  1
  O  O263  1  0.50519763  0.48280802  0.95483081  1
  O  O264  1  0.44754209  1.05777178  0.39353537  1
  O  O265  1  0.49841294  0.95385069  0.86878522  1
  O  O266  1  0.98691093  0.51311303  0.28501312  1
  O  O267  1  1.01699291  0.47797321  0.90137571  1
  O  O268  1  1.02140397  0.98878028  0.34187620  1
  O  O269  1  1.01551685  0.99070070  0.87865252  1
  O  O270  1  -0.02382693  0.05636277  0.15763203  1
  O  O271  1  0.10283636  0.14419045  0.55462547  1
  O  O272  1  -0.02059520  0.42796181  0.11170332  1
  O  O273  1  -0.00111448  0.55534791  0.61201514  1
  O  O274  1  0.50696310  0.01008020  0.13364947  1
  O  O275  1  0.61709979  0.01534239  0.66787938  1
  O  O276  1  0.50427504  0.46586329  0.12130579  1
  O  O277  1  0.52594543  0.46335115  0.61321267  1
  O  O278  1  0.28140373  0.39961889  0.31430690  1
  O  O279  1  0.35875722  0.45222615  0.69968226  1
  O  O280  1  0.23025015  0.85120637  0.24182364  1
  O  O281  1  0.21528179  0.91466703  0.74299671  1
  O  O282  1  0.82788335  0.41278063  0.21690907  1
  O  O283  1  0.80339325  0.37742589  0.70683691  1
  O  O284  1  0.72530643  0.81909183  0.18865876  1
  O  O285  1  0.71679737  0.99288540  0.86179146  1
  O  O286  1  0.22732531  0.11388971  0.17554876  1
  O  O287  1  0.30193526  0.02813925  0.69275421  1
  O  O288  1  0.27223131  0.51743663  0.20374674  1
  O  O289  1  0.14811144  0.59970070  0.65253141  1
  O  O290  1  0.65116632  -0.01181630  0.30423098  1
  O  O291  1  0.77596592  0.12254694  0.74694175  1
  O  O292  1  0.79867514  0.63341127  0.20162568  1
  O  O293  1  0.67689856  0.61340619  0.78037505  1
  O  O294  1  0.31928678  0.09794148  0.30745906  1
  O  O295  1  0.38962889  0.04550886  0.79732859  1
  O  O296  1  0.44472457  0.63259411  0.35630219  1
  O  O297  1  0.39155333  0.57024670  0.88886203  1
  O  O298  1  0.87958712  0.07162242  0.32724108  1
  O  O299  1  0.89434873  0.09667492  0.85038360  1
  O  O300  1  0.78981314  0.63820035  0.48710224  1
  O  O301  1  0.88318333  0.56595128  0.86183398  1
  O  O302  1  0.11069670  0.30141283  0.11624837  1
  O  O303  1  0.13394610  0.46212358  0.56377845  1
  O  O304  1  0.10994392  0.72965691  0.20329740  1
  O  O305  1  0.08672239  0.91114457  0.63346128  1
  O  O306  1  0.68878581  0.40266339  0.14656544  1
  O  O307  1  0.65071224  0.34154335  0.69010321  1
  O  O308  1  0.58133873  0.82345196  0.11060292  1
  O  O309  1  0.72815323  0.88835642  0.69681706  1
  O  O310  1  0.18437934  0.24105788  0.33254189  1
  O  O311  1  0.13619254  0.22697884  0.73641891  1
  O  O312  1  0.07627073  0.67014027  0.21604544  1
  O  O313  1  0.14830620  0.75089804  0.75641857  1
  O  O314  1  0.66615369  0.25396827  0.26427079  1
  O  O315  1  0.62608777  0.18819238  0.73938721  1
  O  O316  1  0.62023214  0.80724195  0.31718116  1
  O  O317  1  0.54518939  0.72102598  0.74740153  1
  O  O318  1  0.40512150  0.27290412  0.26306368  1
  O  O319  1  0.34106139  0.15918423  0.69524462  1
  O  O320  1  0.37870738  0.77189872  0.27817275  1
  O  O321  1  0.34334943  0.73787873  0.74802389  1
  O  O322  1  0.81461009  0.24369276  0.21508379  1
  O  O323  1  0.87834265  0.23153945  0.78080588  1
  O  O324  1  0.92604148  0.74215150  0.13628941  1
  O  O325  1  0.83917745  0.71366902  0.79079377  1
  O  O326  1  0.45867103  0.52886883  0.47292323  1
  O  O327  1  0.37304032  0.50264804  1.03162690  1
  O  O328  1  0.40451608  0.93753752  0.51280790  1
  O  O329  1  0.42247054  0.93310076  1.00254214  1
  O  O330  1  0.89116726  0.50529706  0.42634668  1
  O  O331  1  0.89917586  0.47524723  0.98424567  1
  O  O332  1  0.87822954  0.96090111  0.45129159  1
  O  O333  1  0.86952604  0.96992375  0.93617563  1
  O  O334  1  0.17266692  0.00292706  -0.04396093  1
  O  O335  1  0.12805914  0.01430901  0.45061629  1
  O  O336  1  0.09925362  0.42859438  0.01594030  1
  O  O337  1  0.04330004  0.54172854  0.42685754  1
  O  O338  1  0.60660363  0.04770228  0.01002034  1
  O  O339  1  0.59615247  0.05387441  0.48288329  1
  O  O340  1  0.59683450  0.55326484  0.04499986  1
  O  O341  1  0.61215304  0.52418600  0.48479320  1
  O  O342  1  0.36922235  0.37636112  0.16628464  1
  O  O343  1  0.49847372  0.31629115  0.66634380  1
  O  O344  1  0.35898574  0.85064189  0.13687205  1
  O  O345  1  0.33537694  0.87067030  0.67295990  1
  O  O346  1  0.85370070  0.33446754  0.09544542  1
  O  O347  1  0.87070639  0.46238167  0.57640313  1
  O  O348  1  0.92044821  0.84683927  0.03264869  1
  O  O349  1  0.89775364  0.88822615  0.60211345  1
  O  O350  1  0.15892061  0.18901182  0.37323778  1
  O  O351  1  0.19623178  0.12581777  0.87242167  1
  O  O352  1  0.17352953  0.67034443  0.35271481  1
  O  O353  1  0.20354055  0.66423852  0.84735647  1
  O  O354  1  0.62661447  0.16846658  0.39159893  1
  O  O355  1  0.55948405  0.11207026  0.87261790  1
  O  O356  1  0.59892896  0.68972580  0.39633490  1
  O  O357  1  0.58429887  0.59846179  0.89555823  1
