# generated using pymatgen
data_V51Zn51O256
_symmetry_space_group_name_H-M   'P 1'
_cell_length_a   17.19268052
_cell_length_b   17.16031046
_cell_length_c   17.28067719
_cell_angle_alpha   90.34606921
_cell_angle_beta   90.33962216
_cell_angle_gamma   90.04826396
_symmetry_Int_Tables_number   1
_chemical_formula_structural   V51Zn51O256
_chemical_formula_sum   'V51 Zn51 O256'
_cell_volume   5098.16364838
_cell_formula_units_Z   1
loop_
 _symmetry_equiv_pos_site_id
 _symmetry_equiv_pos_as_xyz
  1  'x, y, z'
loop_
 _atom_site_type_symbol
 _atom_site_label
 _atom_site_symmetry_multiplicity
 _atom_site_fract_x
 _atom_site_fract_y
 _atom_site_fract_z
 _atom_site_occupancy
  V  V0  1  0.84130961  0.87206989  -0.00436707  1
  V  V1  1  0.74886109  0.60530690  0.37720456  1
  V  V2  1  0.74593960  0.25220851  -0.02706659  1
  V  V3  1  0.36069039  0.62343619  0.24787588  1
  V  V4  1  -0.02579651  0.01666180  -0.00603395  1
  V  V5  1  0.49423643  0.87038013  0.38121246  1
  V  V6  1  0.85263247  0.23247529  0.62657619  1
  V  V7  1  0.37490243  0.86492185  0.51517925  1
  V  V8  1  0.73008704  0.50200019  0.23626488  1
  V  V9  1  0.90072499  0.37221651  0.50661192  1
  V  V10  1  0.12473796  0.07528737  0.53418865  1
  V  V11  1  0.50070396  0.26376983  0.76301812  1
  V  V12  1  0.72906743  0.26313543  0.47950839  1
  V  V13  1  0.27456315  0.87706713  0.08118731  1
  V  V14  1  0.25738283  0.09997985  0.86050449  1
  V  V15  1  0.85672312  0.49316329  0.90398283  1
  V  V16  1  0.13855607  0.12804635  0.01674324  1
  V  V17  1  0.89132057  0.36196534  0.00565889  1
  V  V18  1  0.61926214  0.12988568  -0.02350628  1
  V  V19  1  0.24362579  0.35920646  0.15761559  1
  V  V20  1  0.40231225  0.35936345  0.03895792  1
  V  V21  1  0.24816072  0.74869368  0.44780329  1
  V  V22  1  0.83005030  0.75337320  0.12114122  1
  V  V23  1  0.44186885  0.88744970  -0.02305513  1
  V  V24  1  0.38952289  0.72743772  0.08262809  1
  V  V25  1  -0.00536493  0.87236868  0.35364183  1
  V  V26  1  0.48989223  0.14299410  0.13558191  1
  V  V27  1  0.36917900  0.49607817  0.36663089  1
  V  V28  1  0.50720134  0.73842163  0.24679517  1
  V  V29  1  0.10496419  0.59294237  0.47261523  1
  V  V30  1  0.61837795  0.02334666  0.15221643  1
  V  V31  1  0.62621118  0.74571864  0.40570153  1
  V  V32  1  0.24125362  0.24477946  0.51882074  1
  V  V33  1  0.86890030  0.62233605  0.22871336  1
  V  V34  1  0.60066532  0.13587469  0.47597997  1
  V  V35  1  0.88060434  0.12056720  0.27381885  1
  V  V36  1  0.50509171  0.36856161  0.38652060  1
  V  V37  1  0.35480009  0.41827627  0.53980878  1
  V  V38  1  0.00625026  0.20220965  0.72810276  1
  V  V39  1  0.15222986  0.54393640  -0.01333968  1
  V  V40  1  0.37977492  0.72736698  0.66081227  1
  V  V41  1  0.75280383  0.35132277  0.13485648  1
  V  V42  1  0.62340288  0.34192844  0.25750254  1
  V  V43  1  0.16443849  -0.01173730  0.66788042  1
  V  V44  1  0.00707239  0.84217843  0.89498608  1
  V  V45  1  0.63619042  0.51041996  0.64098772  1
  V  V46  1  0.48880993  0.15661839  0.63306346  1
  V  V47  1  0.32760880  -0.00095571  0.21638258  1
  V  V48  1  0.11703531  0.48043180  0.14500084  1
  V  V49  1  0.14246228  0.25542830  0.87000502  1
  V  V50  1  0.77741340  0.01181839  0.73438302  1
  Zn  Zn51  1  0.20377002  0.18685150  0.69404792  1
  Zn  Zn52  1  0.10196727  0.34137466  0.02227691  1
  Zn  Zn53  1  0.08067818  0.89307571  0.09546593  1
  Zn  Zn54  1  0.59421456  0.08465721  0.78202982  1
  Zn  Zn55  1  0.04762711  0.24692971  0.52403840  1
  Zn  Zn56  1  0.90630977  0.68604384  0.94175070  1
  Zn  Zn57  1  0.43471258  0.67132857  0.42605195  1
  Zn  Zn58  1  0.34416281  0.30974086  0.87852219  1
  Zn  Zn59  1  0.57930192  0.30284215  0.06998239  1
  Zn  Zn60  1  0.66063396  0.69968297  0.71640745  1
  Zn  Zn61  1  0.91290994  0.93890664  0.16354280  1
  Zn  Zn62  1  0.79344086  0.82710323  0.80668840  1
  Zn  Zn63  1  0.55659291  0.56802046  0.32385960  1
  Zn  Zn64  1  0.66241446  0.94437419  0.44935047  1
  Zn  Zn65  1  0.28524903  0.34166071  0.35949095  1
  Zn  Zn66  1  0.68271557  0.43437564  0.44072262  1
  Zn  Zn67  1  0.42173853  0.40618814  0.22764379  1
  Zn  Zn68  1  0.77377328  0.07066741  0.53667535  1
  Zn  Zn69  1  0.53776872  0.77044857  0.57261141  1
  Zn  Zn70  1  0.69730182  0.16707414  0.18662283  1
  Zn  Zn71  1  0.06420141  0.12007813  0.37215023  1
  Zn  Zn72  1  0.81777870  0.54778482  0.55170234  1
  Zn  Zn73  1  0.55661639  0.32238856  0.57012609  1
  Zn  Zn74  1  0.19577027  0.43189133  0.46472252  1
  Zn  Zn75  1  0.29806394  0.54816772  0.08273702  1
  Zn  Zn76  1  0.28434158  0.16215699  0.13735219  1
  Zn  Zn77  1  0.82893158  0.33042312  0.31973816  1
  Zn  Zn78  1  0.51515610  0.05924126  0.30553345  1
  Zn  Zn79  1  0.81221891  0.77623135  0.32642195  1
  Zn  Zn80  1  0.33110344  0.82582200  0.30659509  1
  Zn  Zn81  1  0.43315512  0.18037423  0.93643484  1
  Zn  Zn82  1  0.41645559  0.22487648  0.47239909  1
  Zn  Zn83  1  0.77057338  0.04759527  0.03333154  1
  Zn  Zn84  1  0.76361412  0.37388598  0.63286736  1
  Zn  Zn85  1  0.40590564  0.73429125  0.87171299  1
  Zn  Zn86  1  0.92317876  0.44752490  0.17328176  1
  Zn  Zn87  1  0.90119525  0.16230355  0.46701136  1
  Zn  Zn88  1  0.83550084  0.31471364  0.80551732  1
  Zn  Zn89  1  0.95452698  0.66017114  0.37682616  1
  Zn  Zn90  1  0.08499237  0.62088381  0.25185934  1
  Zn  Zn91  1  0.21557035  0.72164570  0.18012226  1
  Zn  Zn92  1  0.43287939  0.48883724  0.70999768  1
  Zn  Zn93  1  0.73834252  0.47864815  1.01874961  1
  Zn  Zn94  1  0.16388409  0.95520103  0.92892868  1
  Zn  Zn95  1  0.99207867  0.99748286  0.78486006  1
  Zn  Zn96  1  0.14932204  0.65767262  0.66161613  1
  Zn  Zn97  1  0.07390657  0.66790709  0.84500082  1
  Zn  Zn98  1  0.63667450  0.91412361  1.01980319  1
  Zn  Zn99  1  0.15184576  0.86900582  0.50850487  1
  Zn  Zn100  1  0.34591723  0.05293765  0.02441796  1
  Zn  Zn101  1  0.68425311  0.57051600  0.83096648  1
  O  O102  1  0.09628395  0.14806232  0.09834172  1
  O  O103  1  0.17925339  0.08933350  0.63454194  1
  O  O104  1  0.12824847  0.56926868  0.08586155  1
  O  O105  1  0.13083760  0.60434544  0.56944324  1
  O  O106  1  0.60935632  0.14115167  0.11795721  1
  O  O107  1  0.60681592  0.12000585  0.61654352  1
  O  O108  1  0.63657091  0.61657707  -0.00896157  1
  O  O109  1  0.64947900  0.61112407  0.63545626  1
  O  O110  1  0.39282185  0.38253276  0.34150033  1
  O  O111  1  0.37936917  0.42269578  0.94371961  1
  O  O112  1  0.38913129  0.86148617  0.40034736  1
  O  O113  1  0.41355230  0.84421343  0.89129628  1
  O  O114  1  0.87326387  0.37604141  0.41082518  1
  O  O115  1  0.88176611  0.38474244  0.89552608  1
  O  O116  1  0.89538365  0.84232613  0.38031265  1
  O  O117  1  0.85001756  0.84363635  0.89615913  1
  O  O118  1  0.13406090  0.04691883  0.27438852  1
  O  O119  1  0.23660542  0.00225290  0.85927205  1
  O  O120  1  0.27246526  0.46480514  0.37388008  1
  O  O121  1  0.30120324  0.56453613  0.79059849  1
  O  O122  1  0.72833493  -0.06533635  0.31197806  1
  O  O123  1  0.76394836  0.02240970  0.83447614  1
  O  O124  1  0.74310548  0.50218255  0.36320899  1
  O  O125  1  0.75700436  0.50909220  0.89362832  1
  O  O126  1  0.24134990  0.46619326  0.13454204  1
  O  O127  1  0.19035441  0.39903622  0.72003834  1
  O  O128  1  0.32201476  0.96833014  0.11204737  1
  O  O129  1  0.23942498  0.93798363  0.69706009  1
  O  O130  1  0.73748031  0.47754169  0.13696259  1
  O  O131  1  0.74112585  0.49713671  0.62780230  1
  O  O132  1  0.72630855  1.06196281  0.13702317  1
  O  O133  1  0.75866096  1.01445526  0.63222314  1
  O  O134  1  -0.06615243  0.36798756  0.25895722  1
  O  O135  1  0.05235798  0.49494930  0.75496501  1
  O  O136  1  -0.04704289  0.88881480  0.25986731  1
  O  O137  1  -0.01851445  0.88281277  0.80934701  1
  O  O138  1  0.52301370  0.35722926  0.25170379  1
  O  O139  1  0.44545814  0.37502885  0.76604167  1
  O  O140  1  0.48275330  0.84521226  0.28128709  1
  O  O141  1  0.54670322  0.91599741  0.78789905  1
  O  O142  1  0.48942533  0.14933405  0.23298616  1
  O  O143  1  0.52110472  0.15838395  0.74334021  1
  O  O144  1  0.49159421  0.63425837  0.25361496  1
  O  O145  1  0.47260157  0.55293125  0.80525043  1
  O  O146  1  0.98350191  0.10614849  0.29371098  1
  O  O147  1  0.99635090  0.10655290  0.73502532  1
  O  O148  1  0.96821163  0.62645345  0.26504846  1
  O  O149  1  0.96729448  0.58008567  0.61664174  1
  O  O150  1  0.37815375  0.27413540  -0.01127783  1
  O  O151  1  0.35599177  0.32059454  0.50822244  1
  O  O152  1  0.40386140  0.70170496  -0.01231171  1
  O  O153  1  0.34136295  0.71424110  0.47210046  1
  O  O154  1  0.85230838  0.26849455  0.00031020  1
  O  O155  1  0.83947496  0.25626976  0.50240817  1
  O  O156  1  0.86745448  0.75738906  0.01745251  1
  O  O157  1  0.91604057  0.74728023  0.53497555  1
  O  O158  1  0.14944786  0.18935154  0.51802675  1
  O  O159  1  0.12358284  0.23692744  0.97867610  1
  O  O160  1  0.15997808  0.75619166  0.50309469  1
  O  O161  1  0.08118986  0.77962322  1.05199813  1
  O  O162  1  0.62524413  0.25559609  0.50904429  1
  O  O163  1  0.63808218  0.24245686  0.99348888  1
  O  O164  1  0.61669810  0.72475994  0.49927323  1
  O  O165  1  0.72022818  0.73070425  0.92151820  1
  O  O166  1  0.49492190  0.24075726  0.10822474  1
  O  O167  1  0.49518461  0.26666283  0.65010714  1
  O  O168  1  0.47283111  0.74369404  0.13893909  1
  O  O169  1  0.46244367  0.69372421  0.61676379  1
  O  O170  1  1.10746093  0.23118991  0.24538881  1
  O  O171  1  1.01543553  0.22536501  0.63286823  1
  O  O172  1  0.98323668  0.78035466  0.13526970  1
  O  O173  1  0.98204067  0.75362938  0.56201861  1
  O  O174  1  0.00362186  0.18801532  0.43704071  1
  O  O175  1  -0.01906297  0.20370066  0.85987874  1
  O  O176  1  0.00005356  0.76738144  0.35192519  1
  O  O177  1  -0.00627761  0.73669087  0.89049237  1
  O  O178  1  0.47881700  0.27169960  0.38805649  1
  O  O179  1  0.43638139  0.24631609  0.84365629  1
  O  O180  1  0.51841157  0.73939122  0.36964053  1
  O  O181  1  0.53939640  0.71750297  0.87611740  1
  O  O182  1  0.30919807  0.17970932  0.48702055  1
  O  O183  1  0.23385844  0.10476704  1.04450855  1
  O  O184  1  0.20201537  0.63460008  0.41988062  1
  O  O185  1  0.24865468  0.57246369  0.98314468  1
  O  O186  1  0.71407620  0.15109232  0.48364372  1
  O  O187  1  0.75150680  0.15168647  0.98785238  1
  O  O188  1  0.76743998  0.60719766  0.47441137  1
  O  O189  1  0.76767411  0.67736658  0.91183586  1
  O  O190  1  0.33490335  0.44117488  0.01005539  1
  O  O191  1  0.26029781  0.44162725  0.55801225  1
  O  O192  1  0.24884146  0.89382718  -0.01064757  1
  O  O193  1  0.26908048  0.85127880  0.48657807  1
  O  O194  1  0.73229590  0.35963211  0.02701085  1
  O  O195  1  0.73593647  0.36658493  0.51893543  1
  O  O196  1  0.74272112  0.87965310  -0.00412040  1
  O  O197  1  0.73929354  0.83420498  0.56851642  1
  O  O198  1  0.11821488  0.51411846  0.23796408  1
  O  O199  1  0.10265505  0.69719161  0.74732227  1
  O  O200  1  0.11498255  1.03189397  0.20695911  1
  O  O201  1  0.09017975  0.98072701  0.73259790  1
  O  O202  1  0.63256311  0.50150348  0.25445544  1
  O  O203  1  0.65688184  0.49633971  0.74129580  1
  O  O204  1  0.61301783  1.03335273  0.25040956  1
  O  O205  1  0.67244954  1.01307873  0.74284260  1
  O  O206  1  0.41647126  0.01521428  0.25435171  1
  O  O207  1  0.39186151  -0.01154559  0.77364389  1
  O  O208  1  0.38044756  0.51439333  0.24818614  1
  O  O209  1  0.32380530  0.52611057  0.72410866  1
  O  O210  1  0.87549845  0.02669946  0.23011245  1
  O  O211  1  0.87963267  -0.00078050  0.74231302  1
  O  O212  1  0.85881833  0.51677361  0.23357199  1
  O  O213  1  0.88429556  0.54156195  0.74375500  1
  O  O214  1  0.01954859  0.33121421  0.35403185  1
  O  O215  1  0.08384267  0.33140038  0.86890119  1
  O  O216  1  0.07797024  0.88597810  0.30018339  1
  O  O217  1  0.10403768  0.86283306  0.90749332  1
  O  O218  1  0.61328429  0.37889999  0.36568434  1
  O  O219  1  0.61078148  0.41236511  0.90921362  1
  O  O220  1  0.60501783  0.85650145  0.40681813  1
  O  O221  1  0.58186041  0.77502518  0.88140955  1
  O  O222  1  0.38931369  0.12595131  0.10301467  1
  O  O223  1  0.39981243  0.12756095  0.64179369  1
  O  O224  1  0.36755619  0.62967303  0.12621679  1
  O  O225  1  0.32033116  0.63965038  0.62840118  1
  O  O226  1  0.90820822  0.16671092  0.18952760  1
  O  O227  1  0.86530651  0.13629945  0.57377450  1
  O  O228  1  0.86971844  0.64091368  0.13027341  1
  O  O229  1  0.82803435  0.64642919  0.62368108  1
  O  O230  1  0.25122859  0.26723099  0.11723491  1
  O  O231  1  0.24351833  0.26095097  0.61774591  1
  O  O232  1  0.28815970  0.76722048  0.11205090  1
  O  O233  1  0.26571379  0.69368466  0.65407631  1
  O  O234  1  0.75902814  0.25330283  0.14178394  1
  O  O235  1  0.75690268  0.24035380  0.63987641  1
  O  O236  1  0.73790456  0.74400210  0.10652290  1
  O  O237  1  0.77839634  0.69946862  0.61586792  1
  O  O238  1  0.21370627  0.31812789  0.44466015  1
  O  O239  1  0.23520961  0.29138006  0.86188500  1
  O  O240  1  0.23898647  0.77230261  0.35258876  1
  O  O241  1  0.25547668  0.75363749  0.86630570  1
  O  O242  1  0.73665752  0.28000415  0.38508476  1
  O  O243  1  0.75654963  0.26724711  0.87792256  1
  O  O244  1  0.72484671  0.76598544  0.39077136  1
  O  O245  1  0.70064599  0.78700511  0.77243846  1
  O  O246  1  -0.04443606  0.10471581  0.02496823  1
  O  O247  1  0.03249753  0.08125178  0.55179134  1
  O  O248  1  0.02511439  0.73929270  0.08731671  1
  O  O249  1  0.00763770  0.61948405  0.46239695  1
  O  O250  1  0.51896182  0.13073667  -0.01335897  1
  O  O251  1  0.49976014  0.16404560  0.52396609  1
  O  O252  1  0.61253779  0.57727030  -0.07118877  1
  O  O253  1  0.51476587  0.59258283  0.43057632  1
  O  O254  1  0.51016187  0.38428771  0.48475592  1
  O  O255  1  0.49762717  0.38145655  1.04050922  1
  O  O256  1  0.48072524  0.83631654  0.50169355  1
  O  O257  1  0.54111469  0.87337833  0.98512985  1
  O  O258  1  0.99761913  0.34749325  0.51018273  1
  O  O259  1  0.98648725  0.35219746  1.01766258  1
  O  O260  1  1.04947129  0.86604877  0.44076585  1
  O  O261  1  0.96534124  0.88745205  0.97843064  1
  O  O262  1  0.48530797  0.48045798  0.35800771  1
  O  O263  1  0.54755504  0.43804902  0.88870685  1
  O  O264  1  0.50562327  0.96793309  0.37817598  1
  O  O265  1  0.53751139  0.97905959  0.82294245  1
  O  O266  1  1.00849711  0.37269310  0.29577598  1
  O  O267  1  0.88340914  0.48025503  0.78339688  1
  O  O268  1  0.97429144  0.96538366  0.38823966  1
  O  O269  1  0.97554398  1.02462013  0.89415758  1
  O  O270  1  0.00024503  -0.03437035  0.10203934  1
  O  O271  1  -0.10227643  -0.09458611  0.56982985  1
  O  O272  1  0.01922530  0.47024403  0.12561699  1
  O  O273  1  -0.01829012  0.62953890  0.66620481  1
  O  O274  1  0.51936339  0.03604857  0.11988569  1
  O  O275  1  0.55572884  0.06342379  0.63587111  1
  O  O276  1  0.51539209  0.55140823  0.07406869  1
  O  O277  1  0.53728221  0.52226870  0.66077565  1
  O  O278  1  0.24486835  0.34770930  0.25384211  1
  O  O279  1  0.18944107  0.43566710  0.78081872  1
  O  O280  1  0.28808871  0.91849709  0.26087305  1
  O  O281  1  0.39777595  0.93671310  0.72537290  1
  O  O282  1  0.74832104  0.37998002  0.24907372  1
  O  O283  1  0.77023231  0.37693611  0.74134545  1
  O  O284  1  0.75933322  0.88619148  0.26799604  1
  O  O285  1  0.78767235  0.90677021  0.72650719  1
  O  O286  1  0.27332103  0.08465954  0.21984496  1
  O  O287  1  0.27072562  0.13819580  0.77070073  1
  O  O288  1  0.26348448  0.62794510  0.23419681  1
  O  O289  1  0.23258466  0.59334780  0.78885016  1
  O  O290  1  0.77823539  0.12340059  0.26249745  1
  O  O291  1  0.80134991  0.10992315  0.72238099  1
  O  O292  1  0.75114222  0.60386656  0.24809351  1
  O  O293  1  0.74254247  0.63896727  0.76430272  1
  O  O294  1  0.35322325  0.16045645  0.34373130  1
  O  O295  1  0.33892809  0.11742781  0.92235384  1
  O  O296  1  0.36415708  0.60228235  0.35696828  1
  O  O297  1  0.43649870  0.58079549  0.86232230  1
  O  O298  1  0.86993404  0.09538929  0.37650945  1
  O  O299  1  0.91702405  0.17796795  0.88168796  1
  O  O300  1  0.84307887  0.65423541  0.34934035  1
  O  O301  1  0.90472121  0.58108870  0.90282760  1
  O  O302  1  0.13568629  0.36980969  0.13444076  1
  O  O303  1  0.04101818  0.45493831  0.69667115  1
  O  O304  1  0.18549435  0.88316583  0.12785611  1
  O  O305  1  -0.03869604  0.92289230  0.59895248  1
  O  O306  1  0.64104391  0.35691637  0.15137100  1
  O  O307  1  0.61903505  0.40411925  0.63329978  1
  O  O308  1  0.63772461  0.92779055  0.13173149  1
  O  O309  1  0.67539738  0.86734963  0.56704805  1
  O  O310  1  0.12787642  0.21019532  0.31141458  1
  O  O311  1  0.10841106  0.21984133  0.76617036  1
  O  O312  1  0.11542205  0.71502277  0.21076079  1
  O  O313  1  0.23085316  0.78912407  0.80972583  1
  O  O314  1  0.64021022  0.24641756  0.26032292  1
  O  O315  1  0.58273716  0.29921971  0.79149071  1
  O  O316  1  0.60117477  0.74915040  0.24037570  1
  O  O317  1  0.59453627  0.76977390  0.66613604  1
  O  O318  1  0.32487598  0.21406658  0.30545270  1
  O  O319  1  0.36909256  0.37535267  0.78386925  1
  O  O320  1  0.37852368  0.72742976  0.26357481  1
  O  O321  1  0.39447181  0.72549478  0.75979783  1
  O  O322  1  0.87427179  0.22034711  0.30880566  1
  O  O323  1  0.89910022  0.24183873  0.73051797  1
  O  O324  1  0.84419456  0.73944299  0.22695105  1
  O  O325  1  0.87476592  0.75280081  0.74872892  1
  O  O326  1  0.38610231  0.49071995  0.47007760  1
  O  O327  1  0.48827834  0.54178562  1.00921684  1
  O  O328  1  0.37916881  0.95635318  0.53628458  1
  O  O329  1  0.41726856  0.98259915  0.97297882  1
  O  O330  1  0.88984764  0.46927438  0.53638576  1
  O  O331  1  0.85848143  0.47279216  1.00662525  1
  O  O332  1  0.76362358  0.98272287  0.47153285  1
  O  O333  1  0.86011015  0.98130448  1.00968754  1
  O  O334  1  0.09551971  0.03038822  -0.00877385  1
  O  O335  1  0.13752556  -0.03709236  0.56550477  1
  O  O336  1  0.14122207  0.44443817  -0.01470404  1
  O  O337  1  0.10849769  0.49585225  0.45116430  1
  O  O338  1  0.65291177  0.03267580  0.00200372  1
  O  O339  1  0.60774418  0.03732005  0.48887815  1
  O  O340  1  0.68536588  0.58013390  0.03895692  1
  O  O341  1  0.62780840  0.50449945  0.53564419  1
  O  O342  1  0.36434494  0.36759825  0.13737727  1
  O  O343  1  0.40854820  0.42941479  0.62153766  1
  O  O344  1  0.38837842  0.84132548  0.05585145  1
  O  O345  1  0.36832419  0.81911136  0.61414953  1
  O  O346  1  0.85763668  0.37253735  0.11533174  1
  O  O347  1  0.87433533  0.33675385  0.61182408  1
  O  O348  1  0.84817750  0.86179266  0.11457051  1
  O  O349  1  0.90629070  0.78246984  0.69131140  1
  O  O350  1  0.13336078  0.05960407  0.43427368  1
  O  O351  1  0.16811826  0.13979862  0.89355102  1
  O  O352  1  0.13227766  0.64382407  0.37760971  1
  O  O353  1  0.09613077  0.59042523  0.91770913  1
  O  O354  1  0.57282048  0.13814606  0.38344187  1
  O  O355  1  0.62703943  0.12824695  0.87858123  1
  O  O356  1  0.64987694  0.63887400  0.36478267  1
  O  O357  1  0.59932861  0.63276471  0.78572683  1
