# generated using pymatgen
data_V51Zn51O256
_symmetry_space_group_name_H-M   'P 1'
_cell_length_a   17.27897888
_cell_length_b   17.29724673
_cell_length_c   17.34875703
_cell_angle_alpha   89.64632341
_cell_angle_beta   90.20895265
_cell_angle_gamma   90.78009767
_symmetry_Int_Tables_number   1
_chemical_formula_structural   V51Zn51O256
_chemical_formula_sum   'V51 Zn51 O256'
_cell_volume   5184.56271681
_cell_formula_units_Z   1
loop_
 _symmetry_equiv_pos_site_id
 _symmetry_equiv_pos_as_xyz
  1  'x, y, z'
loop_
 _atom_site_type_symbol
 _atom_site_label
 _atom_site_symmetry_multiplicity
 _atom_site_fract_x
 _atom_site_fract_y
 _atom_site_fract_z
 _atom_site_occupancy
  V  V0  1  0.62853258  0.32941721  0.27497946  1
  V  V1  1  0.16274437  0.50646988  0.13242936  1
  V  V2  1  0.51005517  0.87366167  0.37849263  1
  V  V3  1  0.52118324  0.61394881  0.63283115  1
  V  V4  1  0.62267105  -0.02157647  0.59297753  1
  V  V5  1  0.24721048  0.35203583  0.09208042  1
  V  V6  1  0.02345938  0.48955754  0.51712379  1
  V  V7  1  -0.03187921  0.87860687  0.34071458  1
  V  V8  1  0.05150927  0.39477055  0.36302155  1
  V  V9  1  -0.01606349  0.24598468  0.28576543  1
  V  V10  1  0.50325264  0.10527230  0.63900262  1
  V  V11  1  0.84985744  0.36824057  0.50494557  1
  V  V12  1  0.24869898  0.85340501  0.60711377  1
  V  V13  1  0.51270299  -0.02970785  0.03410549  1
  V  V14  1  0.86860751  0.84332269  0.49804146  1
  V  V15  1  0.23851443  0.01181640  0.27670311  1
  V  V16  1  0.75392561  0.43628313  0.63698338  1
  V  V17  1  0.86348912  0.85694397  -0.00389138  1
  V  V18  1  0.10172509  0.33862702  0.74829775  1
  V  V19  1  -0.01331961  0.13470331  0.64099009  1
  V  V20  1  0.12615973  0.22209186  0.87621094  1
  V  V21  1  0.84740710  0.13940578  0.74793970  1
  V  V22  1  0.22085700  0.50447384  0.75508000  1
  V  V23  1  -0.03163718  -0.00343804  0.53201641  1
  V  V24  1  0.22119080  0.73630591  0.47124721  1
  V  V25  1  0.50217581  0.23447455  0.21723890  1
  V  V26  1  0.53735950  0.49771525  0.00897469  1
  V  V27  1  -0.04814474  0.59168008  0.12456956  1
  V  V28  1  0.75433775  0.85085154  0.62339976  1
  V  V29  1  -0.05061603  0.74150423  0.22685582  1
  V  V30  1  0.48261921  0.81801243  0.74891521  1
  V  V31  1  0.89579196  0.45668872  0.86709874  1
  V  V32  1  0.12013527  0.76347640  0.33154375  1
  V  V33  1  0.12881536  0.82400401  0.93432053  1
  V  V34  1  0.37787439  0.11241065  0.22570095  1
  V  V35  1  -0.00562664  0.90609091  0.87751829  1
  V  V36  1  0.68228969  0.47078599  0.18661175  1
  V  V37  1  0.38066900  0.82839544  0.49281138  1
  V  V38  1  0.63729049  0.75540067  0.84889808  1
  V  V39  1  0.09804932  0.01599903  0.13090401  1
  V  V40  1  0.92263791  0.66603821  0.76946835  1
  V  V41  1  0.58808096  0.34460003  0.67377361  1
  V  V42  1  0.10563807  0.10874167  0.49865630  1
  V  V43  1  0.73549605  0.00185774  0.23431376  1
  V  V44  1  0.39640941  0.49172204  0.37267370  1
  V  V45  1  0.38319360  0.01435334  0.41284952  1
  V  V46  1  0.04320287  0.52811638  -0.02307093  1
  V  V47  1  0.26579109  0.34074804  0.61130103  1
  V  V48  1  0.75615635  -0.01122640  0.75432873  1
  V  V49  1  0.73184660  0.25850214  -0.00797428  1
  V  V50  1  0.62439014  0.72240136  0.39440045  1
  Zn  Zn51  1  0.36421849  0.49283337  0.12717363  1
  Zn  Zn52  1  0.19849771  0.46283574  0.45439963  1
  Zn  Zn53  1  0.30542450  0.04236957  0.06545808  1
  Zn  Zn54  1  0.94234542  0.42062204  0.68554315  1
  Zn  Zn55  1  0.49756747  0.60863519  0.84516883  1
  Zn  Zn56  1  0.22806694  0.69149811  0.67552081  1
  Zn  Zn57  1  0.93515488  0.95181162  0.16309645  1
  Zn  Zn58  1  0.71913818  0.45901238  0.93345282  1
  Zn  Zn59  1  0.05693960  0.57641931  0.29489569  1
  Zn  Zn60  1  0.03762471  0.06103384  0.31000206  1
  Zn  Zn61  1  0.57025595  0.32657273  0.08270072  1
  Zn  Zn62  1  0.70432751  0.93466628  0.43243844  1
  Zn  Zn63  1  0.85953081  0.55213985  0.53762481  1
  Zn  Zn64  1  0.70748768  0.20011294  0.18748403  1
  Zn  Zn65  1  0.95299339  0.70440872  0.95440717  1
  Zn  Zn66  1  0.90613486  0.25402107  0.88942157  1
  Zn  Zn67  1  0.79220221  0.80838187  0.30769470  1
  Zn  Zn68  1  0.82618746  0.81513906  0.80257613  1
  Zn  Zn69  1  0.56392023  0.78544623  0.56426817  1
  Zn  Zn70  1  0.16860386  0.17826482  0.67458767  1
  Zn  Zn71  1  0.11133435  0.32405182  0.54108174  1
  Zn  Zn72  1  0.04743617  0.54314643  0.78074524  1
  Zn  Zn73  1  0.27710375  0.04366708  0.58042407  1
  Zn  Zn74  1  0.45194394  0.34581547  0.52329716  1
  Zn  Zn75  1  0.41478300  0.94689032  0.63302618  1
  Zn  Zn76  1  0.74565380  0.31025694  0.77705243  1
  Zn  Zn77  1  0.78425716  0.63493208  0.21093541  1
  Zn  Zn78  1  0.08761828  0.87517183  0.48964269  1
  Zn  Zn79  1  0.81720339  0.34328183  0.30531486  1
  Zn  Zn80  1  0.29370211  0.80144337  0.80679363  1
  Zn  Zn81  1  0.65215027  0.16142401  0.70433127  1
  Zn  Zn82  1  0.72461868  0.63818629  0.65492274  1
  Zn  Zn83  1  0.21199502  0.19474689  0.20555699  1
  Zn  Zn84  1  0.14495695  1.03610962  0.94962162  1
  Zn  Zn85  1  -0.01242561  0.09567884  0.85140904  1
  Zn  Zn86  1  0.60788542  0.52236722  0.34415565  1
  Zn  Zn87  1  0.44032952  0.93035482  0.19570322  1
  Zn  Zn88  1  0.98723135  0.22789550  0.47957581  1
  Zn  Zn89  1  0.94402792  0.39693321  0.18606771  1
  Zn  Zn90  1  0.68765416  0.90913113  0.93126503  1
  Zn  Zn91  1  0.34852932  0.33033839  0.24426886  1
  Zn  Zn92  1  0.19417978  0.41455007  0.91497315  1
  Zn  Zn93  1  0.28812904  0.86688022  0.33994599  1
  Zn  Zn94  1  0.68707028  0.34374486  0.45786586  1
  Zn  Zn95  1  0.09927985  0.80826540  0.12976578  1
  Zn  Zn96  1  0.46430885  0.68225676  0.44642608  1
  Zn  Zn97  1  0.39500003  0.22007660  0.37824448  1
  Zn  Zn98  1  0.58394059  0.77479827  0.03065557  1
  Zn  Zn99  1  0.54184264  0.05444753  0.31278847  1
  Zn  Zn100  1  0.80851949  0.04631109  0.57900042  1
  Zn  Zn101  1  0.05782340  0.35774554  0.04361187  1
  O  O102  1  0.17160399  0.10224834  0.14380643  1
  O  O103  1  0.08745139  0.11078244  0.63461451  1
  O  O104  1  0.29594472  0.68547053  0.14408466  1
  O  O105  1  0.08859468  0.65227821  0.61187829  1
  O  O106  1  0.66364834  0.13860256  0.11022413  1
  O  O107  1  0.60657870  0.06766002  0.65465803  1
  O  O108  1  0.69164781  0.57097150  0.19358667  1
  O  O109  1  0.61659537  0.62779772  0.66510204  1
  O  O110  1  0.38134156  0.40520046  0.32117684  1
  O  O111  1  0.21929978  0.63940690  0.92243674  1
  O  O112  1  0.38492288  0.88760180  0.39852727  1
  O  O113  1  0.38018782  0.94148895  0.86123321  1
  O  O114  1  0.79391909  0.35103714  0.41460637  1
  O  O115  1  0.88454482  0.35873939  0.86041263  1
  O  O116  1  0.87258502  0.85066413  0.38112913  1
  O  O117  1  0.89038893  0.86512422  0.89237076  1
  O  O118  1  0.28451299  -0.00328799  0.37200418  1
  O  O119  1  0.24645581  0.07813768  0.81240465  1
  O  O120  1  0.30461107  0.48499530  0.42024005  1
  O  O121  1  0.21603352  0.66257996  0.98881379  1
  O  O122  1  0.75082343  -0.00700813  0.34174944  1
  O  O123  1  0.70511988  -0.03542601  0.83686579  1
  O  O124  1  0.78227527  0.58657760  0.44958828  1
  O  O125  1  0.80497325  0.49391896  0.87984621  1
  O  O126  1  0.25920864  0.52605664  0.11936783  1
  O  O127  1  0.29404832  0.47917882  0.68262133  1
  O  O128  1  0.21547533  1.03109277  0.15546097  1
  O  O129  1  0.28822421  0.94470837  0.63434613  1
  O  O130  1  0.76884960  0.44131250  0.16175014  1
  O  O131  1  0.76804705  0.53714744  0.60548942  1
  O  O132  1  0.70544753  0.98722896  0.14224960  1
  O  O133  1  0.73327251  0.98702423  0.64187126  1
  O  O134  1  0.02572056  0.36283434  0.26706726  1
  O  O135  1  0.00500442  0.34518549  0.74661976  1
  O  O136  1  -0.05572995  0.86628699  0.24067543  1
  O  O137  1  0.00715681  0.90894061  0.78561629  1
  O  O138  1  0.51604837  0.32618382  0.26039007  1
  O  O139  1  0.54047821  0.32631590  0.58752860  1
  O  O140  1  0.49414494  0.87803242  0.28037625  1
  O  O141  1  0.46188081  0.91116207  0.73108909  1
  O  O142  1  0.48748163  0.12374086  0.24228165  1
  O  O143  1  0.52278865  0.17857228  0.69922831  1
  O  O144  1  0.54440202  0.67311790  0.22228673  1
  O  O145  1  0.47121854  0.58405975  0.73753952  1
  O  O146  1  0.97176874  0.15007915  0.30590207  1
  O  O147  1  0.96501505  0.11800602  0.74208846  1
  O  O148  1  0.98090276  0.63410560  0.21886652  1
  O  O149  1  1.01971342  0.64549615  0.74946825  1
  O  O150  1  0.39842192  0.19680727  -0.03773651  1
  O  O151  1  0.28609867  0.26799846  0.39910315  1
  O  O152  1  0.35130231  0.77668124  -0.01110013  1
  O  O153  1  0.36335347  0.73451505  0.46402799  1
  O  O154  1  0.83316126  0.25877272  -0.01940654  1
  O  O155  1  0.89787588  0.28403500  0.51267157  1
  O  O156  1  0.87510669  0.76013105  0.01339630  1
  O  O157  1  0.87562984  0.75022412  0.50230311  1
  O  O158  1  0.09591501  0.21591974  0.51440373  1
  O  O159  1  0.07249686  0.25889508  0.96934617  1
  O  O160  1  0.12285034  0.76353690  0.46913041  1
  O  O161  1  0.14670518  0.79990929  1.02825846  1
  O  O162  1  0.64044093  0.23061277  0.51601949  1
  O  O163  1  0.63017295  0.26266125  1.01335749  1
  O  O164  1  0.63960567  0.74192985  0.48934212  1
  O  O165  1  0.73864231  0.65550841  0.97050856  1
  O  O166  1  0.49427486  0.25491623  0.12117816  1
  O  O167  1  0.45122663  0.16489808  0.55901245  1
  O  O168  1  0.51688962  0.68241958  0.04213094  1
  O  O169  1  0.50996320  0.77416041  0.66569237  1
  O  O170  1  1.04467945  0.23003759  0.18900293  1
  O  O171  1  0.98575194  0.22918762  0.63271251  1
  O  O172  1  0.99343013  0.76317050  0.14047046  1
  O  O173  1  1.04244592  0.68563878  0.57049295  1
  O  O174  1  0.00513115  0.28412703  0.38103072  1
  O  O175  1  0.02092274  0.26755457  0.90452299  1
  O  O176  1  -0.00608909  0.75361893  0.31535940  1
  O  O177  1  0.03356748  0.78937583  0.91186088  1
  O  O178  1  0.66367674  0.15272122  0.38611734  1
  O  O179  1  0.52804034  0.36945229  0.74061810  1
  O  O180  1  0.52381622  0.75599342  0.37544792  1
  O  O181  1  0.40923810  0.65706849  0.90159437  1
  O  O182  1  0.20169736  0.09319214  0.51918398  1
  O  O183  1  0.35274308  0.14331158  0.95010803  1
  O  O184  1  0.22384974  0.64444886  0.45253155  1
  O  O185  1  0.35620297  0.61901607  1.01558484  1
  O  O186  1  0.77109913  0.12666545  0.49588031  1
  O  O187  1  0.72165439  0.16343625  0.96778281  1
  O  O188  1  0.62260309  0.51242611  0.50778357  1
  O  O189  1  0.77204997  0.60010556  0.99923157  1
  O  O190  1  0.25904925  0.37103857  -0.00352115  1
  O  O191  1  0.21629355  0.37687458  0.52904672  1
  O  O192  1  0.24859809  1.01623967  -0.02010422  1
  O  O193  1  0.27153661  0.85037685  0.49509349  1
  O  O194  1  0.72719235  0.36749974  -0.00321500  1
  O  O195  1  0.74370550  0.37179055  0.54968292  1
  O  O196  1  0.76872688  0.88331464  0.00177121  1
  O  O197  1  0.76306650  0.86687558  0.49977466  1
  O  O198  1  0.13199121  0.53553430  0.21982617  1
  O  O199  1  0.12458081  0.46563171  0.74982552  1
  O  O200  1  0.14332554  1.02213366  0.29120492  1
  O  O201  1  0.26584163  1.04871993  0.74949706  1
  O  O202  1  0.65949324  0.44227765  0.28668403  1
  O  O203  1  0.62381595  0.48484622  0.79888432  1
  O  O204  1  0.63819759  1.02154431  0.26237631  1
  O  O205  1  0.53188077  1.04113462  0.82782799  1
  O  O206  1  0.38029868  0.01178226  0.24351965  1
  O  O207  1  0.36007390  0.00473524  0.88279905  1
  O  O208  1  0.35256311  0.54303902  0.29540092  1
  O  O209  1  0.24940407  0.49041101  0.84824906  1
  O  O210  1  0.83533472  -0.00462453  0.21189583  1
  O  O211  1  0.84748224  0.01086007  0.77644028  1
  O  O212  1  0.86530183  0.43086021  0.25413899  1
  O  O213  1  0.94337839  0.48821500  0.78120973  1
  O  O214  1  0.14975158  0.40365073  0.36618587  1
  O  O215  1  0.14479242  0.34314775  0.84347513  1
  O  O216  1  0.06990167  0.85998459  0.36845745  1
  O  O217  1  0.10348223  0.92243854  0.91877925  1
  O  O218  1  0.62204712  0.32119684  0.37358422  1
  O  O219  1  0.65226942  0.42835043  0.83322961  1
  O  O220  1  0.60608093  0.89080047  0.39277818  1
  O  O221  1  0.64448711  0.79668733  0.94251376  1
  O  O222  1  0.36081511  0.11772610  0.12913253  1
  O  O223  1  0.42399915  0.05621023  0.67330363  1
  O  O224  1  0.43785753  0.55069746  0.17781720  1
  O  O225  1  0.42574229  0.63178943  0.69118440  1
  O  O226  1  0.94092283  0.18114388  0.09624390  1
  O  O227  1  0.86464566  0.12022567  0.64532612  1
  O  O228  1  0.85495917  0.60035181  0.12919204  1
  O  O229  1  0.88548041  0.61152117  0.67880153  1
  O  O230  1  0.23513962  0.25671713  0.11240873  1
  O  O231  1  0.24722393  0.24446424  0.62580981  1
  O  O232  1  0.30989570  0.80595767  0.03798962  1
  O  O233  1  0.24067927  0.73677360  0.57676636  1
  O  O234  1  0.75497556  0.25169522  0.09194888  1
  O  O235  1  0.67836231  0.19509542  0.56535076  1
  O  O236  1  0.71727654  0.74486802  0.11907789  1
  O  O237  1  0.74331965  0.75420208  0.63249575  1
  O  O238  1  0.22709870  0.26676978  0.35174917  1
  O  O239  1  0.21478272  0.21935483  0.90755563  1
  O  O240  1  0.22302442  0.77839770  0.36273992  1
  O  O241  1  0.20917037  0.80207524  0.87838666  1
  O  O242  1  0.81382151  0.19111210  0.39271051  1
  O  O243  1  0.72029661  0.28347133  0.88899550  1
  O  O244  1  0.70021722  0.75614802  0.33829898  1
  O  O245  1  0.73055327  0.75258469  0.81633965  1
  O  O246  1  -0.03696604  0.15229129  0.03607539  1
  O  O247  1  -0.01806415  0.11054147  0.52612110  1
  O  O248  1  -0.01552422  0.61721216  0.02685052  1
  O  O249  1  -0.03584096  0.57310477  0.51249878  1
  O  O250  1  0.52886823  0.06724133  0.03520953  1
  O  O251  1  0.51309799  0.12936071  0.52923104  1
  O  O252  1  0.52338004  0.60565469  0.02629892  1
  O  O253  1  0.50733860  0.67416468  0.54849504  1
  O  O254  1  0.45921145  0.28316215  0.43494708  1
  O  O255  1  0.54598784  0.39753973  0.99650221  1
  O  O256  1  0.48631746  0.84321086  0.48883146  1
  O  O257  1  0.51917264  0.86258471  1.03836686  1
  O  O258  1  1.04071720  0.38773019  0.47633437  1
  O  O259  1  1.09376056  0.43680108  0.97146736  1
  O  O260  1  0.97043268  0.88586960  0.49927094  1
  O  O261  1  0.83519477  1.05630149  1.03550264  1
  O  O262  1  0.49392758  0.49671414  0.33766984  1
  O  O263  1  0.50634372  0.51844697  0.91426463  1
  O  O264  1  0.48572769  0.98963735  0.38721611  1
  O  O265  1  0.45435180  0.97245236  0.95592732  1
  O  O266  1  1.01953128  0.49039031  0.35864782  1
  O  O267  1  1.07290596  0.57025828  0.89588134  1
  O  O268  1  0.96996723  0.97575383  0.34724798  1
  O  O269  1  0.97308576  0.99845539  0.90428761  1
  O  O270  1  0.01324679  0.03230535  0.18702805  1
  O  O271  1  -0.03150366  -0.00455643  0.62711078  1
  O  O272  1  -0.02355000  0.49809901  0.13206926  1
  O  O273  1  0.01957060  0.46443402  0.61233541  1
  O  O274  1  0.53341675  -0.03725615  0.13988995  1
  O  O275  1  0.52356632  -0.02837483  0.58510774  1
  O  O276  1  0.58155283  0.50070058  0.10297143  1
  O  O277  1  0.50899168  0.52639800  0.59959154  1
  O  O278  1  0.24186597  0.29023918  0.27419644  1
  O  O279  1  0.27125205  0.40202920  0.70645598  1
  O  O280  1  0.25103792  0.91892080  0.24505700  1
  O  O281  1  0.24682774  0.80180891  0.70372074  1
  O  O282  1  0.72475455  0.29103510  0.25611962  1
  O  O283  1  0.77629562  0.40933617  0.73106111  1
  O  O284  1  0.73309518  0.89679246  0.24844138  1
  O  O285  1  0.76768429  0.87983844  0.72677786  1
  O  O286  1  0.27797542  0.11949200  0.26450969  1
  O  O287  1  0.26068753  0.10221735  0.68385979  1
  O  O288  1  0.27299165  0.68574907  0.21075911  1
  O  O289  1  0.21600410  0.60292032  0.73565414  1
  O  O290  1  0.75450410  0.10343973  0.23295294  1
  O  O291  1  0.74254808  0.10359401  0.74924730  1
  O  O292  1  0.77889362  0.58057342  0.32082496  1
  O  O293  1  0.82085876  0.62320966  0.72677742  1
  O  O294  1  0.39107612  0.10962441  0.38633451  1
  O  O295  1  0.36536535  0.18076431  0.79726603  1
  O  O296  1  0.42005771  0.58324495  0.41653492  1
  O  O297  1  0.37092751  0.60206566  0.94551734  1
  O  O298  1  0.82864021  0.14229539  0.44551954  1
  O  O299  1  0.88632774  0.15116807  0.85333021  1
  O  O300  1  0.81296454  0.61027834  0.38300471  1
  O  O301  1  0.91081503  0.64728953  0.86708439  1
  O  O302  1  0.15627654  0.39920700  0.11966773  1
  O  O303  1  0.13638187  0.34133776  0.65468539  1
  O  O304  1  0.10650829  0.91854844  0.13417086  1
  O  O305  1  0.15614811  0.87578124  0.58626083  1
  O  O306  1  0.62656470  0.37406069  0.16480824  1
  O  O307  1  0.65065838  0.42916685  0.65222708  1
  O  O308  1  0.64831727  0.76805490  0.12852004  1
  O  O309  1  0.64439265  0.87457232  0.60422053  1
  O  O310  1  0.09975397  0.21992714  0.24345598  1
  O  O311  1  0.11892242  0.23006653  0.76497974  1
  O  O312  1  0.13313551  0.78361751  0.23657238  1
  O  O313  1  0.01761901  0.80231766  0.64611000  1
  O  O314  1  0.60457134  0.22256476  0.23738188  1
  O  O315  1  0.65726945  0.27219009  0.71427479  1
  O  O316  1  0.47852102  0.69789590  0.21701807  1
  O  O317  1  0.57305853  0.82192676  0.80450556  1
  O  O318  1  0.39555762  0.22807485  0.25768199  1
  O  O319  1  0.41165739  0.23138205  0.81631269  1
  O  O320  1  0.35705255  0.79484825  0.24690288  1
  O  O321  1  0.40052456  0.77907955  0.79695546  1
  O  O322  1  0.89305235  0.27111354  0.25683447  1
  O  O323  1  0.82438085  0.23427119  0.74499461  1
  O  O324  1  0.84470129  0.73380489  0.23612332  1
  O  O325  1  0.91088950  0.76280815  0.75507930  1
  O  O326  1  0.43139296  0.43860137  0.45840864  1
  O  O327  1  0.44348625  0.48104426  1.04558625  1
  O  O328  1  0.36762905  1.01285036  0.51027941  1
  O  O329  1  0.41117989  0.96638810  1.08121590  1
  O  O330  1  0.90349929  0.44631277  0.47365066  1
  O  O331  1  0.95063649  0.48217846  0.95146086  1
  O  O332  1  0.87050136  0.99588211  0.50105614  1
  O  O333  1  0.82701247  1.03612030  0.96851771  1
  O  O334  1  0.07451809  0.03853095  0.03886718  1
  O  O335  1  0.07130353  -0.00212049  0.50034702  1
  O  O336  1  0.11373710  0.55564603  0.05898372  1
  O  O337  1  0.11689203  0.52273071  0.49978144  1
  O  O338  1  0.60352984  -0.04292190  -0.00889690  1
  O  O339  1  0.65495628  0.00660005  0.50450173  1
  O  O340  1  0.63702127  0.51516715  -0.02355320  1
  O  O341  1  0.62350366  0.46460778  0.45316948  1
  O  O342  1  0.33106505  0.38401307  0.14674557  1
  O  O343  1  0.35968326  0.34829031  0.58690364  1
  O  O344  1  0.37760359  0.82350110  0.18298463  1
  O  O345  1  0.37751547  0.84111385  0.59308857  1
  O  O346  1  0.97006069  0.33728867  0.09995063  1
  O  O347  1  0.85926527  0.40906617  0.61168273  1
  O  O348  1  0.91620054  0.91186044  0.06166190  1
  O  O349  1  0.85502523  0.86281572  0.60465530  1
  O  O350  1  0.09522608  0.11316050  0.40257719  1
  O  O351  1  0.09579682  0.12076899  0.88393244  1
  O  O352  1  0.10944452  0.66580901  0.33766505  1
  O  O353  1  0.06731512  0.79690982  0.69554901  1
  O  O354  1  0.59522842  0.12913057  0.39088256  1
  O  O355  1  0.48274789  0.08932547  0.84370665  1
  O  O356  1  0.61348605  0.62407501  0.37814908  1
  O  O357  1  0.59155430  0.66725671  0.85388607  1
