# generated using pymatgen
data_V51Zn51O256
_symmetry_space_group_name_H-M   'P 1'
_cell_length_a   17.84387985
_cell_length_b   17.63300450
_cell_length_c   17.93121629
_cell_angle_alpha   90.24767682
_cell_angle_beta   92.09815113
_cell_angle_gamma   91.25505483
_symmetry_Int_Tables_number   1
_chemical_formula_structural   V51Zn51O256
_chemical_formula_sum   'V51 Zn51 O256'
_cell_volume   5636.69044520
_cell_formula_units_Z   1
loop_
 _symmetry_equiv_pos_site_id
 _symmetry_equiv_pos_as_xyz
  1  'x, y, z'
loop_
 _atom_site_type_symbol
 _atom_site_label
 _atom_site_symmetry_multiplicity
 _atom_site_fract_x
 _atom_site_fract_y
 _atom_site_fract_z
 _atom_site_occupancy
  V  V0  1  0.89401953  0.88629973  0.02731043  1
  V  V1  1  0.46172423  0.44400911  0.35077414  1
  V  V2  1  0.59927428  0.89591237  0.27432168  1
  V  V3  1  0.11999718  0.27716212  0.43278348  1
  V  V4  1  0.40194895  0.38458491  0.54858502  1
  V  V5  1  -0.00047457  0.42023091  0.84501334  1
  V  V6  1  0.72305825  0.02052682  0.71833712  1
  V  V7  1  -0.07599619  0.15711401  0.60252273  1
  V  V8  1  0.86102972  0.12763616  0.74794755  1
  V  V9  1  0.31339023  0.45885708  0.80449931  1
  V  V10  1  0.08436064  0.36733872  0.26020821  1
  V  V11  1  0.01258678  0.80332320  0.95372793  1
  V  V12  1  0.43003969  0.72552972  0.14608688  1
  V  V13  1  0.72513551  0.61681507  0.41233135  1
  V  V14  1  0.25756039  0.28726656  0.02846877  1
  V  V15  1  0.15819670  0.37442044  0.75805181  1
  V  V16  1  0.41078293  0.67264094  0.75554490  1
  V  V17  1  0.75350521  0.09147248  0.88553899  1
  V  V18  1  0.52987466  0.64168991  0.62991344  1
  V  V19  1  0.42759713  0.29892676  -0.03773508  1
  V  V20  1  0.62146255  0.49024505  0.60454609  1
  V  V21  1  0.27111487  0.24141628  0.55376292  1
  V  V22  1  0.89314691  0.60859830  0.73544876  1
  V  V23  1  0.87195625  0.05240909  0.12341585  1
  V  V24  1  0.55189560  0.14361697  0.49317110  1
  V  V25  1  0.73448715  0.34484440  0.11786055  1
  V  V26  1  0.30238945  0.10848946  0.29125651  1
  V  V27  1  0.87458819  0.53313642  0.29106057  1
  V  V28  1  0.07659777  0.03228588  0.14627786  1
  V  V29  1  0.87199182  0.86337150  0.48536363  1
  V  V30  1  0.02587525  0.54790132  0.06889171  1
  V  V31  1  0.74901442  0.28805440  0.45118737  1
  V  V32  1  0.54467751  0.24666563  0.75193279  1
  V  V33  1  0.18093012  0.85430766  0.66382217  1
  V  V34  1  0.21793795  0.04649118  0.91814726  1
  V  V35  1  0.60338708  0.02733950  -0.02045706  1
  V  V36  1  0.01705919  0.76247869  0.29446294  1
  V  V37  1  0.78311489  0.40195003  0.62660698  1
  V  V38  1  0.76863782  0.82925502  0.11664249  1
  V  V39  1  -0.01985722  0.26472669  0.74182848  1
  V  V40  1  0.89537476  0.38577896  -0.03691495  1
  V  V41  1  -0.00158705  0.16519239  0.07172922  1
  V  V42  1  0.32305373  0.09876873  0.77149657  1
  V  V43  1  0.72525417  0.26102423  -0.04337966  1
  V  V44  1  0.39010972  0.88016443  0.48747425  1
  V  V45  1  0.56560357  0.74158529  0.79718702  1
  V  V46  1  0.64028873  0.89198889  0.76910492  1
  V  V47  1  -0.01822067  0.93691409  0.82756204  1
  V  V48  1  0.01225148  0.62160710  0.61902278  1
  V  V49  1  0.15445657  0.52039049  0.61901329  1
  V  V50  1  0.53141649  0.47194050  -0.02499759  1
  Zn  Zn51  1  0.21900754  0.40503733  0.48697799  1
  Zn  Zn52  1  0.70128407  0.10930056  0.53293126  1
  Zn  Zn53  1  0.42077052  0.54926826  -0.08981569  1
  Zn  Zn54  1  0.47643802  0.41883914  0.70874016  1
  Zn  Zn55  1  0.35863243  0.53487956  0.64104843  1
  Zn  Zn56  1  0.80933085  0.70427643  0.27038978  1
  Zn  Zn57  1  0.69187770  0.00535059  0.14408120  1
  Zn  Zn58  1  0.56813119  0.83922435  0.58520090  1
  Zn  Zn59  1  0.19278999  0.90478289  0.43870069  1
  Zn  Zn60  1  0.26688542  0.77374690  0.79285510  1
  Zn  Zn61  1  0.64243480  0.44446195  0.41980152  1
  Zn  Zn62  1  0.91552390  0.98104221  0.65613437  1
  Zn  Zn63  1  0.80905586  0.58334472  0.58317511  1
  Zn  Zn64  1  0.61504347  0.71166035  0.31969664  1
  Zn  Zn65  1  0.79401835  0.90847454  0.83919286  1
  Zn  Zn66  1  0.54279100  0.58988561  0.44694484  1
  Zn  Zn67  1  0.98610503  0.61494875  0.89360757  1
  Zn  Zn68  1  0.93470355  0.29205556  0.48221620  1
  Zn  Zn69  1  0.79656197  0.36081482  0.30554356  1
  Zn  Zn70  1  0.27141273  0.10977639  0.08982762  1
  Zn  Zn71  1  0.26754832  0.02776648  0.58881964  1
  Zn  Zn72  1  0.15477959  0.87683592  0.86169996  1
  Zn  Zn73  1  0.36709333  0.13841924  0.48413186  1
  Zn  Zn74  1  0.06515525  0.55448243  0.23644611  1
  Zn  Zn75  1  0.45028136  0.61337292  0.29087584  1
  Zn  Zn76  1  0.25094111  0.84313271  0.25382125  1
  Zn  Zn77  1  1.00426913  0.36544147  0.10772857  1
  Zn  Zn78  1  0.65086638  0.96034484  0.45790561  1
  Zn  Zn79  1  0.23296245  0.66810081  0.65199832  1
  Zn  Zn80  1  0.81612963  0.32348882  0.80420127  1
  Zn  Zn81  1  0.89294754  0.67508723  0.43192590  1
  Zn  Zn82  1  0.95381146  0.91454542  0.19845875  1
  Zn  Zn83  1  0.40566911  0.87039319  0.31541759  1
  Zn  Zn84  1  0.59857041  0.78617111  0.14044703  1
  Zn  Zn85  1  0.10765357  0.84071508  0.12185698  1
  Zn  Zn86  1  0.55185037  0.31531941  0.43309703  1
  Zn  Zn87  1  0.96386969  0.44980259  0.66087151  1
  Zn  Zn88  1  0.16221472  0.21402539  0.17378790  1
  Zn  Zn89  1  0.68714742  0.85556730  0.96475779  1
  Zn  Zn90  1  0.05807630  0.80375921  0.53888241  1
  Zn  Zn91  1  0.31773438  0.30083391  0.38425121  1
  Zn  Zn92  1  0.88632578  0.18607790  -0.05721447  1
  Zn  Zn93  1  0.48376279  0.13066303  0.89023834  1
  Zn  Zn94  1  0.04228111  0.12944600  0.87975527  1
  Zn  Zn95  1  0.28337879  0.26810052  0.84424217  1
  Zn  Zn96  1  0.72321536  0.46124606  0.98482720  1
  Zn  Zn97  1  0.59900083  0.31061553  0.02070318  1
  Zn  Zn98  1  0.57705514  0.58989792  0.83512425  1
  Zn  Zn99  1  0.85601907  0.48367988  0.11180560  1
  Zn  Zn100  1  0.70212501  0.65152068  0.70807883  1
  Zn  Zn101  1  0.65538311  0.27966194  0.61316242  1
  O  O102  1  0.09093448  0.14316696  0.11933440  1
  O  O103  1  0.10257412  0.10820114  0.54122354  1
  O  O104  1  0.07647836  0.59862056  0.14083219  1
  O  O105  1  0.12740160  0.61855974  0.63199312  1
  O  O106  1  0.63115205  0.05602258  0.06779884  1
  O  O107  1  0.61238216  0.18579546  0.56392109  1
  O  O108  1  0.44661442  0.73335850  0.24918868  1
  O  O109  1  0.62890571  0.60541464  0.63400805  1
  O  O110  1  0.38594046  0.37677915  0.34835605  1
  O  O111  1  0.38603092  0.30705837  0.87722174  1
  O  O112  1  0.39348989  0.94354510  0.40250652  1
  O  O113  1  0.33269972  0.79686929  0.88905181  1
  O  O114  1  0.85119656  0.44798036  0.33276102  1
  O  O115  1  0.90316626  0.38939474  0.84250790  1
  O  O116  1  0.83985750  0.82649750  0.39648383  1
  O  O117  1  0.89626323  0.90095491  0.85466746  1
  O  O118  1  0.23836061  -0.00418132  0.48368888  1
  O  O119  1  0.18993128  -0.04688310  0.93012552  1
  O  O120  1  0.35086964  0.62773715  0.34127230  1
  O  O121  1  0.35184320  0.46546607  0.89381693  1
  O  O122  1  0.73756677  0.01493719  0.49409613  1
  O  O123  1  0.78794724  0.00585610  0.90159043  1
  O  O124  1  0.70805565  0.52360793  0.38422125  1
  O  O125  1  0.73246722  0.55567555  0.84890634  1
  O  O126  1  0.25285442  0.50320158  0.11589087  1
  O  O127  1  0.25224562  0.56086330  0.63325276  1
  O  O128  1  0.19173600  1.03294454  0.13415872  1
  O  O129  1  0.22326931  0.93483715  0.63085716  1
  O  O130  1  0.75548174  0.44171575  0.09072758  1
  O  O131  1  0.73918209  0.49662513  0.60532369  1
  O  O132  1  0.75279999  0.90832267  0.16380470  1
  O  O133  1  0.69304696  1.04734764  0.63398206  1
  O  O134  1  -0.00276146  0.36284954  0.21579238  1
  O  O135  1  -0.00730513  0.36661930  0.73698318  1
  O  O136  1  -0.01233210  0.86249740  0.29086131  1
  O  O137  1  -0.02145815  0.93598411  0.73165603  1
  O  O138  1  0.45461021  0.50297864  0.27254549  1
  O  O139  1  0.51341802  0.33703251  0.76976871  1
  O  O140  1  0.50258972  0.89312420  0.28283951  1
  O  O141  1  0.56560314  0.84160199  0.81894397  1
  O  O142  1  0.38673482  0.06157952  0.28599094  1
  O  O143  1  0.50677760  0.15282608  0.68729928  1
  O  O144  1  0.35125541  0.77881784  0.14757193  1
  O  O145  1  0.53106243  0.64481925  0.74792319  1
  O  O146  1  0.95633895  0.18523852  0.27605915  1
  O  O147  1  0.95061476  0.11476829  0.73662576  1
  O  O148  1  1.04514033  0.67260077  0.27037269  1
  O  O149  1  0.98632798  0.64713358  0.71143628  1
  O  O150  1  0.46017400  0.21034946  -0.03059308  1
  O  O151  1  0.34488455  0.24419411  0.47516532  1
  O  O152  1  0.27706360  0.79299446  -0.06384318  1
  O  O153  1  0.43993452  0.82378048  0.41725153  1
  O  O154  1  0.86369634  0.29307155  -0.05236810  1
  O  O155  1  0.84050132  0.32919731  0.45952400  1
  O  O156  1  0.81718697  0.65686671  -0.00046601  1
  O  O157  1  0.88905999  0.76017191  0.50397171  1
  O  O158  1  0.17785677  0.26288383  0.52717630  1
  O  O159  1  0.21126740  0.36215256  1.05079191  1
  O  O160  1  0.04710372  0.59512671  0.44972946  1
  O  O161  1  0.07696196  0.79805862  1.02738016  1
  O  O162  1  0.54040602  0.20709904  0.42140128  1
  O  O163  1  0.63993752  0.21932709  0.97315410  1
  O  O164  1  0.62175139  0.86742258  0.50285240  1
  O  O165  1  0.67829498  0.61872673  1.08758706  1
  O  O166  1  0.51956334  0.13986035  0.15161878  1
  O  O167  1  0.46356613  0.21144777  0.67766444  1
  O  O168  1  0.48497706  0.81198599  0.12896596  1
  O  O169  1  0.54007319  0.73743845  0.62036030  1
  O  O170  1  1.01186032  0.26008038  0.08208211  1
  O  O171  1  0.99031252  0.22605149  0.65113277  1
  O  O172  1  1.05168205  0.78527806  0.20440174  1
  O  O173  1  1.02721235  0.70237842  0.56739651  1
  O  O174  1  0.03835342  0.29697792  0.48265805  1
  O  O175  1  0.02536817  0.22401273  0.81685648  1
  O  O176  1  -0.02101016  0.73085769  0.38123355  1
  O  O177  1  -0.08083599  0.79024950  0.98391745  1
  O  O178  1  0.55049968  0.18349850  0.26701039  1
  O  O179  1  0.54807162  0.19852940  0.83384092  1
  O  O180  1  0.53552081  0.64799843  0.35013393  1
  O  O181  1  0.57714192  0.69638106  0.88040909  1
  O  O182  1  0.27912166  0.13391554  0.54628535  1
  O  O183  1  0.27859125  0.07318520  0.99303689  1
  O  O184  1  0.36277180  0.64555316  0.41555306  1
  O  O185  1  0.21300378  0.70829154  1.04608826  1
  O  O186  1  0.74368362  0.19613659  0.47982284  1
  O  O187  1  0.77873671  0.15751836  0.96066396  1
  O  O188  1  0.80278537  0.62650834  0.48109147  1
  O  O189  1  0.70000964  0.55444536  0.91433268  1
  O  O190  1  0.36044458  0.31070817  0.03103076  1
  O  O191  1  0.30249819  0.35702021  0.53699911  1
  O  O192  1  0.20902315  0.77274350  -0.10039420  1
  O  O193  1  0.29428471  0.85548977  0.45844002  1
  O  O194  1  0.68815136  0.35699952  -0.03581557  1
  O  O195  1  0.66236039  0.34311535  0.46083991  1
  O  O196  1  0.79147279  0.85417520  0.01357663  1
  O  O197  1  0.78579619  0.85790562  0.52617159  1
  O  O198  1  0.11431849  0.46258316  0.26615434  1
  O  O199  1  0.25286743  0.52688150  0.79519864  1
  O  O200  1  0.07404426  1.04420652  0.23666747  1
  O  O201  1  0.12308170  1.05585096  0.58059160  1
  O  O202  1  0.57938006  0.50931814  0.17405252  1
  O  O203  1  0.63604122  0.43051963  0.77394010  1
  O  O204  1  0.61586894  0.95401789  0.20018267  1
  O  O205  1  0.63227735  0.99072404  0.77186436  1
  O  O206  1  0.24403265  0.03051425  0.29334503  1
  O  O207  1  0.44962165  -0.05449914  0.71067654  1
  O  O208  1  0.23768734  0.51960790  0.17971280  1
  O  O209  1  0.38196355  0.47276248  0.73478248  1
  O  O210  1  0.90024506  0.00637632  0.20451668  1
  O  O211  1  0.83124157  0.02893400  0.71395158  1
  O  O212  1  0.83153212  0.53750308  0.20518708  1
  O  O213  1  0.89695914  0.51428392  0.72400623  1
  O  O214  1  0.27866229  0.49564156  0.40127760  1
  O  O215  1  0.10057492  0.39360791  0.83271664  1
  O  O216  1  0.10275173  0.95473611  0.44364340  1
  O  O217  1  0.04714246  0.86672828  0.86995186  1
  O  O218  1  0.55393655  0.40138157  0.35878902  1
  O  O219  1  0.66362115  0.39746044  0.82734776  1
  O  O220  1  0.64165933  0.92846924  0.35486389  1
  O  O221  1  0.70198720  0.85845103  0.85703552  1
  O  O222  1  0.32139715  0.11923857  0.19298427  1
  O  O223  1  0.31796136  0.06187926  0.68186718  1
  O  O224  1  0.40078247  0.69330308  0.05967258  1
  O  O225  1  0.42153344  0.62782039  0.66419242  1
  O  O226  1  0.90457665  0.15444191  0.10774807  1
  O  O227  1  0.83713954  0.16212521  0.64739285  1
  O  O228  1  0.93113517  0.55521472  0.08474288  1
  O  O229  1  0.92185182  0.59319048  0.58974435  1
  O  O230  1  0.23996490  0.21400037  0.09733419  1
  O  O231  1  0.28803964  0.25466448  0.64259130  1
  O  O232  1  0.20570190  0.86184215  0.15857522  1
  O  O233  1  0.22340971  0.77324473  0.63121382  1
  O  O234  1  0.76736840  0.27583591  0.05701225  1
  O  O235  1  0.75234642  0.31893360  0.57851950  1
  O  O236  1  0.69740227  0.62467817  0.15390446  1
  O  O237  1  0.85143380  0.81312112  0.71064839  1
  O  O238  1  0.21160598  0.33149436  0.40424729  1
  O  O239  1  0.23563536  0.25823491  0.93820744  1
  O  O240  1  0.18805164  0.63034638  0.37549429  1
  O  O241  1  0.21336902  0.54948871  0.96559251  1
  O  O242  1  0.74444943  0.28247103  0.35392974  1
  O  O243  1  0.74219929  0.26769276  0.86090232  1
  O  O244  1  0.72087477  0.68613139  0.33547182  1
  O  O245  1  0.76840530  0.68329248  0.95825731  1
  O  O246  1  -0.01409846  0.15424933  -0.02800518  1
  O  O247  1  -0.08635738  0.18753919  0.51380955  1
  O  O248  1  0.04123402  0.58384043  -0.01953792  1
  O  O249  1  -0.02272258  0.59214444  0.45294492  1
  O  O250  1  0.51194406  0.05127648  -0.04069685  1
  O  O251  1  0.46264008  0.11394154  0.51919896  1
  O  O252  1  0.52906409  0.69478290  0.13007083  1
  O  O253  1  0.50129279  0.61728138  0.54256343  1
  O  O254  1  0.46992506  0.35848826  0.48737044  1
  O  O255  1  0.50990247  0.36684518  0.98217617  1
  O  O256  1  0.48003132  0.90039829  0.53317183  1
  O  O257  1  0.47341816  0.99147818  1.12211455  1
  O  O258  1  1.02819041  0.44944187  0.41306720  1
  O  O259  1  0.99649151  0.40493172  0.94323053  1
  O  O260  1  0.97623662  0.85869542  0.48821313  1
  O  O261  1  0.97948692  0.91332767  0.99390430  1
  O  O262  1  0.46107755  0.51196086  0.41932949  1
  O  O263  1  0.52939023  0.50518313  0.88138627  1
  O  O264  1  0.76857312  1.05336733  0.31629453  1
  O  O265  1  0.38697270  0.91314323  0.97946636  1
  O  O266  1  0.96976718  0.53758519  0.28269618  1
  O  O267  1  1.00506375  0.51435913  0.83677574  1
  O  O268  1  0.99771332  1.07808853  0.42351167  1
  O  O269  1  1.00267355  1.02759844  0.85503727  1
  O  O270  1  -0.01049006  0.05385798  0.09703611  1
  O  O271  1  -0.05059877  0.06455842  0.59465864  1
  O  O272  1  0.05626972  0.45666880  0.08125567  1
  O  O273  1  0.04267233  0.51466286  0.62005173  1
  O  O274  1  0.40899907  0.00992940  0.10666792  1
  O  O275  1  0.48805098  -0.00530097  0.68152878  1
  O  O276  1  0.40163593  0.63538308  0.18424889  1
  O  O277  1  0.53933355  0.49667539  0.65778951  1
  O  O278  1  0.27411504  0.48971236  0.33311300  1
  O  O279  1  0.25585881  0.36791330  0.79487885  1
  O  O280  1  0.19889463  0.89467419  0.33136936  1
  O  O281  1  0.19485208  0.84984654  0.76594013  1
  O  O282  1  0.77866681  0.33513250  0.20296951  1
  O  O283  1  0.77944479  0.38257449  0.71928258  1
  O  O284  1  0.78399398  0.75529090  0.17872055  1
  O  O285  1  0.74157403  0.91923783  0.73296259  1
  O  O286  1  0.21722060  0.15956367  0.26151533  1
  O  O287  1  0.26495851  0.04211787  0.83197959  1
  O  O288  1  0.20738516  0.74704701  0.23145758  1
  O  O289  1  0.31146661  0.69440066  0.74060477  1
  O  O290  1  0.78057107  0.07100759  0.14155225  1
  O  O291  1  0.73405186  0.10298309  0.78163896  1
  O  O292  1  0.62157176  0.53262007  0.22493398  1
  O  O293  1  0.80706268  0.63954975  0.68539388  1
  O  O294  1  0.30580398  0.10889303  0.39158158  1
  O  O295  1  0.41243160  0.09891128  0.81085097  1
  O  O296  1  0.30642725  0.65648371  0.45535637  1
  O  O297  1  0.41033363  0.62656690  0.83978667  1
  O  O298  1  0.97960743  0.06255012  0.35893985  1
  O  O299  1  0.85695006  0.13077056  0.84751982  1
  O  O300  1  0.84997061  0.62178626  0.33974996  1
  O  O301  1  0.89275596  0.62664985  0.82882137  1
  O  O302  1  0.14607914  0.31096908  0.21298612  1
  O  O303  1  0.15835119  0.44614254  0.68691973  1
  O  O304  1  0.04803961  0.92795438  0.14783394  1
  O  O305  1  0.08917664  0.85387847  0.63164088  1
  O  O306  1  0.63791196  0.33185579  0.12115441  1
  O  O307  1  0.63539794  0.39606335  0.62128135  1
  O  O308  1  0.67577004  0.80290059  0.07352269  1
  O  O309  1  0.60551065  0.87434880  0.68046708  1
  O  O310  1  0.07327914  0.32746404  0.34892624  1
  O  O311  1  0.13444815  0.29196573  0.72340884  1
  O  O312  1  0.09568255  0.78531912  0.34765597  1
  O  O313  1  0.22745248  0.60579428  0.92872504  1
  O  O314  1  0.51899362  0.24297612  0.25357455  1
  O  O315  1  0.63152363  0.25578060  0.71479887  1
  O  O316  1  0.61917371  0.79683802  0.25040978  1
  O  O317  1  0.65090341  0.73719344  0.75305911  1
  O  O318  1  0.33692195  0.20702430  0.31482334  1
  O  O319  1  0.28671392  0.18765764  0.77526849  1
  O  O320  1  0.32430862  0.79382702  0.31720141  1
  O  O321  1  0.45609479  0.75969682  0.76654070  1
  O  O322  1  0.89155534  0.20651640  0.27357949  1
  O  O323  1  0.88418137  0.24700740  0.75721137  1
  O  O324  1  0.91782123  0.74364893  0.26447325  1
  O  O325  1  0.91151590  0.78247410  0.70070536  1
  O  O326  1  0.39641261  0.48179789  0.55764670  1
  O  O327  1  0.46393128  0.52606275  1.01219852  1
  O  O328  1  0.36416808  0.95708699  0.54106138  1
  O  O329  1  0.32879889  0.91163523  1.01317429  1
  O  O330  1  0.97572986  0.44509517  0.45459652  1
  O  O331  1  0.82737468  0.45176135  0.94836722  1
  O  O332  1  0.87202323  0.94612968  0.43562753  1
  O  O333  1  0.86339962  0.98711320  1.04727048  1
  O  O334  1  0.15631647  -0.01267512  0.08279730  1
  O  O335  1  0.14404245  -0.18408410  0.47992626  1
  O  O336  1  0.21698592  0.65050903  0.08366962  1
  O  O337  1  0.16302486  0.48321999  0.53064257  1
  O  O338  1  0.61238152  -0.06901252  -0.02389908  1
  O  O339  1  0.59951960  0.06153310  0.46803335  1
  O  O340  1  0.61525672  0.49198575  0.01649482  1
  O  O341  1  0.59970431  0.49720762  0.51048754  1
  O  O342  1  0.48662883  0.19869436  0.13755133  1
  O  O343  1  0.43054083  0.35025783  0.63248957  1
  O  O344  1  0.34037027  0.91013525  0.23794159  1
  O  O345  1  0.37774789  0.80228681  0.54346023  1
  O  O346  1  0.90502918  0.39227838  0.06190702  1
  O  O347  1  0.87556223  0.41201657  0.60406614  1
  O  O348  1  0.89299405  0.85515328  0.12121323  1
  O  O349  1  0.89426411  0.90934778  0.57444289  1
  O  O350  1  0.11776170  0.19025618  0.40243086  1
  O  O351  1  0.14389714  0.10597200  0.90986342  1
  O  O352  1  0.18095468  0.59814336  0.31437489  1
  O  O353  1  0.02007707  0.72154846  0.90358547  1
  O  O354  1  0.81899866  0.09574381  0.34056847  1
  O  O355  1  0.65872796  0.07508131  0.90880268  1
  O  O356  1  0.64881503  0.64111164  0.45853255  1
  O  O357  1  0.67889598  0.57309037  0.79157855  1
