# generated using pymatgen
data_V51Zn51O256
_symmetry_space_group_name_H-M   'P 1'
_cell_length_a   17.71761495
_cell_length_b   17.19325511
_cell_length_c   17.49601680
_cell_angle_alpha   89.78359102
_cell_angle_beta   90.01245288
_cell_angle_gamma   89.80546554
_symmetry_Int_Tables_number   1
_chemical_formula_structural   V51Zn51O256
_chemical_formula_sum   'V51 Zn51 O256'
_cell_volume   5329.62853401
_cell_formula_units_Z   1
loop_
 _symmetry_equiv_pos_site_id
 _symmetry_equiv_pos_as_xyz
  1  'x, y, z'
loop_
 _atom_site_type_symbol
 _atom_site_label
 _atom_site_symmetry_multiplicity
 _atom_site_fract_x
 _atom_site_fract_y
 _atom_site_fract_z
 _atom_site_occupancy
  V  V0  1  0.54824458  0.03214505  0.03482830  1
  V  V1  1  0.07722738  0.56976775  0.51338761  1
  V  V2  1  0.11633146  0.12123326  0.04204686  1
  V  V3  1  0.17516893  0.81459610  0.74342026  1
  V  V4  1  0.23076860  0.36615306  0.63660888  1
  V  V5  1  0.03555315  0.84490837  0.42489149  1
  V  V6  1  0.65691904  0.26776275  0.27834987  1
  V  V7  1  0.13058055  0.27246946  0.36957059  1
  V  V8  1  0.42441942  -0.00142708  0.80721030  1
  V  V9  1  0.08805577  0.00048686  0.16237485  1
  V  V10  1  0.76750402  0.23922811  0.01570032  1
  V  V11  1  0.10397760  0.35771755  0.75081976  1
  V  V12  1  0.90916052  -0.02053441  0.87677030  1
  V  V13  1  -0.01220344  0.74879475  0.28492519  1
  V  V14  1  0.64952914  0.58890472  0.50878184  1
  V  V15  1  0.74145944  0.61209229  0.34302486  1
  V  V16  1  0.36742914  0.80427307  0.12212719  1
  V  V17  1  0.14265624  0.01987747  0.60791880  1
  V  V18  1  0.91322129  0.09974910  0.73554584  1
  V  V19  1  0.19720185  0.09523553  0.87214510  1
  V  V20  1  0.28917668  0.47404715  0.77794486  1
  V  V21  1  0.22506290  0.33482600  0.15350106  1
  V  V22  1  -0.01292329  0.01401697  0.50484550  1
  V  V23  1  0.62717076  0.78738046  0.36823546  1
  V  V24  1  0.37786815  0.16121146  0.74855663  1
  V  V25  1  0.78220045  0.87655140  0.63258895  1
  V  V26  1  0.54348131  0.80215266  0.81720431  1
  V  V27  1  0.23675502  0.12177007  0.38848937  1
  V  V28  1  0.90352954  0.24013762  0.64068451  1
  V  V29  1  0.00424243  0.84084976  0.81942797  1
  V  V30  1  0.76305411  0.85264973  0.09749808  1
  V  V31  1  0.66523638  0.55573506  0.16882802  1
  V  V32  1  0.50423522  0.66522387  0.12210690  1
  V  V33  1  0.25004593  0.00040757  0.24733656  1
  V  V34  1  0.50791138  0.82214951  0.21830573  1
  V  V35  1  0.74194549  0.62987626  0.89612496  1
  V  V36  1  0.53046040  0.64537090  0.60874770  1
  V  V37  1  0.24818787  0.23393668  0.00847181  1
  V  V38  1  0.89088981  0.26338946  0.13933446  1
  V  V39  1  0.75063184  0.75289835  0.52849392  1
  V  V40  1  0.38347651  0.94241127  -0.00076369  1
  V  V41  1  0.85435691  0.48819382  0.40096840  1
  V  V42  1  -0.03020806  0.64141398  0.07272183  1
  V  V43  1  0.26086013  0.78597823  -0.01986188  1
  V  V44  1  0.76668149  -0.00885203  0.76285859  1
  V  V45  1  0.60413525  0.02855307  0.60514155  1
  V  V46  1  0.39286743  0.83043208  0.50594155  1
  V  V47  1  0.47029039  0.07409987  0.48680454  1
  V  V48  1  0.39674918  0.12130114  0.27222095  1
  V  V49  1  0.77831871  0.23097130  0.53669013  1
  V  V50  1  0.28392598  0.64511844  0.29945397  1
  Zn  Zn51  1  0.31176600  0.91834438  0.66100403  1
  Zn  Zn52  1  0.79923151  0.79518001  0.28158850  1
  Zn  Zn53  1  0.14057777  0.84850743  0.24464626  1
  Zn  Zn54  1  0.56424050  0.12230578  0.76340833  1
  Zn  Zn55  1  0.29875762  0.27519416  0.28005150  1
  Zn  Zn56  1  0.53676614  0.24103526  0.40527629  1
  Zn  Zn57  1  0.93384756  0.91503135  0.20222679  1
  Zn  Zn58  1  0.42614235  0.15733412  1.08153848  1
  Zn  Zn59  1  0.11915106  0.64818103  0.21667162  1
  Zn  Zn60  1  -0.03909723  0.54825878  0.24126235  1
  Zn  Zn61  1  0.20567525  0.19127733  0.70103943  1
  Zn  Zn62  1  1.00306550  0.13641584  0.89266150  1
  Zn  Zn63  1  0.42832512  0.98349431  0.18083301  1
  Zn  Zn64  1  0.74818710  0.45702164  1.00742143  1
  Zn  Zn65  1  0.18954675  0.62721454  0.68187650  1
  Zn  Zn66  1  0.81152999  0.05858095  0.57242199  1
  Zn  Zn67  1  0.51468801  0.85527633  0.63776227  1
  Zn  Zn68  1  0.07413646  0.01216288  0.78306764  1
  Zn  Zn69  1  0.31635038  0.83193062  0.30892924  1
  Zn  Zn70  1  0.19527985  0.92428049  1.05822717  1
  Zn  Zn71  1  0.66092925  0.72071949  0.20622941  1
  Zn  Zn72  1  0.68355309  0.08103441  0.18382107  1
  Zn  Zn73  1  0.90328066  0.66927413  0.44865206  1
  Zn  Zn74  1  0.31281787  0.09454169  0.57498419  1
  Zn  Zn75  1  0.53345187  0.62950249  0.84041956  1
  Zn  Zn76  1  0.14724599  0.17033301  0.22920516  1
  Zn  Zn77  1  0.46185197  0.52985610  0.70284768  1
  Zn  Zn78  1  0.65854775  0.38407695  0.45800191  1
  Zn  Zn79  1  0.99128474  0.22041608  0.50530658  1
  Zn  Zn80  1  0.16408063  0.20662413  0.53298819  1
  Zn  Zn81  1  0.27953707  0.90310398  0.85692286  1
  Zn  Zn82  1  0.54018887  -0.02190859  0.33127479  1
  Zn  Zn83  1  0.11342070  0.75358990  0.57495676  1
  Zn  Zn84  1  0.24923753  0.38317751  0.94008820  1
  Zn  Zn85  1  0.94070653  0.45253667  0.07658680  1
  Zn  Zn86  1  0.66481605  0.92365077  0.47405828  1
  Zn  Zn87  1  0.64597089  0.65390764  0.72024003  1
  Zn  Zn88  1  0.95555648  0.93121825  0.66369496  1
  Zn  Zn89  1  0.07938057  0.32190537  0.07154469  1
  Zn  Zn90  1  0.71556895  0.17211727  0.71666842  1
  Zn  Zn91  1  0.55447419  0.83639539  0.01187906  1
  Zn  Zn92  1  0.24373873  0.96307021  0.48580208  1
  Zn  Zn93  1  0.10849050  0.01523299  0.37580800  1
  Zn  Zn94  1  0.43454633  0.71513996  0.96421573  1
  Zn  Zn95  1  0.47289513  0.29814138  0.20320615  1
  Zn  Zn96  1  0.27623717  0.66608058  0.11331591  1
  Zn  Zn97  1  0.49699541  0.47058289  0.17425081  1
  Zn  Zn98  1  0.60297173  0.96484600  0.86846646  1
  Zn  Zn99  1  0.91524785  0.32222146  0.77509168  1
  Zn  Zn100  1  0.82262120  0.80932513  0.81594347  1
  Zn  Zn101  1  0.44290225  0.69223429  0.38035402  1
  O  O102  1  0.09942791  0.11513262  0.14511477  1
  O  O103  1  0.14699580  0.12067046  0.61645073  1
  O  O104  1  0.05709874  0.61439083  0.12754211  1
  O  O105  1  0.10575155  0.58522380  0.61260294  1
  O  O106  1  0.62980283  0.07692432  0.09556198  1
  O  O107  1  0.63728396  0.09669852  0.67024167  1
  O  O108  1  0.61509783  0.64352543  0.13627351  1
  O  O109  1  0.63057167  0.60619060  0.61987792  1
  O  O110  1  0.32924735  0.40427135  0.39455053  1
  O  O111  1  0.47840685  0.47105548  0.88828237  1
  O  O112  1  0.36265565  0.88217081  0.40548997  1
  O  O113  1  0.39023001  0.93349708  0.88032372  1
  O  O114  1  0.85136957  0.39571299  0.42681129  1
  O  O115  1  0.95514021  0.30618794  0.88589702  1
  O  O116  1  0.82832017  0.90061673  0.33090224  1
  O  O117  1  0.90473467  0.86458208  0.86178621  1
  O  O118  1  0.22896584  0.01377694  0.38724470  1
  O  O119  1  0.22153574  0.00045634  0.86294330  1
  O  O120  1  0.24301486  0.58211924  0.35567425  1
  O  O121  1  0.28254807  0.46254465  0.87744096  1
  O  O122  1  0.69858782  0.02671416  0.33139265  1
  O  O123  1  0.80595181  -0.02544973  0.85569056  1
  O  O124  1  0.76206423  0.51268944  0.35842081  1
  O  O125  1  0.74007618  0.52864618  0.91800593  1
  O  O126  1  0.32517083  0.53771719  0.07234226  1
  O  O127  1  0.27954865  0.38307533  0.72606381  1
  O  O128  1  0.23787172  0.99833339  0.15186193  1
  O  O129  1  0.24886150  0.99345207  0.59748136  1
  O  O130  1  0.70177822  0.51318053  0.08846476  1
  O  O131  1  0.73242516  0.43935993  0.67452891  1
  O  O132  1  0.74638976  0.94973689  0.07469240  1
  O  O133  1  0.76344171  0.98130184  0.64320778  1
  O  O134  1  -0.01060190  0.46332734  0.17478248  1
  O  O135  1  0.00964079  0.37255265  0.75072604  1
  O  O136  1  -0.00275702  0.85150127  0.26545135  1
  O  O137  1  -0.01443610  0.84295361  0.72331957  1
  O  O138  1  0.45057941  0.39808390  0.24318171  1
  O  O139  1  0.51434504  0.32151794  0.80801900  1
  O  O140  1  0.49106339  0.91587666  0.25882500  1
  O  O141  1  0.37475471  0.72941119  0.72744694  1
  O  O142  1  0.48256462  0.09008060  0.29863396  1
  O  O143  1  0.46940045  0.15500933  0.71648038  1
  O  O144  1  0.50521364  0.70826923  0.21275193  1
  O  O145  1  0.54035939  0.60416976  0.73406768  1
  O  O146  1  0.91572182  0.10401052  0.33617132  1
  O  O147  1  1.00730962  0.09244711  0.72557427  1
  O  O148  1  0.91002817  0.58149098  0.14227777  1
  O  O149  1  1.03091723  0.66849180  0.72350977  1
  O  O150  1  0.33047113  0.19952959  0.04354266  1
  O  O151  1  0.37166370  0.30060213  0.49742439  1
  O  O152  1  0.37400106  0.80075421  0.00736510  1
  O  O153  1  0.40708782  0.73632793  0.47452300  1
  O  O154  1  0.87233998  0.24680992  0.02923056  1
  O  O155  1  0.87962271  0.24531702  0.52933067  1
  O  O156  1  1.00406323  0.88326320  0.04204494  1
  O  O157  1  0.84208324  0.74892887  0.50071971  1
  O  O158  1  0.08863823  0.25525136  0.46694138  1
  O  O159  1  0.14387769  0.23256711  1.04636035  1
  O  O160  1  0.09783088  0.67324056  0.49385171  1
  O  O161  1  0.17433722  0.81845897  1.01086577  1
  O  O162  1  0.63745509  0.20578419  0.36345471  1
  O  O163  1  0.67350218  0.23806786  1.02642102  1
  O  O164  1  0.67230297  0.76907077  0.45718380  1
  O  O165  1  0.58134087  0.85449830  0.89835319  1
  O  O166  1  0.49988268  0.21895282  0.13515135  1
  O  O167  1  0.54859253  0.28347693  0.59765803  1
  O  O168  1  0.51576261  0.83703084  0.12375995  1
  O  O169  1  0.52464757  0.74226939  0.62176994  1
  O  O170  1  0.98358462  0.27038678  0.11478564  1
  O  O171  1  0.99711626  0.24130230  0.61902571  1
  O  O172  1  0.98554318  0.71977129  0.13694611  1
  O  O173  1  1.01760763  0.71163668  0.66830875  1
  O  O174  1  -0.06398164  0.34406567  0.32590329  1
  O  O175  1  0.00990575  0.25800989  0.89405495  1
  O  O176  1  -0.02093615  0.75967816  0.38914927  1
  O  O177  1  -0.00089741  0.74793183  0.84299739  1
  O  O178  1  0.55066064  0.27565349  0.29142118  1
  O  O179  1  0.46005336  0.29824137  0.95487957  1
  O  O180  1  0.54205892  0.74179379  0.37317840  1
  O  O181  1  0.48337283  0.73241446  0.86254230  1
  O  O182  1  0.24713661  0.14145513  0.48911884  1
  O  O183  1  0.20449959  0.13088638  0.97290587  1
  O  O184  1  0.16902618  0.53867472  0.49740468  1
  O  O185  1  0.26491320  0.68666116  1.00696898  1
  O  O186  1  0.76401118  0.13792596  0.50612483  1
  O  O187  1  0.76771807  0.13921700  1.02690270  1
  O  O188  1  0.73171850  0.64860506  0.52936316  1
  O  O189  1  0.72606347  0.66271131  0.98587667  1
  O  O190  1  0.25381623  0.34154838  0.05030931  1
  O  O191  1  0.26851227  0.41757246  0.56824458  1
  O  O192  1  0.28263565  0.90906791  -0.01347462  1
  O  O193  1  0.29847054  0.86684637  0.45740011  1
  O  O194  1  0.75937700  0.34141640  0.00734248  1
  O  O195  1  0.72295992  0.30046578  0.49386318  1
  O  O196  1  0.80743409  0.82392393  0.01504728  1
  O  O197  1  0.74120745  0.87060997  0.53271855  1
  O  O198  1  0.01629792  0.63768237  0.27965477  1
  O  O199  1  0.14529771  0.44254606  0.81081547  1
  O  O200  1  0.11438809  1.00051307  0.26042312  1
  O  O201  1  0.13555705  0.98298808  0.69923767  1
  O  O202  1  0.59879106  0.50059159  0.20981763  1
  O  O203  1  0.56031439  0.36766290  0.78273257  1
  O  O204  1  0.64734854  1.02349396  0.27909880  1
  O  O205  1  0.67472917  0.98636413  0.78827748  1
  O  O206  1  0.34785594  0.00231820  0.26542830  1
  O  O207  1  0.39063315  -0.02204407  0.71815176  1
  O  O208  1  0.36277364  0.46500836  0.38539434  1
  O  O209  1  0.38077228  0.50317570  0.76599322  1
  O  O210  1  0.86258899  -0.04871120  0.28981601  1
  O  O211  1  0.89207448  -0.00588096  0.73384556  1
  O  O212  1  0.82301599  0.47998731  0.22462593  1
  O  O213  1  0.88683034  0.49676693  0.70766759  1
  O  O214  1  0.13193819  0.36663294  0.36133255  1
  O  O215  1  -0.02668461  0.47023758  0.86480435  1
  O  O216  1  0.12062651  0.83885008  0.38823128  1
  O  O217  1  0.11156304  0.84829235  0.81356547  1
  O  O218  1  0.66858745  0.35017391  0.33793604  1
  O  O219  1  0.76184073  0.37830605  0.83199397  1
  O  O220  1  0.61927449  0.89006961  0.38022778  1
  O  O221  1  0.49588606  0.85670213  0.75007029  1
  O  O222  1  0.39385922  0.09829444  0.17167586  1
  O  O223  1  0.31216915  0.14907937  0.66894304  1
  O  O224  1  0.39757691  0.70115751  0.11345475  1
  O  O225  1  0.44553423  0.60014558  0.61259119  1
  O  O226  1  0.90578618  0.16560547  0.16037692  1
  O  O227  1  0.88353071  0.12379543  0.63648588  1
  O  O228  1  0.88429197  0.67563965  0.04416705  1
  O  O229  1  0.84806000  0.68087336  0.69321425  1
  O  O230  1  0.22804213  0.23790462  0.18399293  1
  O  O231  1  0.22144235  0.26787142  0.60861521  1
  O  O232  1  0.27411800  0.79344401  0.12975699  1
  O  O233  1  0.20375986  0.69021720  0.59241428  1
  O  O234  1  0.78519072  0.24982272  0.12609617  1
  O  O235  1  0.76444992  0.23067284  0.63577911  1
  O  O236  1  0.75240510  0.75388428  0.13285035  1
  O  O237  1  0.74589867  0.76907744  0.62885287  1
  O  O238  1  0.23116405  0.23980657  0.36115545  1
  O  O239  1  0.26149735  0.27142124  0.91979598  1
  O  O240  1  0.26252190  0.73789662  0.33138001  1
  O  O241  1  0.26373281  0.78974824  0.88323150  1
  O  O242  1  0.75383150  0.25940599  0.28288490  1
  O  O243  1  0.77848042  0.23062577  0.92191799  1
  O  O244  1  0.70910682  0.74239583  0.31307248  1
  O  O245  1  0.76226627  0.72983280  0.86850031  1
  O  O246  1  0.03248019  0.13281103  -0.00154979  1
  O  O247  1  0.00176357  0.10851495  0.48325020  1
  O  O248  1  0.01157918  0.68086815  -0.00572704  1
  O  O249  1  -0.01436562  0.62413520  0.50841263  1
  O  O250  1  0.49771644  0.11137899  0.00854895  1
  O  O251  1  0.47591801  0.16932283  0.45375026  1
  O  O252  1  0.52464751  0.71822856  0.03297093  1
  O  O253  1  0.55312703  0.62362141  0.50657380  1
  O  O254  1  0.55925241  0.33813986  0.44901314  1
  O  O255  1  0.43835644  0.35074075  0.99628654  1
  O  O256  1  0.47805330  0.87264723  0.52711933  1
  O  O257  1  0.48981615  0.93998519  1.00181957  1
  O  O258  1  0.93584409  0.27695649  0.34620395  1
  O  O259  1  1.01293376  0.39010325  1.02264449  1
  O  O260  1  1.04392770  0.82401357  0.51926584  1
  O  O261  1  1.02350977  0.86124734  0.97806921  1
  O  O262  1  0.46435779  0.44073867  0.50901789  1
  O  O263  1  0.60197850  0.37923997  0.92936501  1
  O  O264  1  0.52023187  1.01248388  0.43057882  1
  O  O265  1  0.52114243  1.02330716  0.81246118  1
  O  O266  1  0.92507062  0.50514444  0.33323570  1
  O  O267  1  1.01644645  0.52253613  0.84545405  1
  O  O268  1  1.01552809  0.95425436  0.41889648  1
  O  O269  1  1.00969543  0.95458470  0.84977745  1
  O  O270  1  -0.00734551  -0.00370073  0.16050298  1
  O  O271  1  0.02346957  -0.00595103  0.59901328  1
  O  O272  1  -0.01885602  0.54841811  0.02550413  1
  O  O273  1  -0.06500886  0.54782844  0.70754142  1
  O  O274  1  0.52757817  0.00430214  0.13135555  1
  O  O275  1  0.51546171  0.07068659  0.57838281  1
  O  O276  1  0.48209309  0.56893680  0.12088141  1
  O  O277  1  0.49988280  0.44435398  0.63246886  1
  O  O278  1  0.28134378  0.37597164  0.22221837  1
  O  O279  1  0.13291386  0.37902402  0.85789256  1
  O  O280  1  0.23314197  0.89820712  0.27365821  1
  O  O281  1  0.26126376  0.87009759  0.74827121  1
  O  O282  1  0.75542553  0.46676658  0.21321948  1
  O  O283  1  0.83184741  0.39007500  0.83485197  1
  O  O284  1  0.74266284  0.87142623  0.19934307  1
  O  O285  1  0.77540014  0.87321401  0.73876236  1
  O  O286  1  0.22650623  0.10136564  0.26884945  1
  O  O287  1  0.24018329  0.14822485  0.80338506  1
  O  O288  1  0.22937723  0.63194726  0.20454662  1
  O  O289  1  0.23172149  0.54272674  0.73609906  1
  O  O290  1  0.78309009  0.06374898  0.18631530  1
  O  O291  1  0.78700695  0.09195000  0.75426885  1
  O  O292  1  0.72195773  0.61150323  0.23950210  1
  O  O293  1  0.72293156  0.61771199  0.79282212  1
  O  O294  1  0.33650960  0.12594588  0.35759030  1
  O  O295  1  0.38037775  0.08648958  0.82899747  1
  O  O296  1  0.38404292  0.63650106  0.31053374  1
  O  O297  1  0.45910110  0.59769017  0.92062518  1
  O  O298  1  0.85450410  0.10426048  0.36949754  1
  O  O299  1  0.91716018  0.08814984  0.84897310  1
  O  O300  1  0.82451927  0.65294428  0.36929236  1
  O  O301  1  0.83833434  0.61260594  0.89221687  1
  O  O302  1  0.13386705  0.36735031  0.15564769  1
  O  O303  1  0.13772259  0.39939899  0.66065049  1
  O  O304  1  0.11709493  0.90276910  0.14388865  1
  O  O305  1  0.13986698  0.82747040  0.65266472  1
  O  O306  1  0.50744074  0.37081504  0.12214380  1
  O  O307  1  0.67596092  0.44290968  0.71520632  1
  O  O308  1  0.66885445  0.84112649  0.06320735  1
  O  O309  1  0.58956071  0.93747661  0.64175103  1
  O  O310  1  0.08367238  0.23930898  0.28762657  1
  O  O311  1  0.12975511  0.26246472  0.74746673  1
  O  O312  1  0.09158179  0.75132787  0.24735693  1
  O  O313  1  0.18563549  0.71556729  0.75231992  1
  O  O314  1  0.64474196  0.32275990  0.19704102  1
  O  O315  1  0.60092146  0.31362929  0.63246758  1
  O  O316  1  0.60264634  0.81018770  0.25165011  1
  O  O317  1  0.61287444  0.75253957  0.76956183  1
  O  O318  1  0.39815189  0.22851287  0.26193154  1
  O  O319  1  0.36822230  0.24786843  0.78504832  1
  O  O320  1  0.39504509  0.81076298  0.22421717  1
  O  O321  1  0.34195083  0.69787908  0.67505274  1
  O  O322  1  0.89803912  0.28124779  0.23215023  1
  O  O323  1  0.90264320  0.21015852  0.74894468  1
  O  O324  1  0.89286095  0.74530054  0.26131644  1
  O  O325  1  0.87759035  0.72146693  0.74352096  1
  O  O326  1  0.44334825  0.43794151  0.57757920  1
  O  O327  1  0.44133913  0.51511880  0.93173306  1
  O  O328  1  0.37814371  1.04272016  0.50368828  1
  O  O329  1  0.36679202  1.03435140  1.00858132  1
  O  O330  1  0.86503210  0.54715278  0.47933013  1
  O  O331  1  0.85404144  0.46182366  1.01237068  1
  O  O332  1  0.89326123  1.00151533  0.51519426  1
  O  O333  1  0.91207093  0.99170047  0.96864707  1
  O  O334  1  0.12448851  0.01692472  0.04701545  1
  O  O335  1  0.13267565  -0.01003127  0.51041988  1
  O  O336  1  0.16032889  0.48097807  0.01001447  1
  O  O337  1  0.02873215  0.49495057  0.55679804  1
  O  O338  1  0.61783032  0.00983655  -0.03318969  1
  O  O339  1  0.65824691  0.02124853  0.52355856  1
  O  O340  1  0.62091844  0.42320732  -0.01650849  1
  O  O341  1  0.65965543  0.49023408  0.50104220  1
  O  O342  1  0.34543516  0.49297326  0.12365887  1
  O  O343  1  0.39476149  0.27717933  0.55917755  1
  O  O344  1  0.37986886  0.91162304  0.10493811  1
  O  O345  1  0.34886614  0.83579842  0.59514027  1
  O  O346  1  0.88068403  0.36542438  0.12712213  1
  O  O347  1  0.87900536  0.33250501  0.66836532  1
  O  O348  1  0.85638907  0.87287436  0.13183504  1
  O  O349  1  0.87401152  0.86842884  0.61367572  1
  O  O350  1  0.13596187  0.12786903  0.38397217  1
  O  O351  1  0.09994119  0.10031761  0.85268870  1
  O  O352  1  0.06516395  0.53311058  0.42246694  1
  O  O353  1  0.15339855  0.53924540  0.96812872  1
  O  O354  1  0.65356858  0.18000813  0.22517465  1
  O  O355  1  0.64295141  0.18981060  0.79457451  1
  O  O356  1  0.66237183  0.61542716  0.40452787  1
  O  O357  1  0.63579072  0.62617560  0.88704122  1
