# generated using pymatgen
data_V51Zn51O256
_symmetry_space_group_name_H-M   'P 1'
_cell_length_a   17.65420630
_cell_length_b   18.21185683
_cell_length_c   17.61557599
_cell_angle_alpha   90.72951793
_cell_angle_beta   88.77439952
_cell_angle_gamma   88.93124936
_symmetry_Int_Tables_number   1
_chemical_formula_structural   V51Zn51O256
_chemical_formula_sum   'V51 Zn51 O256'
_cell_volume   5660.91810562
_cell_formula_units_Z   1
loop_
 _symmetry_equiv_pos_site_id
 _symmetry_equiv_pos_as_xyz
  1  'x, y, z'
loop_
 _atom_site_type_symbol
 _atom_site_label
 _atom_site_symmetry_multiplicity
 _atom_site_fract_x
 _atom_site_fract_y
 _atom_site_fract_z
 _atom_site_occupancy
  V  V0  1  0.39229521  0.22482895  0.23291297  1
  V  V1  1  0.08769697  0.02355145  0.16176271  1
  V  V2  1  0.36607752  0.76857588  0.11761764  1
  V  V3  1  -0.03848800  0.67826236  0.67465299  1
  V  V4  1  0.09135896  0.13991656  0.49319537  1
  V  V5  1  0.29508820  0.77536161  0.46356809  1
  V  V6  1  0.09713514  0.26954443  0.88300559  1
  V  V7  1  0.72887578  0.50335149  0.73165573  1
  V  V8  1  0.11963416  0.75957713  0.37974197  1
  V  V9  1  0.84203618  0.28763247  0.48178702  1
  V  V10  1  0.12096057  0.85847313  0.72996694  1
  V  V11  1  0.71496569  0.78468208  0.54703143  1
  V  V12  1  0.60571850  0.39550098  0.71295995  1
  V  V13  1  0.90188464  0.30294550  0.69155090  1
  V  V14  1  0.56792801  0.24265891  0.17231075  1
  V  V15  1  0.62240766  0.23033713  0.43043695  1
  V  V16  1  0.89131721  0.39689659  0.00339603  1
  V  V17  1  0.12691838  0.41502946  0.33697041  1
  V  V18  1  0.47354937  0.48917696  0.00111845  1
  V  V19  1  0.23035900  0.49950385  0.69530396  1
  V  V20  1  0.02436434  0.61784387  0.12039618  1
  V  V21  1  0.83315692  0.26199233  0.12065903  1
  V  V22  1  0.75856863  0.08636207  0.37504666  1
  V  V23  1  0.82578950  0.51345449  0.89804270  1
  V  V24  1  0.30355856  0.90271026  0.60041316  1
  V  V25  1  0.15773583  0.64715646  0.51713160  1
  V  V26  1  0.09584604  0.13256150  0.01043966  1
  V  V27  1  0.10816365  0.40062710  0.69086895  1
  V  V28  1  0.00688555  -0.02137440  0.52282566  1
  V  V29  1  0.62236184  0.21848671  0.81253672  1
  V  V30  1  0.64377654  0.73284972  0.84016353  1
  V  V31  1  -0.01456224  0.88442327  0.37691861  1
  V  V32  1  0.48111335  0.80905787  0.23244979  1
  V  V33  1  0.65170505  0.88765788  0.26069458  1
  V  V34  1  0.38063109  0.29298196  0.60977393  1
  V  V35  1  0.36843685  0.70440942  0.62185593  1
  V  V36  1  0.63026060  0.75910122  0.38315019  1
  V  V37  1  0.43748216  0.13238924  0.60034745  1
  V  V38  1  0.76746044  -0.02295863  0.72604364  1
  V  V39  1  0.41577207  0.59822933  0.25571926  1
  V  V40  1  0.68040363  0.69976147  0.02313023  1
  V  V41  1  0.48457905  0.71493056  0.77745581  1
  V  V42  1  0.25610657  0.50697534  0.25825562  1
  V  V43  1  0.26602228  0.63535138  0.36424288  1
  V  V44  1  0.75906459  0.22742621  -0.04982482  1
  V  V45  1  0.64052400  0.57445213  0.49690424  1
  V  V46  1  0.22626539  0.00798345  0.25998137  1
  V  V47  1  -0.00406681  -0.03895561  0.03186603  1
  V  V48  1  0.33489929  0.60828607  0.76554139  1
  V  V49  1  0.11953149  0.86463452  0.24716484  1
  V  V50  1  0.57134472  0.35605986  0.33986435  1
  Zn  Zn51  1  0.57269655  0.80728037  0.08440729  1
  Zn  Zn52  1  0.79706761  0.76990880  0.71568671  1
  Zn  Zn53  1  0.65911295  0.38022676  0.52007281  1
  Zn  Zn54  1  0.08727239  0.59267039  0.31059862  1
  Zn  Zn55  1  0.28631357  0.79821204  0.76043117  1
  Zn  Zn56  1  0.01687171  0.32184901  0.55230156  1
  Zn  Zn57  1  0.09457071  0.03001863  0.36315085  1
  Zn  Zn58  1  0.00435372  0.43648756  0.85861183  1
  Zn  Zn59  1  0.76736976  0.30013289  0.31294938  1
  Zn  Zn60  1  0.80812587  -0.04527372  0.51442386  1
  Zn  Zn61  1  0.42439641  0.44625443  0.71155458  1
  Zn  Zn62  1  0.23153007  0.13428800  0.15785199  1
  Zn  Zn63  1  0.46276459  0.70289896  0.38873786  1
  Zn  Zn64  1  0.16223321  0.68607764  0.71370373  1
  Zn  Zn65  1  0.18782226  0.92595433  0.44305300  1
  Zn  Zn66  1  0.66630959  0.65672582  0.67092985  1
  Zn  Zn67  1  0.60542198  0.91240617  0.81689290  1
  Zn  Zn68  1  0.56967902  0.25783029  0.62680391  1
  Zn  Zn69  1  0.37987860  0.92995350  0.17957459  1
  Zn  Zn70  1  0.74589130  0.15060714  0.19021470  1
  Zn  Zn71  1  0.21990636  0.24171779  0.73197717  1
  Zn  Zn72  1  0.13281620  0.98819011  0.90848972  1
  Zn  Zn73  1  0.19260392  0.69265859  0.19421650  1
  Zn  Zn74  1  0.88238269  0.49524325  0.68833795  1
  Zn  Zn75  1  0.27975677  0.80339229  0.26838958  1
  Zn  Zn76  1  -0.01313118  0.77660113  0.00863415  1
  Zn  Zn77  1  0.06975998  0.81983122  0.54916142  1
  Zn  Zn78  1  0.08738221  0.21280598  0.64982898  1
  Zn  Zn79  1  0.53186204  0.29265145  -0.02063403  1
  Zn  Zn80  1  0.42874679  0.21695563  0.43217450  1
  Zn  Zn81  1  0.16564520  0.45539731  0.52979380  1
  Zn  Zn82  1  0.97169526  0.86488286  0.16970644  1
  Zn  Zn83  1  0.57047545  0.04670088  0.71775949  1
  Zn  Zn84  1  0.90319506  0.10914222  0.48476077  1
  Zn  Zn85  1  0.46128696  0.89199961  0.70006976  1
  Zn  Zn86  1  0.59436242  0.54196599  0.30443965  1
  Zn  Zn87  1  0.77625615  0.17711679  0.70469007  1
  Zn  Zn88  1  0.55352760  0.73014400  0.55633118  1
  Zn  Zn89  1  0.38822768  0.39782495  0.28249653  1
  Zn  Zn90  1  -0.00273789  0.26082002  0.03793258  1
  Zn  Zn91  1  0.64407249  0.71405349  0.20201750  1
  Zn  Zn92  1  0.04500025  0.55846536  0.74212101  1
  Zn  Zn93  1  0.82514235  0.58185889  0.06326087  1
  Zn  Zn94  1  0.98061478  0.61540575  0.90909125  1
  Zn  Zn95  1  0.98021308  0.68809494  0.47171491  1
  Zn  Zn96  1  0.91923004  0.24368466  0.87809947  1
  Zn  Zn97  1  0.23817259  0.09524319  0.61544093  1
  Zn  Zn98  1  0.76771108  0.32891982  0.80568927  1
  Zn  Zn99  1  0.34231123  0.56116281  0.09840244  1
  Zn  Zn100  1  0.80067374  0.92003561  0.34311270  1
  Zn  Zn101  1  0.88950701  0.11741716  0.02351674  1
  O  O102  1  0.06206634  0.10412092  0.19556377  1
  O  O103  1  0.17330018  0.15733384  0.68083678  1
  O  O104  1  0.11965682  0.65055920  0.12710826  1
  O  O105  1  0.18159933  0.67483095  0.60524601  1
  O  O106  1  0.68454586  0.03044880  0.10240938  1
  O  O107  1  0.73797120  0.13360912  0.59821667  1
  O  O108  1  0.62879460  0.67122808  0.10412230  1
  O  O109  1  0.61645600  0.63842878  0.57523736  1
  O  O110  1  0.47425073  0.37160487  0.34379649  1
  O  O111  1  0.23135910  0.43439384  0.90422320  1
  O  O112  1  0.48752531  0.96423200  0.39751542  1
  O  O113  1  0.40231661  0.93769184  0.90462701  1
  O  O114  1  0.97614670  0.48349087  0.48576349  1
  O  O115  1  0.89911879  0.43052827  0.89978146  1
  O  O116  1  0.88950759  0.87036256  0.37621754  1
  O  O117  1  0.83419072  0.77940776  1.16010890  1
  O  O118  1  0.20858759  -0.00686004  0.35960925  1
  O  O119  1  0.23465258  -0.02443536  0.96258568  1
  O  O120  1  0.27383087  0.54575382  0.37630728  1
  O  O121  1  0.17911258  0.69634236  0.91576863  1
  O  O122  1  0.75940899  -0.00720408  0.41604756  1
  O  O123  1  0.70724843  -0.03937418  0.80958479  1
  O  O124  1  0.83183865  0.46140314  0.39019170  1
  O  O125  1  0.73270964  0.52345668  0.90530350  1
  O  O126  1  0.26431981  0.51169754  0.16181447  1
  O  O127  1  0.25184226  0.47002337  0.60601120  1
  O  O128  1  0.19104687  1.01577582  0.15350208  1
  O  O129  1  0.26667111  0.98840223  0.59407125  1
  O  O130  1  0.78333035  0.54232155  0.16313767  1
  O  O131  1  0.77494356  0.50413133  0.64674895  1
  O  O132  1  0.75998668  0.98685669  -0.02428406  1
  O  O133  1  0.80078702  0.98108195  0.63101550  1
  O  O134  1  0.03500800  0.42450132  0.34152388  1
  O  O135  1  0.02767195  0.41666778  0.74320594  1
  O  O136  1  0.01115091  0.85881163  0.27717703  1
  O  O137  1  0.03367806  0.84350560  0.75440337  1
  O  O138  1  0.57331523  0.31588597  0.23882305  1
  O  O139  1  0.51684939  0.41117010  0.75413180  1
  O  O140  1  0.47561694  0.90312333  0.23150652  1
  O  O141  1  0.44201493  0.80046690  0.75499275  1
  O  O142  1  0.48498824  0.19224962  0.19786161  1
  O  O143  1  0.66751448  0.12534528  0.60684831  1
  O  O144  1  0.51321303  0.59404418  0.25815462  1
  O  O145  1  0.43800308  0.62943012  0.75289878  1
  O  O146  1  0.89845697  0.07030480  0.22765501  1
  O  O147  1  0.98833209  0.04153922  0.74351297  1
  O  O148  1  1.02239924  0.62817708  0.22281129  1
  O  O149  1  1.04975105  0.66990222  0.72091752  1
  O  O150  1  0.41969445  0.26948167  -0.03983706  1
  O  O151  1  0.37228888  0.27649814  0.51333028  1
  O  O152  1  0.36075233  0.72848891  0.03497713  1
  O  O153  1  0.38559873  0.77470154  0.43463017  1
  O  O154  1  0.92885211  0.30681229  -0.03215308  1
  O  O155  1  0.92245843  0.33689285  0.50698838  1
  O  O156  1  0.78659807  0.73416054  0.18841029  1
  O  O157  1  0.92715510  0.71355272  0.57227822  1
  O  O158  1  0.07849411  0.22997622  0.53152631  1
  O  O159  1  0.09788170  0.23913927  0.98247059  1
  O  O160  1  0.14208287  0.75914706  0.48067201  1
  O  O161  1  0.00328247  0.71292088  0.93030144  1
  O  O162  1  0.61342392  0.22770249  0.52961616  1
  O  O163  1  0.68036759  0.18556541  0.91534818  1
  O  O164  1  0.55333326  0.74180113  0.44600352  1
  O  O165  1  0.66825461  0.79444959  1.03108733  1
  O  O166  1  0.55921075  0.27300181  0.08063808  1
  O  O167  1  0.46053568  0.22812755  0.63420403  1
  O  O168  1  0.47964464  0.77024872  0.13408276  1
  O  O169  1  0.46399933  0.72635140  0.61626852  1
  O  O170  1  0.93013439  0.26226902  0.12776361  1
  O  O171  1  0.98787791  0.26285597  0.65674134  1
  O  O172  1  0.99724852  0.71301598  0.10153676  1
  O  O173  1  0.98710805  0.75728063  0.60836897  1
  O  O174  1  -0.00053895  0.27892099  0.26936268  1
  O  O175  1  0.02359251  0.22414451  0.84125452  1
  O  O176  1  0.02152043  0.74705079  0.38844676  1
  O  O177  1  -0.16180986  0.82309854  0.89327405  1
  O  O178  1  0.53867136  0.20495579  0.39547697  1
  O  O179  1  0.56598118  0.26514295  0.88038623  1
  O  O180  1  0.45765638  0.94805287  0.45844773  1
  O  O181  1  0.48789780  0.71462368  0.86979023  1
  O  O182  1  0.17735642  0.11004092  0.52301877  1
  O  O183  1  0.16835829  0.14786752  1.07269002  1
  O  O184  1  0.26746177  0.67460327  0.46490406  1
  O  O185  1  0.26094000  0.60976811  1.03161591  1
  O  O186  1  0.85472550  0.19846056  0.51508435  1
  O  O187  1  0.62352305  0.00167092  1.09012448  1
  O  O188  1  0.72427898  0.58929504  0.46090519  1
  O  O189  1  0.77202374  0.66910303  1.03200139  1
  O  O190  1  0.21421489  0.40575466  -0.03545439  1
  O  O191  1  0.23342433  0.25042499  0.43191653  1
  O  O192  1  0.28444779  0.83505599  -0.07012745  1
  O  O193  1  0.26660673  0.87206617  0.49510571  1
  O  O194  1  0.69166342  0.44208169  0.06600314  1
  O  O195  1  0.75511157  0.32871036  0.50899838  1
  O  O196  1  0.73476733  0.92454541  -0.02114846  1
  O  O197  1  0.70445801  0.74783957  0.44961683  1
  O  O198  1  0.15114644  0.50391490  0.28431097  1
  O  O199  1  0.12655683  0.51253438  0.67878837  1
  O  O200  1  0.10449354  0.97400593  0.25750399  1
  O  O201  1  0.13424576  0.96429272  0.74172159  1
  O  O202  1  0.70123238  0.53514946  0.25973310  1
  O  O203  1  0.62814699  0.48677037  0.69136949  1
  O  O204  1  0.61862856  0.97060649  0.25382013  1
  O  O205  1  0.67086563  0.99340379  0.68884833  1
  O  O206  1  0.32252369  -0.00409019  0.23914138  1
  O  O207  1  0.43359685  -0.00290047  0.90942270  1
  O  O208  1  0.37859226  0.51029836  0.26180841  1
  O  O209  1  0.33845703  0.50837235  0.73729786  1
  O  O210  1  0.88884306  0.00652934  0.24609412  1
  O  O211  1  0.84859502  -0.02795458  0.77836274  1
  O  O212  1  0.85172603  0.43807683  0.32452684  1
  O  O213  1  0.81938086  0.49387597  0.78765897  1
  O  O214  1  0.15774525  0.41602220  0.42841259  1
  O  O215  1  0.07634503  0.36187893  0.88866839  1
  O  O216  1  0.11361919  0.86036088  0.37488544  1
  O  O217  1  0.15952383  0.93339394  0.80930537  1
  O  O218  1  0.66536980  0.28072675  0.34713315  1
  O  O219  1  0.59789213  0.27752588  0.73280144  1
  O  O220  1  0.63426115  0.85335075  0.35851712  1
  O  O221  1  0.61520242  0.82030255  0.86329168  1
  O  O222  1  0.32388371  0.17975260  0.18243483  1
  O  O223  1  0.34703069  0.11487112  0.62988580  1
  O  O224  1  0.38791442  0.63112317  0.16899618  1
  O  O225  1  0.35742001  0.62241166  0.58681094  1
  O  O226  1  0.83182214  0.15427259  0.11394206  1
  O  O227  1  0.96039302  0.09729106  0.71566302  1
  O  O228  1  0.92503561  0.60249188  0.12162613  1
  O  O229  1  0.89443147  0.72185892  0.72931669  1
  O  O230  1  0.37361162  0.27648227  0.02325509  1
  O  O231  1  0.30462662  0.27402901  0.66820968  1
  O  O232  1  0.27532258  0.75037109  0.16441891  1
  O  O233  1  0.31312818  0.77043997  0.57102961  1
  O  O234  1  0.75046814  0.24157370  0.04806918  1
  O  O235  1  0.82768905  0.25385473  0.65541403  1
  O  O236  1  0.83223141  0.64338332  0.29601882  1
  O  O237  1  0.74456366  0.72989196  0.62619743  1
  O  O238  1  0.23916726  0.20119522  0.38456571  1
  O  O239  1  0.18276257  0.25177756  0.83627938  1
  O  O240  1  0.24917340  0.77234027  0.36989984  1
  O  O241  1  0.32574215  0.80887596  0.87764528  1
  O  O242  1  0.84527173  0.28317045  0.38353274  1
  O  O243  1  0.76958411  0.31459989  0.91446737  1
  O  O244  1  0.65963001  0.70194083  0.30765377  1
  O  O245  1  0.73150703  0.74120124  0.80204747  1
  O  O246  1  -0.00354919  0.15050862  0.02718347  1
  O  O247  1  0.00902696  0.09112525  0.52762754  1
  O  O248  1  0.03666523  0.60313550  0.02007901  1
  O  O249  1  0.05982526  0.63835322  0.52177451  1
  O  O250  1  0.61399546  0.04163301  -0.06847367  1
  O  O251  1  0.44451912  0.13291735  0.50355405  1
  O  O252  1  0.43327418  0.58091944  0.01880729  1
  O  O253  1  0.50234252  0.60262463  0.42829500  1
  O  O254  1  0.58533485  0.33674670  0.44229694  1
  O  O255  1  0.51887877  0.40243870  0.97709754  1
  O  O256  1  0.60885623  0.95762212  0.51726067  1
  O  O257  1  0.51870752  0.90331635  1.02683273  1
  O  O258  1  1.01513760  0.25485784  0.33143324  1
  O  O259  1  0.96728257  0.42116131  1.04750527  1
  O  O260  1  0.99990005  0.87688046  0.48444989  1
  O  O261  1  0.96141231  0.86610626  1.05419594  1
  O  O262  1  0.60899560  0.43981650  0.32768980  1
  O  O263  1  0.42850579  0.47061643  0.91504518  1
  O  O264  1  0.38029645  1.05647348  0.36626369  1
  O  O265  1  0.53181344  0.95156272  0.75271246  1
  O  O266  1  0.98524005  0.56529008  0.36407030  1
  O  O267  1  1.02664516  0.54057603  0.84746817  1
  O  O268  1  0.99218113  0.97697532  0.37326530  1
  O  O269  1  1.04756421  0.93710587  0.95036266  1
  O  O270  1  0.00182370  -0.03281908  0.14246003  1
  O  O271  1  0.01738550  -0.03985741  0.61166406  1
  O  O272  1  0.04920437  0.52597192  0.12702295  1
  O  O273  1  -0.05573004  0.58088988  0.67468298  1
  O  O274  1  0.48380160  -0.04384257  0.05862856  1
  O  O275  1  0.50598006  0.07541268  0.63678459  1
  O  O276  1  0.50156829  0.46376692  0.09342562  1
  O  O277  1  0.48804971  0.53201332  0.63033239  1
  O  O278  1  0.27468046  0.41890360  0.28641440  1
  O  O279  1  0.20221958  0.42000428  0.74344905  1
  O  O280  1  0.21768599  0.88906357  0.24856966  1
  O  O281  1  0.27560078  0.87720363  0.69047553  1
  O  O282  1  0.79832152  0.40818639  0.28119838  1
  O  O283  1  0.69932485  0.40078394  0.76409786  1
  O  O284  1  0.74959161  0.89028212  0.25457381  1
  O  O285  1  0.77267922  0.87891115  0.71172136  1
  O  O286  1  0.21354620  0.10132337  0.26490920  1
  O  O287  1  0.35577861  0.11492716  0.82921644  1
  O  O288  1  0.24307639  0.62223887  0.26337288  1
  O  O289  1  0.23098016  0.59682524  0.73395885  1
  O  O290  1  0.74662432  0.08690828  0.27857398  1
  O  O291  1  0.77390641  0.07395068  0.73767067  1
  O  O292  1  0.71857715  0.56874891  0.19433887  1
  O  O293  1  0.70318891  0.59420348  0.74970735  1
  O  O294  1  0.38664240  0.21421665  0.33050171  1
  O  O295  1  0.27265120  0.04064498  0.95831515  1
  O  O296  1  0.37246076  0.65199774  0.33528835  1
  O  O297  1  0.32129313  0.61895925  0.85601640  1
  O  O298  1  0.84918076  0.11111680  0.38665781  1
  O  O299  1  0.84777031  0.17421690  0.93361481  1
  O  O300  1  0.93860000  0.61061560  0.39811588  1
  O  O301  1  0.87109062  0.59609697  0.90734446  1
  O  O302  1  0.13308055  0.34175433  0.24905832  1
  O  O303  1  0.08750584  0.39957134  0.58929808  1
  O  O304  1  0.10087254  0.85033659  0.15600332  1
  O  O305  1  0.12919614  0.84758440  0.63114499  1
  O  O306  1  0.66435055  0.41710705  0.12473044  1
  O  O307  1  0.60160292  0.36294234  0.61794259  1
  O  O308  1  0.60887238  0.82188736  0.19370531  1
  O  O309  1  0.62596859  0.81282981  0.57308738  1
  O  O310  1  0.15000569  0.30985165  0.31409280  1
  O  O311  1  0.13094113  0.30802441  0.69625763  1
  O  O312  1  0.13803885  0.76175143  0.27143441  1
  O  O313  1  0.17739859  0.77853253  0.76784862  1
  O  O314  1  0.64254074  0.18269954  0.17676095  1
  O  O315  1  0.72413807  0.22809668  0.78546502  1
  O  O316  1  0.52118494  0.76118160  0.30787933  1
  O  O317  1  0.58862553  0.70719027  0.75344162  1
  O  O318  1  0.38900855  0.31635434  0.21169225  1
  O  O319  1  0.39584463  0.14667236  0.87476996  1
  O  O320  1  0.38678877  0.78822368  0.24700304  1
  O  O321  1  0.32211143  0.70419815  0.71771884  1
  O  O322  1  0.78836024  0.26293720  0.21000761  1
  O  O323  1  0.88014323  0.29898134  0.79054798  1
  O  O324  1  0.84337841  0.57703347  0.29494817  1
  O  O325  1  0.90578246  0.82568367  0.87460159  1
  O  O326  1  0.47933123  0.52789146  0.56141489  1
  O  O327  1  0.37752670  0.46812360  1.04611587  1
  O  O328  1  0.34030074  1.04351696  0.42172184  1
  O  O329  1  0.32195873  1.05200549  1.00853013  1
  O  O330  1  0.92271719  0.52023552  0.51143360  1
  O  O331  1  0.83286407  0.48881450  1.00805538  1
  O  O332  1  0.90349423  1.00211437  0.50948832  1
  O  O333  1  0.91857261  1.01295143  1.01057686  1
  O  O334  1  0.07793643  0.03307526  0.05331385  1
  O  O335  1  0.10071145  -0.01409271  0.47868751  1
  O  O336  1  0.22773029  0.56614834  -0.01174789  1
  O  O337  1  0.18230889  0.55723034  0.50670727  1
  O  O338  1  0.59376727  -0.02307309  -0.07584038  1
  O  O339  1  0.60316038  0.02124466  0.49559884  1
  O  O340  1  0.55068417  0.53977441  -0.02301730  1
  O  O341  1  0.63477871  0.48436540  0.51889545  1
  O  O342  1  0.30460974  0.29248988  0.01256439  1
  O  O343  1  0.41069801  0.37991396  0.62748662  1
  O  O344  1  0.35880122  0.86276725  0.10050342  1
  O  O345  1  0.40058647  0.90819202  0.61161755  1
  O  O346  1  0.83026551  0.35313037  0.07765055  1
  O  O347  1  0.89609396  0.39261675  0.66387089  1
  O  O348  1  0.88672384  0.80403558  0.21048808  1
  O  O349  1  0.77160318  0.85787905  0.53418990  1
  O  O350  1  0.08788360  0.13278195  0.39562683  1
  O  O351  1  0.12225758  0.09488284  0.92373433  1
  O  O352  1  0.15110839  0.65414765  0.37731556  1
  O  O353  1  0.18975996  0.73293634  0.97328361  1
  O  O354  1  0.69390463  0.15024524  0.41981917  1
  O  O355  1  0.59100863  0.13411247  0.78308762  1
  O  O356  1  0.58078645  0.59333021  0.40845141  1
  O  O357  1  0.64607156  0.68095392  0.92718945  1
