# generated using pymatgen
data_V51Zn51O256
_symmetry_space_group_name_H-M   'P 1'
_cell_length_a   17.63962600
_cell_length_b   17.53051475
_cell_length_c   17.89619896
_cell_angle_alpha   89.00699956
_cell_angle_beta   88.78350316
_cell_angle_gamma   92.30322012
_symmetry_Int_Tables_number   1
_chemical_formula_structural   V51Zn51O256
_chemical_formula_sum   'V51 Zn51 O256'
_cell_volume   5527.43947000
_cell_formula_units_Z   1
loop_
 _symmetry_equiv_pos_site_id
 _symmetry_equiv_pos_as_xyz
  1  'x, y, z'
loop_
 _atom_site_type_symbol
 _atom_site_label
 _atom_site_symmetry_multiplicity
 _atom_site_fract_x
 _atom_site_fract_y
 _atom_site_fract_z
 _atom_site_occupancy
  V  V0  1  0.38737972  0.86670377  -0.00065944  1
  V  V1  1  0.38302823  0.36457650  0.00466106  1
  V  V2  1  0.89649126  -0.00580885  0.36162600  1
  V  V3  1  0.88746520  0.78930664  0.63298727  1
  V  V4  1  0.48941457  0.51287956  0.46768835  1
  V  V5  1  0.60128267  0.52194295  0.11348679  1
  V  V6  1  0.64799169  0.86278302  0.17969082  1
  V  V7  1  0.57465293  0.76394772  0.29048092  1
  V  V8  1  0.15230047  0.33749334  0.75252705  1
  V  V9  1  0.84498275  0.44941418  0.01975111  1
  V  V10  1  0.48975639  0.14033244  0.10943604  1
  V  V11  1  0.11962921  0.76142303  0.91202884  1
  V  V12  1  0.85421062  0.55733489  0.87502532  1
  V  V13  1  0.02114884  0.12897242  0.14743212  1
  V  V14  1  0.02737747  0.56630217  0.65509773  1
  V  V15  1  0.34301224  0.60323001  0.24109394  1
  V  V16  1  -0.05386472  0.16659302  0.58395817  1
  V  V17  1  0.71594661  0.01138535  0.66405466  1
  V  V18  1  0.48212031  0.64313256  0.11773325  1
  V  V19  1  0.12948729  0.85315377  0.25974869  1
  V  V20  1  0.76143925  -0.01616258  0.23236405  1
  V  V21  1  0.20333823  0.11800985  0.02222205  1
  V  V22  1  0.61862017  0.65976550  0.50575645  1
  V  V23  1  0.73656415  0.63843817  0.34017412  1
  V  V24  1  -0.00550760  0.34046524  0.35029123  1
  V  V25  1  0.66484633  0.86511645  0.75988813  1
  V  V26  1  0.01531635  0.91725974  0.89475677  1
  V  V27  1  0.37460705  -0.01407398  0.86069050  1
  V  V28  1  0.34879836  0.73904456  0.13203024  1
  V  V29  1  -0.01077915  -0.01516967  0.04780401  1
  V  V30  1  0.76575123  0.48318649  0.32297656  1
  V  V31  1  0.29250135  -0.05307999  0.26788273  1
  V  V32  1  0.35961139  0.37544652  0.44688698  1
  V  V33  1  -0.00961785  0.72117416  0.25274885  1
  V  V34  1  0.38509913  0.65791291  0.55828347  1
  V  V35  1  0.16357543  0.46596710  0.60032546  1
  V  V36  1  0.82389568  0.16294215  0.91210041  1
  V  V37  1  0.49919628  -0.00157794  -0.00213352  1
  V  V38  1  0.23429591  0.86799488  0.11448511  1
  V  V39  1  0.58904460  0.37885934  0.21207816  1
  V  V40  1  0.42160726  0.20286892  0.60879404  1
  V  V41  1  0.47778937  0.52946036  -0.01776387  1
  V  V42  1  0.22540091  0.60811544  0.85545071  1
  V  V43  1  0.40022762  0.11936196  0.25282593  1
  V  V44  1  0.63298400  0.29902110  0.89789691  1
  V  V45  1  0.58733264  0.53883836  0.63329562  1
  V  V46  1  0.88578725  0.75487561  0.11542883  1
  V  V47  1  0.26991340  0.12063406  0.84879141  1
  V  V48  1  0.48884738  0.37645068  0.85626786  1
  V  V49  1  0.13201666  0.23801382  0.91328553  1
  V  V50  1  0.11619139  0.48670265  0.12880944  1
  Zn  Zn51  1  0.52565511  0.04897888  0.59152368  1
  Zn  Zn52  1  0.97971622  0.12115005  0.95113241  1
  Zn  Zn53  1  0.33371859  0.03541451  0.08336578  1
  Zn  Zn54  1  0.09282119  0.28111617  0.57479289  1
  Zn  Zn55  1  0.03491645  0.62507282  0.83684380  1
  Zn  Zn56  1  0.45631347  0.89181069  0.16844555  1
  Zn  Zn57  1  0.68109995  0.48498637  0.96465943  1
  Zn  Zn58  1  0.39379886  0.16743400  0.95080692  1
  Zn  Zn59  1  0.23372917  0.40395891  0.88914970  1
  Zn  Zn60  1  0.79678453  0.78338746  0.26503448  1
  Zn  Zn61  1  0.37834777  0.19164767  0.41897942  1
  Zn  Zn62  1  0.85638533  0.08707067  0.09049008  1
  Zn  Zn63  1  0.97464562  0.92808503  0.70863560  1
  Zn  Zn64  1  0.35144276  0.47540065  0.57748259  1
  Zn  Zn65  1  0.49538158  0.54425820  0.78827352  1
  Zn  Zn66  1  0.42299991  0.45018449  0.16320607  1
  Zn  Zn67  1  0.44104712  0.66980588  0.39092949  1
  Zn  Zn68  1  0.05799040  0.80770820  0.07466486  1
  Zn  Zn69  1  0.15660559  0.36218221  0.44256970  1
  Zn  Zn70  1  0.06268668  0.00347015  0.28807937  1
  Zn  Zn71  1  0.31171292  0.77944746  0.88020670  1
  Zn  Zn72  1  0.93710906  0.90904874  0.20116200  1
  Zn  Zn73  1  0.57973050  0.03263808  0.16556192  1
  Zn  Zn74  1  0.19924653  0.89088487  0.42666047  1
  Zn  Zn75  1  0.92850256  0.74771365  0.91783703  1
  Zn  Zn76  1  0.79025460  0.31836655  0.39323677  1
  Zn  Zn77  1  0.68886534  0.79066496  0.42194927  1
  Zn  Zn78  1  0.33400019  0.28383566  0.77143911  1
  Zn  Zn79  1  1.00593952  0.46046388  0.79751748  1
  Zn  Zn80  1  0.64664847  0.12129006  0.99935823  1
  Zn  Zn81  1  0.13441632  0.27913260  0.09718590  1
  Zn  Zn82  1  0.18255855  0.04250185  0.18706971  1
  Zn  Zn83  1  0.78339291  0.61382202  0.02803231  1
  Zn  Zn84  1  0.80964455  0.35271764  0.87105313  1
  Zn  Zn85  1  0.72362284  0.57587077  0.74426466  1
  Zn  Zn86  1  0.69275206  0.67522646  0.15075302  1
  Zn  Zn87  1  -0.03763069  0.10369066  0.76852369  1
  Zn  Zn88  1  0.19912560  0.65578891  0.65673582  1
  Zn  Zn89  1  0.76079867  0.24646415  0.75282230  1
  Zn  Zn90  1  0.57690747  0.57045550  0.30319325  1
  Zn  Zn91  1  0.05270502  0.53372449  0.29463431  1
  Zn  Zn92  1  0.42715980  0.30559159  0.28148335  1
  Zn  Zn93  1  0.37461806  0.65950297  0.95340502  1
  Zn  Zn94  1  0.91196215  0.42361596  0.19060257  1
  Zn  Zn95  1  0.14301375  0.16927538  0.72491823  1
  Zn  Zn96  1  0.30053655  0.55199946  0.05124914  1
  Zn  Zn97  1  0.49767041  0.36726100  0.56934802  1
  Zn  Zn98  1  0.08779463  0.82275242  0.58803037  1
  Zn  Zn99  1  0.52652774  0.77548262  0.54049625  1
  Zn  Zn100  1  0.19563871  0.94588722  0.93903789  1
  Zn  Zn101  1  0.17986309  0.68801130  0.18943796  1
  O  O102  1  0.20234454  0.12362173  0.11925577  1
  O  O103  1  0.05344076  0.17257235  0.59297037  1
  O  O104  1  0.12121122  0.58979561  0.13999808  1
  O  O105  1  0.12520677  0.55947732  0.61364498  1
  O  O106  1  0.59296740  0.12192280  0.09811264  1
  O  O107  1  0.71564392  0.10439909  0.68307850  1
  O  O108  1  0.57961597  0.65030637  0.11729855  1
  O  O109  1  0.63515437  0.63861185  0.59967669  1
  O  O110  1  0.40312559  0.30331591  0.38827051  1
  O  O111  1  0.40605517  0.36039434  0.81240047  1
  O  O112  1  0.43343522  0.94690297  0.41356884  1
  O  O113  1  0.35723866  0.88160287  0.89709347  1
  O  O114  1  0.89883858  0.31889779  0.37687325  1
  O  O115  1  0.85548435  0.44091083  0.91531090  1
  O  O116  1  0.72232958  0.91327143  0.43475271  1
  O  O117  1  0.93578527  0.85775705  0.89402922  1
  O  O118  1  0.27927296  -0.07050658  0.36333128  1
  O  O119  1  0.26622194  0.00487403  0.87091817  1
  O  O120  1  0.16744695  0.49157866  0.40659696  1
  O  O121  1  0.22554063  0.51041688  0.86229492  1
  O  O122  1  0.67309730  -0.03860972  0.44223069  1
  O  O123  1  0.91490539  0.12874797  0.85953803  1
  O  O124  1  0.68026442  0.53990351  0.33315662  1
  O  O125  1  0.75877457  0.56257495  0.92962512  1
  O  O126  1  0.21185570  0.49775827  0.09902614  1
  O  O127  1  0.24829911  0.48657600  0.55697171  1
  O  O128  1  0.26451914  0.96694100  0.14463272  1
  O  O129  1  0.33567387  1.00528791  0.57325626  1
  O  O130  1  0.69106229  0.56864047  0.09506499  1
  O  O131  1  0.66967949  0.51432873  0.67786780  1
  O  O132  1  0.78118988  1.04569839  0.15827765  1
  O  O133  1  0.80175868  1.00980634  0.70539351  1
  O  O134  1  -0.03261655  0.34257678  0.25291426  1
  O  O135  1  0.07735553  0.38172724  0.79376491  1
  O  O136  1  0.03699203  0.89138541  0.25311272  1
  O  O137  1  0.02996739  0.93845727  0.80187602  1
  O  O138  1  0.48638200  0.38443269  0.23031903  1
  O  O139  1  0.53936411  0.44492971  0.80699583  1
  O  O140  1  0.54723301  0.84773285  0.21357180  1
  O  O141  1  0.59534988  0.83399651  0.70033588  1
  O  O142  1  0.49990799  0.10641821  0.21815583  1
  O  O143  1  0.52642359  0.12859891  0.78275249  1
  O  O144  1  0.45461347  0.62152478  0.20899703  1
  O  O145  1  0.37495859  0.51935374  0.73764391  1
  O  O146  1  1.07911597  0.09236478  0.21903874  1
  O  O147  1  0.94081164  0.17385064  0.68829148  1
  O  O148  1  1.00822464  0.62590236  0.27453356  1
  O  O149  1  1.03604889  0.62954182  0.72847826  1
  O  O150  1  0.40472780  0.27355461  -0.02386474  1
  O  O151  1  0.37374585  0.19095099  0.52496755  1
  O  O152  1  0.36042020  0.76653640  -0.01451343  1
  O  O153  1  0.42340153  0.87738683  0.41669989  1
  O  O154  1  0.99885578  0.32339319  0.01990998  1
  O  O155  1  0.73476187  0.25274835  0.46250924  1
  O  O156  1  0.91975039  0.74545405  0.02539652  1
  O  O157  1  0.84244104  0.78238669  0.54912343  1
  O  O158  1  0.12773253  0.26005784  0.47604858  1
  O  O159  1  0.16613160  0.21854352  1.01524026  1
  O  O160  1  0.13236431  0.73349527  0.62312538  1
  O  O161  1  0.11924475  0.74778394  1.00607349  1
  O  O162  1  0.68470376  0.34703689  0.57578884  1
  O  O163  1  0.63135445  0.22473501  0.95923461  1
  O  O164  1  0.52727120  0.68523460  0.46920594  1
  O  O165  1  0.73610895  0.92426913  0.98218146  1
  O  O166  1  0.48438075  0.23173379  0.10595353  1
  O  O167  1  0.50115000  0.26316542  0.59417729  1
  O  O168  1  0.45447405  0.73935241  0.10949664  1
  O  O169  1  0.44590637  0.72578568  0.59903229  1
  O  O170  1  1.04911315  0.22402380  0.14003009  1
  O  O171  1  0.97826751  0.27111073  0.56772172  1
  O  O172  1  0.99168008  0.75393283  0.14626984  1
  O  O173  1  0.98014642  0.78612968  0.58174518  1
  O  O174  1  0.01370990  0.24477628  0.35340229  1
  O  O175  1  0.03877390  0.21532584  0.92530430  1
  O  O176  1  -0.01814183  0.76554716  0.33116656  1
  O  O177  1  0.03048758  0.73271750  0.87202225  1
  O  O178  1  0.59958475  0.20350399  0.34333345  1
  O  O179  1  0.54225259  0.29181494  0.85113093  1
  O  O180  1  0.48231452  0.74271796  0.31525199  1
  O  O181  1  0.49279018  0.74485169  0.84972036  1
  O  O182  1  0.20547992  0.12314271  0.54728978  1
  O  O183  1  0.30100682  0.11639421  1.00587112  1
  O  O184  1  0.19687622  0.67820965  0.45655025  1
  O  O185  1  0.26972421  0.61198352  0.96614463  1
  O  O186  1  0.67977961  0.13400263  0.46519340  1
  O  O187  1  0.87757689  0.13837426  0.99721962  1
  O  O188  1  0.69178882  0.63850050  0.44583027  1
  O  O189  1  0.72565440  0.73883679  0.92830194  1
  O  O190  1  0.29294625  0.37863963  -0.02564882  1
  O  O191  1  0.26422145  0.36542676  0.43441402  1
  O  O192  1  0.24379528  0.88159432  0.01913227  1
  O  O193  1  0.29545790  0.83652685  0.56563278  1
  O  O194  1  0.75126663  0.43483688  0.03679430  1
  O  O195  1  0.68016252  0.32997556  0.64352225  1
  O  O196  1  0.78881059  0.88130021  -0.01690375  1
  O  O197  1  0.63873033  0.76687231  0.51646522  1
  O  O198  1  0.13567832  0.48781034  0.23190742  1
  O  O199  1  0.17669343  0.42360772  0.68518449  1
  O  O200  1  0.16674300  0.96897555  0.26725651  1
  O  O201  1  0.06367465  1.09595872  0.73832776  1
  O  O202  1  0.58810381  0.52182042  0.20993949  1
  O  O203  1  0.52960344  0.58493195  0.69643396  1
  O  O204  1  0.65323198  0.96769440  0.20223878  1
  O  O205  1  0.65459192  0.98040207  0.74746381  1
  O  O206  1  0.38173144  -0.08091093  0.24791610  1
  O  O207  1  0.39030045  -0.02945320  0.77268788  1
  O  O208  1  0.34701934  0.50812716  0.21453795  1
  O  O209  1  0.36435966  0.46289766  0.69549514  1
  O  O210  1  0.86460332  -0.03884855  0.26761150  1
  O  O211  1  0.91656771  0.00903952  0.74040371  1
  O  O212  1  0.82703310  0.45301812  0.25342896  1
  O  O213  1  0.81705364  0.54422274  0.78878836  1
  O  O214  1  0.09707895  0.35253816  0.34039953  1
  O  O215  1  0.14645643  0.33411760  0.92575378  1
  O  O216  1  0.14014662  0.83729598  0.35180821  1
  O  O217  1  0.11003158  0.87114225  0.90781117  1
  O  O218  1  0.61891926  0.39246493  0.31377371  1
  O  O219  1  0.63702454  0.38530648  0.93854655  1
  O  O220  1  0.61133259  0.82565883  0.35449720  1
  O  O221  1  0.60475594  0.87712116  0.83026790  1
  O  O222  1  0.39051283  0.10636550  0.14093347  1
  O  O223  1  0.45900568  0.11398179  0.63271748  1
  O  O224  1  0.34296196  0.63536365  0.11520836  1
  O  O225  1  0.30240242  0.64791636  0.60986543  1
  O  O226  1  0.92726323  0.12743186  0.17047055  1
  O  O227  1  0.85168440  0.18981698  0.59817145  1
  O  O228  1  0.89359004  0.56982068  0.17647323  1
  O  O229  1  0.90853053  0.69745412  0.65784390  1
  O  O230  1  0.21013433  0.27076998  0.18875145  1
  O  O231  1  0.21949100  0.14775390  0.60994257  1
  O  O232  1  0.24500732  0.75760957  0.12045375  1
  O  O233  1  0.22444866  0.82007701  0.71276483  1
  O  O234  1  0.77248107  0.26617522  0.28803418  1
  O  O235  1  0.70438915  0.25505041  0.66127648  1
  O  O236  1  0.79337204  0.70032104  0.09693698  1
  O  O237  1  0.79924006  0.77880361  0.67474428  1
  O  O238  1  0.26784805  0.20930530  0.37457409  1
  O  O239  1  0.30866852  0.21418427  0.85668281  1
  O  O240  1  0.13330662  0.69109526  0.43471066  1
  O  O241  1  0.20566397  0.77007029  0.86477932  1
  O  O242  1  0.73457405  0.17610183  0.44004328  1
  O  O243  1  0.71052858  0.30541692  0.83307981  1
  O  O244  1  0.76490417  0.73981011  0.36378995  1
  O  O245  1  0.65728078  0.74585271  0.93937216  1
  O  O246  1  0.02803915  0.09200619  0.05172640  1
  O  O247  1  -0.06598962  0.15543111  0.48981277  1
  O  O248  1  -0.06566737  0.61303647  0.13690913  1
  O  O249  1  -0.02878933  0.58862985  0.58558706  1
  O  O250  1  0.46914451  0.10252261  0.01081262  1
  O  O251  1  0.54345073  0.08521731  0.47890247  1
  O  O252  1  0.46179982  0.62899344  0.01000040  1
  O  O253  1  0.36613372  0.69348404  0.47224895  1
  O  O254  1  0.51621949  0.42127856  0.46908034  1
  O  O255  1  0.47188591  0.41121878  0.95064711  1
  O  O256  1  0.52853433  0.89366224  0.53412290  1
  O  O257  1  0.48323796  0.87830774  0.99503737  1
  O  O258  1  1.00081729  0.36990745  0.44388556  1
  O  O259  1  0.99506404  0.37338518  0.97166465  1
  O  O260  1  1.15414871  0.87483016  0.51842963  1
  O  O261  1  1.01786523  0.89402933  1.01947615  1
  O  O262  1  0.50307241  0.55904303  0.38245389  1
  O  O263  1  0.46849036  0.55791575  0.88971267  1
  O  O264  1  0.55666178  1.04597140  0.42278594  1
  O  O265  1  0.47139487  0.99289069  0.90052447  1
  O  O266  1  0.98960799  0.44542956  0.32654764  1
  O  O267  1  0.96194009  0.53641098  0.85650201  1
  O  O268  1  0.99196393  1.02469211  0.36220441  1
  O  O269  1  1.00263615  1.00959101  0.93439871  1
  O  O270  1  0.00536138  -0.01951186  0.14339887  1
  O  O271  1  -0.05167096  0.06840451  0.59076172  1
  O  O272  1  0.01827507  0.47431282  0.16534154  1
  O  O273  1  0.00056193  0.47735953  0.69079289  1
  O  O274  1  0.49876100  -0.02192941  0.10378829  1
  O  O275  1  0.62709369  0.02387611  0.61963848  1
  O  O276  1  0.49133825  0.52615601  0.10319749  1
  O  O277  1  0.42136186  0.55767334  0.54119342  1
  O  O278  1  0.25224402  0.32463556  0.21100695  1
  O  O279  1  0.24488313  0.35219761  0.78946710  1
  O  O280  1  0.23735357  0.85591224  0.23177826  1
  O  O281  1  0.21109652  0.97887343  0.67754289  1
  O  O282  1  0.68458491  0.40762971  0.26985353  1
  O  O283  1  0.86330482  0.38689474  0.70481503  1
  O  O284  1  0.74498182  0.87299322  0.22989348  1
  O  O285  1  0.74887718  0.88560152  0.80441758  1
  O  O286  1  0.31366228  0.05220158  0.25963402  1
  O  O287  1  0.23822882  0.12037908  0.76021680  1
  O  O288  1  0.24488512  0.62273960  0.24189468  1
  O  O289  1  0.21739665  0.62633480  0.76082258  1
  O  O290  1  0.73650571  0.03295735  0.30530044  1
  O  O291  1  0.79866527  0.16446314  0.80782935  1
  O  O292  1  0.74569428  0.65024391  0.24593032  1
  O  O293  1  0.69422550  0.66003892  0.79520102  1
  O  O294  1  0.41697996  0.11851122  0.34920037  1
  O  O295  1  0.37474046  0.09466999  0.86469752  1
  O  O296  1  0.36577972  0.61086477  0.33176968  1
  O  O297  1  0.32359363  0.66881769  0.85753084  1
  O  O298  1  0.84449415  0.06909392  0.38758354  1
  O  O299  1  0.82658435  0.25935499  0.92529765  1
  O  O300  1  0.81320365  0.57462560  0.35336337  1
  O  O301  1  0.87666058  0.65315188  0.88454539  1
  O  O302  1  0.12537219  0.38772015  0.12210740  1
  O  O303  1  0.13798293  0.27630998  0.67281494  1
  O  O304  1  0.13795544  0.86782548  0.13084013  1
  O  O305  1  0.05594266  0.91217177  0.63988064  1
  O  O306  1  0.60984021  0.42079655  0.11627900  1
  O  O307  1  0.53699989  0.45150274  0.62548716  1
  O  O308  1  0.65527705  0.85842949  0.08935555  1
  O  O309  1  0.71014004  0.90211837  0.66502722  1
  O  O310  1  0.21449982  0.15291700  0.36829182  1
  O  O311  1  0.13990916  0.24352924  0.80963875  1
  O  O312  1  0.10395504  0.75216528  0.23387228  1
  O  O313  1  0.17120305  0.97456987  0.73404006  1
  O  O314  1  0.60409463  0.28931939  0.20284560  1
  O  O315  1  0.56593526  0.17583772  0.74630571  1
  O  O316  1  0.65251555  0.76049077  0.20937605  1
  O  O317  1  0.68226246  0.77482511  0.77775827  1
  O  O318  1  0.38187143  0.21480782  0.24250067  1
  O  O319  1  0.36449180  0.23621553  0.68074565  1
  O  O320  1  0.35262440  0.73261324  0.22371991  1
  O  O321  1  0.28865932  0.84367386  0.72834394  1
  O  O322  1  0.79980983  0.20183095  0.27882585  1
  O  O323  1  0.84997524  0.32735061  0.76248120  1
  O  O324  1  0.88365073  0.72811205  0.22535022  1
  O  O325  1  0.93013195  0.82117413  0.72359968  1
  O  O326  1  0.38586702  0.46762939  0.42314301  1
  O  O327  1  0.38430352  0.49314437  1.01380546  1
  O  O328  1  0.48855970  0.93910525  0.57588041  1
  O  O329  1  0.37611773  0.97013114  1.00865185  1
  O  O330  1  0.77125491  0.42272340  0.39861433  1
  O  O331  1  0.87034562  0.54548120  1.02535171  1
  O  O332  1  0.87876110  0.92741549  0.42761414  1
  O  O333  1  0.89402481  0.98672730  1.04706726  1
  O  O334  1  0.16561556  0.02693101  0.00896286  1
  O  O335  1  0.28049930  -0.00684360  0.53365593  1
  O  O336  1  0.07568753  0.50008237  0.04302056  1
  O  O337  1  0.11497460  0.39569949  0.54621149  1
  O  O338  1  0.59224656  0.01783154  -0.01770246  1
  O  O339  1  0.75155895  0.01202116  0.57675695  1
  O  O340  1  0.58052150  0.52233703  -0.00049475  1
  O  O341  1  0.57083048  0.55100740  0.51920174  1
  O  O342  1  0.38343400  0.36716898  0.10074991  1
  O  O343  1  0.38071269  0.37320515  0.54519845  1
  O  O344  1  0.36414372  0.84946691  0.10676860  1
  O  O345  1  0.34970769  0.86001678  0.60175017  1
  O  O346  1  0.88971590  0.39958158  0.09062867  1
  O  O347  1  0.81974152  0.38519715  0.65026673  1
  O  O348  1  0.87140227  0.84860538  0.13137740  1
  O  O349  1  0.89635310  0.89569751  0.62419976  1
  O  O350  1  0.21972230  0.09263504  0.40800911  1
  O  O351  1  0.18527319  0.13901650  0.90709100  1
  O  O352  1  0.11977366  0.54062401  0.38619081  1
  O  O353  1  0.13487063  0.63596150  0.89087337  1
  O  O354  1  0.62789846  0.14999724  0.31170876  1
  O  O355  1  0.74058772  0.11573584  0.94221210  1
  O  O356  1  0.61599772  0.67522087  0.31961604  1
  O  O357  1  0.53106373  0.70028172  0.81354387  1
