# generated using pymatgen
data_V51Zn51O256
_symmetry_space_group_name_H-M   'P 1'
_cell_length_a   17.65618769
_cell_length_b   17.61357835
_cell_length_c   17.24141240
_cell_angle_alpha   90.23723604
_cell_angle_beta   91.56597808
_cell_angle_gamma   92.85196496
_symmetry_Int_Tables_number   1
_chemical_formula_structural   V51Zn51O256
_chemical_formula_sum   'V51 Zn51 O256'
_cell_volume   5353.16105063
_cell_formula_units_Z   1
loop_
 _symmetry_equiv_pos_site_id
 _symmetry_equiv_pos_as_xyz
  1  'x, y, z'
loop_
 _atom_site_type_symbol
 _atom_site_label
 _atom_site_symmetry_multiplicity
 _atom_site_fract_x
 _atom_site_fract_y
 _atom_site_fract_z
 _atom_site_occupancy
  V  V0  1  0.01554320  0.66468856  0.64638151  1
  V  V1  1  0.06215725  0.79352405  0.90517342  1
  V  V2  1  0.86838461  0.11322251  0.72982063  1
  V  V3  1  0.37467597  0.35105224  0.49163883  1
  V  V4  1  0.47655690  0.51665558  0.52299360  1
  V  V5  1  0.35353958  0.38392575  0.00706923  1
  V  V6  1  0.45905634  0.62688832  0.13703307  1
  V  V7  1  0.60471237  0.34850936  0.25698426  1
  V  V8  1  0.50587568  0.42026595  0.89140119  1
  V  V9  1  0.87519490  -0.03877995  0.34945109  1
  V  V10  1  0.76710917  0.84769425  0.60641711  1
  V  V11  1  0.22658993  0.50659236  0.28373053  1
  V  V12  1  -0.01057652  0.13176055  0.61926732  1
  V  V13  1  0.60480065  0.56806607  0.07529411  1
  V  V14  1  0.28134622  0.02121861  0.23518018  1
  V  V15  1  0.64823781  0.82228921  0.74095848  1
  V  V16  1  0.10693823  0.10672939  0.51092923  1
  V  V17  1  0.86586289  0.69463236  0.13595615  1
  V  V18  1  0.90886179  0.53653162  0.38646644  1
  V  V19  1  0.05247699  0.49265789  0.52089403  1
  V  V20  1  0.12287478  0.24241129  0.88701951  1
  V  V21  1  0.76073995  0.02098011  0.23866924  1
  V  V22  1  0.11400280  0.88964596  0.76145057  1
  V  V23  1  0.72860953  0.09595873  0.85095277  1
  V  V24  1  0.38068518  0.78850142  0.16004503  1
  V  V25  1  0.75292350  -0.02519475  0.71816409  1
  V  V26  1  -0.01371824  -0.03717592  0.48393017  1
  V  V27  1  0.40193585  0.86311258  0.49237953  1
  V  V28  1  0.60272144  0.89506822  0.27712664  1
  V  V29  1  0.36287137  0.24696242  0.63499335  1
  V  V30  1  0.29024546  0.75922903  0.01256055  1
  V  V31  1  0.47827866  0.74744347  0.72568486  1
  V  V32  1  0.11199171  0.25923368  0.41761272  1
  V  V33  1  0.10836091  0.49575121  0.07802339  1
  V  V34  1  0.87200360  0.63669769  0.74897442  1
  V  V35  1  0.61788992  0.72642849  0.35927477  1
  V  V36  1  0.39505294  0.51461390  0.36521686  1
  V  V37  1  0.49073604  0.12859627  0.62411650  1
  V  V38  1  0.63323564  0.50236382  0.61579997  1
  V  V39  1  0.75537684  0.74258368  0.46814312  1
  V  V40  1  0.86971418  0.38867232  0.50991522  1
  V  V41  1  0.21820977  0.64138128  0.89728233  1
  V  V42  1  0.62397737  0.38679469  0.75318941  1
  V  V43  1  0.51723286  0.15186681  0.08748325  1
  V  V44  1  0.03732293  0.15330897  0.13632402  1
  V  V45  1  0.87889893  -0.00250212  0.87103377  1
  V  V46  1  0.12334276  0.72191356  0.53055293  1
  V  V47  1  0.74447147  0.83164083  0.08994196  1
  V  V48  1  0.47738820  0.25813978  0.78676676  1
  V  V49  1  0.86664804  0.45899441  0.82761603  1
  V  V50  1  0.37250507  0.15981928  0.26894436  1
  Zn  Zn51  1  0.16196443  0.92170586  0.56209108  1
  Zn  Zn52  1  0.00069818  0.10904100  0.34573344  1
  Zn  Zn53  1  0.58903342  0.60721229  0.74919530  1
  Zn  Zn54  1  0.71568691  0.67010095  0.65623780  1
  Zn  Zn55  1  0.77453154  0.41042871  0.36488356  1
  Zn  Zn56  1  0.68192236  0.50184570  0.89978227  1
  Zn  Zn57  1  0.18853233  0.44486315  0.91845857  1
  Zn  Zn58  1  0.75100071  0.88920907  0.90104289  1
  Zn  Zn59  1  0.38702979  0.20952957  0.93937608  1
  Zn  Zn60  1  0.91115414  0.68128846  0.93425196  1
  Zn  Zn61  1  0.02753855  0.71575238  0.07803338  1
  Zn  Zn62  1  0.91707300  0.50420796  0.62872769  1
  Zn  Zn63  1  0.32805081  0.85502935  0.32717877  1
  Zn  Zn64  1  0.93685358  0.92557778  0.67673670  1
  Zn  Zn65  1  0.93860839  0.72121982  0.46799949  1
  Zn  Zn66  1  0.91861844  0.26468596  0.38157263  1
  Zn  Zn67  1  0.20744375  0.19081583  0.18411220  1
  Zn  Zn68  1  0.04942727  0.05924525  0.80173367  1
  Zn  Zn69  1  0.53593446  0.31953074  0.56890082  1
  Zn  Zn70  1  0.02536845  0.58192708  0.84017451  1
  Zn  Zn71  1  0.35447761  0.47117404  0.16542389  1
  Zn  Zn72  1  0.70485468  0.93123537  0.43157092  1
  Zn  Zn73  1  0.83947753  0.02376480  0.55043733  1
  Zn  Zn74  1  0.46445883  0.41781556  0.67964605  1
  Zn  Zn75  1  0.79855704  0.80279565  0.27852335  1
  Zn  Zn76  1  0.32894447  0.35747846  0.28511074  1
  Zn  Zn77  1  0.57861265  0.03218071  0.72174661  1
  Zn  Zn78  1  0.28770084  0.08157911  0.58583901  1
  Zn  Zn79  1  0.52800353  0.37530207  0.09133130  1
  Zn  Zn80  1  0.77333991  0.01851303  0.03099310  1
  Zn  Zn81  1  0.14011746  0.69353755  0.74513303  1
  Zn  Zn82  1  0.45422575  0.19396011  0.45921587  1
  Zn  Zn83  1  0.21978589  0.43334721  0.45554532  1
  Zn  Zn84  1  0.44430352  0.97738455  0.18564953  1
  Zn  Zn85  1  0.44460802  0.67357987  0.42346723  1
  Zn  Zn86  1  0.16810477  0.31640169  0.06289863  1
  Zn  Zn87  1  0.95412456  0.54473783  0.18736245  1
  Zn  Zn88  1  0.20808498  0.89225951  0.91383327  1
  Zn  Zn89  1  0.56188177  0.54860845  0.30214730  1
  Zn  Zn90  1  0.59026642  0.74022950  0.16104561  1
  Zn  Zn91  1  0.77891276  0.54078325  0.49212050  1
  Zn  Zn92  1  0.57977925  0.77420086  0.56061346  1
  Zn  Zn93  1  0.29182175  0.77769552  0.79887689  1
  Zn  Zn94  1  0.00545862  0.29094023  0.54580526  1
  Zn  Zn95  1  0.27528005  0.56420753  0.03841031  1
  Zn  Zn96  1  0.91988046  0.82801580  0.80666131  1
  Zn  Zn97  1  0.62362497  0.18498442  0.76156199  1
  Zn  Zn98  1  0.21792955  0.65650428  0.16483975  1
  Zn  Zn99  1  0.71484569  0.64045059  0.23710950  1
  Zn  Zn100  1  0.10513077  0.58999546  0.38386986  1
  Zn  Zn101  1  0.78929805  0.28157262  0.77682663  1
  O  O102  1  0.13279203  0.10992458  0.14952138  1
  O  O103  1  0.08733476  0.10744941  0.62011371  1
  O  O104  1  0.11761601  0.71073891  0.15460308  1
  O  O105  1  0.13384591  0.68626174  0.62689607  1
  O  O106  1  0.60821081  0.16295363  0.12543382  1
  O  O107  1  0.59218305  0.13410579  0.66185704  1
  O  O108  1  0.64076356  0.63763042  0.14769337  1
  O  O109  1  0.62484550  0.60217821  0.63683379  1
  O  O110  1  0.36374464  0.34516956  0.39221134  1
  O  O111  1  0.39730838  0.41436292  0.92438985  1
  O  O112  1  0.42583565  0.88586185  0.39110515  1
  O  O113  1  0.34880358  0.96458449  1.00093538  1
  O  O114  1  0.91861154  0.41555918  0.40136179  1
  O  O115  1  0.85989052  0.36444878  0.81090017  1
  O  O116  1  0.88125673  0.86776665  0.32447579  1
  O  O117  1  0.85878035  0.89378959  0.86786216  1
  O  O118  1  0.11137577  -0.04102737  0.27222868  1
  O  O119  1  0.24806793  0.00154118  0.93008659  1
  O  O120  1  0.27672090  0.49172116  0.37342896  1
  O  O121  1  0.19450658  0.45927304  0.79660855  1
  O  O122  1  0.77219242  -0.02984839  0.35278550  1
  O  O123  1  0.75543776  -0.00959432  0.83635400  1
  O  O124  1  0.80407180  0.51685886  0.37862253  1
  O  O125  1  0.78179964  0.48770959  0.85784041  1
  O  O126  1  0.18491253  0.55817226  0.11072494  1
  O  O127  1  0.25879920  0.49963809  0.65196649  1
  O  O128  1  0.25530683  1.00229929  0.14583322  1
  O  O129  1  0.25433460  0.97939666  0.58051176  1
  O  O130  1  0.73126249  0.50646068  0.14464075  1
  O  O131  1  0.72340459  0.49949977  0.58449412  1
  O  O132  1  0.76602313  1.03413048  0.13858205  1
  O  O133  1  0.76724635  0.96096115  0.61325895  1
  O  O134  1  -0.17157539  0.25826916  0.20743636  1
  O  O135  1  0.06887071  0.38968778  0.70131070  1
  O  O136  1  0.04471878  0.78743487  0.29262169  1
  O  O137  1  0.00563908  0.88304292  0.75538243  1
  O  O138  1  0.51298009  0.34485005  0.20713180  1
  O  O139  1  0.48784369  0.38582084  0.78471685  1
  O  O140  1  0.51624299  0.92301406  0.24638359  1
  O  O141  1  0.54490605  0.82470380  0.75354429  1
  O  O142  1  0.46485423  0.16558119  0.17950092  1
  O  O143  1  0.50178921  0.16634921  0.78984241  1
  O  O144  1  0.49888698  0.58460450  0.21412419  1
  O  O145  1  0.50324106  0.66538476  0.77180089  1
  O  O146  1  1.04158440  0.14733748  0.24140036  1
  O  O147  1  0.97563153  0.10289033  0.73004393  1
  O  O148  1  1.06577397  0.66179369  0.29982196  1
  O  O149  1  1.04787183  0.62330039  0.73730763  1
  O  O150  1  0.34929138  0.28628186  0.00324464  1
  O  O151  1  0.37627208  0.25041900  0.51594698  1
  O  O152  1  0.38485558  0.77353675  0.03208900  1
  O  O153  1  0.40129087  0.76300283  0.46642149  1
  O  O154  1  0.82180876  0.38631753  0.09755902  1
  O  O155  1  0.90481674  0.29495288  0.49077573  1
  O  O156  1  0.92736145  0.68615487  0.03981922  1
  O  O157  1  0.84919144  0.77008911  0.45907898  1
  O  O158  1  0.09889175  0.24159251  0.51652925  1
  O  O159  1  0.08894052  0.27400129  0.98308326  1
  O  O160  1  0.14959318  0.81538514  0.52069324  1
  O  O161  1  0.08963065  0.74582906  0.98669843  1
  O  O162  1  0.67030947  0.21934440  0.55600141  1
  O  O163  1  0.73055415  0.33214253  0.97423254  1
  O  O164  1  0.62851965  0.73939844  0.46353016  1
  O  O165  1  0.58418175  0.74638875  0.93229393  1
  O  O166  1  0.52058100  0.25212066  0.07127886  1
  O  O167  1  0.48704544  0.23428737  0.63741445  1
  O  O168  1  0.47034265  0.72979677  0.15600819  1
  O  O169  1  0.49943947  0.73512401  0.62948143  1
  O  O170  1  1.10713912  0.24269146  0.14037492  1
  O  O171  1  0.99174538  0.22687149  0.63509032  1
  O  O172  1  0.94501456  0.73705534  0.17545407  1
  O  O173  1  1.00251189  0.75140505  0.67214011  1
  O  O174  1  0.03068605  0.28660503  0.37481101  1
  O  O175  1  0.02830257  0.23820481  0.85098661  1
  O  O176  1  0.03286948  0.72582143  0.32863287  1
  O  O177  1  -0.03732848  0.77894957  0.90087200  1
  O  O178  1  0.54264968  0.26169301  0.47567502  1
  O  O179  1  0.46130990  0.27291950  0.88396886  1
  O  O180  1  0.52174245  0.71695845  0.35750986  1
  O  O181  1  0.51512088  0.74667239  0.93391940  1
  O  O182  1  0.20255095  0.11923783  0.52305194  1
  O  O183  1  0.32784194  0.14090759  0.88372400  1
  O  O184  1  0.30151618  0.62445375  0.55384234  1
  O  O185  1  0.23544089  0.66322946  1.00926289  1
  O  O186  1  0.74958037  0.08041832  0.49532595  1
  O  O187  1  0.73001810  0.09146342  0.94898032  1
  O  O188  1  0.75240959  0.64546243  0.47080826  1
  O  O189  1  0.70278135  0.66877629  0.86911381  1
  O  O190  1  0.24275409  0.37808945  -0.01256118  1
  O  O191  1  0.29206604  0.38621387  0.52332623  1
  O  O192  1  0.24526760  0.84333872  0.00690973  1
  O  O193  1  0.30786250  0.87023666  0.44590588  1
  O  O194  1  0.86534128  0.40292272  0.15268608  1
  O  O195  1  0.77666357  0.38069931  0.47530126  1
  O  O196  1  0.75070717  0.90329456  0.01422658  1
  O  O197  1  0.73937482  0.85648572  0.50369706  1
  O  O198  1  0.13388745  0.51142127  0.31088161  1
  O  O199  1  0.14218204  0.49611098  0.76727406  1
  O  O200  1  0.15547615  1.01299982  0.29258795  1
  O  O201  1  0.12349357  0.98568516  0.78333827  1
  O  O202  1  0.60116084  0.45029790  0.27148573  1
  O  O203  1  0.62445055  0.49394164  0.72869949  1
  O  O204  1  0.60053824  1.10318293  0.36744523  1
  O  O205  1  0.65297135  0.95661904  0.72041900  1
  O  O206  1  0.38321516  0.04982056  0.23905654  1
  O  O207  1  0.30238427  -0.00517578  0.77980226  1
  O  O208  1  0.39278957  0.46066633  0.27317938  1
  O  O209  1  0.35953113  0.51236128  0.78164162  1
  O  O210  1  0.86708032  0.01308311  0.26216710  1
  O  O211  1  0.86562963  -0.01415647  0.74028158  1
  O  O212  1  0.93458173  0.52494674  0.29226604  1
  O  O213  1  0.89139807  0.50925658  0.74189488  1
  O  O214  1  0.17125965  0.33933942  0.41521128  1
  O  O215  1  0.13238966  0.34387422  0.87247859  1
  O  O216  1  0.16689353  0.82140925  0.35800606  1
  O  O217  1  0.09374506  0.88730598  0.91308582  1
  O  O218  1  0.55474069  0.32478660  0.33690263  1
  O  O219  1  0.61945766  0.41470889  0.85539027  1
  O  O220  1  0.61047944  0.90210345  0.37569907  1
  O  O221  1  0.67430672  0.83979787  0.83845035  1
  O  O222  1  0.43259412  0.15534730  0.02413055  1
  O  O223  1  0.37676702  0.13730892  0.62288393  1
  O  O224  1  0.36801261  0.58688498  0.12182296  1
  O  O225  1  0.33961142  0.56806338  0.74590011  1
  O  O226  1  0.97711162  0.22375694  0.12135921  1
  O  O227  1  0.88164396  0.10162932  0.62051506  1
  O  O228  1  0.86847111  0.59770357  0.14818820  1
  O  O229  1  0.91458706  0.62646566  0.65151867  1
  O  O230  1  0.24475940  0.25758208  0.10835728  1
  O  O231  1  0.27034498  0.24159350  0.63376919  1
  O  O232  1  0.28633078  0.74379202  0.12987719  1
  O  O233  1  0.33043037  0.65648177  0.61165787  1
  O  O234  1  0.72275218  0.26581358  -0.00457879  1
  O  O235  1  0.73343338  0.22550339  0.52896972  1
  O  O236  1  0.79765220  0.75156687  0.07086717  1
  O  O237  1  0.75504406  0.74236478  0.58424579  1
  O  O238  1  0.18602268  0.21997122  0.33401395  1
  O  O239  1  0.19490721  0.21057658  0.95186211  1
  O  O240  1  0.21984250  0.78176707  0.33971944  1
  O  O241  1  0.28757147  0.73607582  0.90765981  1
  O  O242  1  0.87679757  0.36726154  0.34494985  1
  O  O243  1  0.72606695  0.19753943  0.81941837  1
  O  O244  1  0.72767929  0.76764880  0.36486735  1
  O  O245  1  0.75628980  0.65695206  0.91760191  1
  O  O246  1  0.04400009  0.12185717  0.04169713  1
  O  O247  1  -0.00961266  0.11729242  0.51620386  1
  O  O248  1  -0.02984939  0.45263265  -0.05761934  1
  O  O249  1  0.02163972  0.69871191  0.53168150  1
  O  O250  1  0.55616076  0.11256682  0.00605841  1
  O  O251  1  0.49653288  0.11366227  0.52669744  1
  O  O252  1  0.51467244  0.61450666  0.05373722  1
  O  O253  1  0.48029895  0.61339835  0.50794502  1
  O  O254  1  0.47000618  0.39487632  0.51034554  1
  O  O255  1  0.53820793  0.38515116  0.97985591  1
  O  O256  1  0.49750736  0.84724056  0.51763770  1
  O  O257  1  0.49898689  0.90363164  0.99167065  1
  O  O258  1  1.01654959  0.40184811  0.53570221  1
  O  O259  1  0.87191604  0.23092847  0.98540518  1
  O  O260  1  0.99778253  0.87225851  0.46939708  1
  O  O261  1  0.94648526  0.90371654  1.12782360  1
  O  O262  1  0.49561223  0.51389736  0.38256982  1
  O  O263  1  0.51518432  0.51303689  0.89234967  1
  O  O264  1  0.62649474  1.15675985  0.40694189  1
  O  O265  1  0.47087250  0.99542682  0.84002928  1
  O  O266  1  1.01697273  0.53148293  0.43206704  1
  O  O267  1  0.98383669  0.47120284  0.86179699  1
  O  O268  1  0.97817504  1.00230120  0.37371927  1
  O  O269  1  0.97428437  1.01280806  0.86789398  1
  O  O270  1  -0.03054227  0.08145981  0.14871831  1
  O  O271  1  -0.02930963  -0.02466151  0.58436646  1
  O  O272  1  0.02485661  0.53272069  0.11167836  1
  O  O273  1  0.02451525  0.54625221  0.60061343  1
  O  O274  1  0.49205813  0.05721928  0.12185450  1
  O  O275  1  0.47914254  0.03990187  0.67429312  1
  O  O276  1  0.57012043  0.48556572  0.10890300  1
  O  O277  1  0.45796716  0.51106802  0.62110143  1
  O  O278  1  0.25406990  0.42705555  0.22678415  1
  O  O279  1  0.27598580  0.43656896  0.67262022  1
  O  O280  1  0.27988402  0.94015426  0.29109201  1
  O  O281  1  0.21639497  0.86183525  0.80444469  1
  O  O282  1  0.69745221  0.37843140  0.29352928  1
  O  O283  1  0.71309842  0.35960842  0.74162606  1
  O  O284  1  0.66806924  0.95853612  0.23649289  1
  O  O285  1  0.75663557  0.86191720  0.71763887  1
  O  O286  1  0.27090745  0.12771516  0.25384881  1
  O  O287  1  0.32859878  0.05099778  0.74713148  1
  O  O288  1  0.25575652  0.59487792  0.24986634  1
  O  O289  1  0.23322270  0.66914319  0.79484983  1
  O  O290  1  0.73941963  0.10316924  0.27212282  1
  O  O291  1  0.76064024  0.07767540  0.71311434  1
  O  O292  1  0.75052839  0.52534713  0.21293918  1
  O  O293  1  0.77923277  0.61467026  0.73083351  1
  O  O294  1  0.40953588  0.15677507  0.35988325  1
  O  O295  1  0.42627568  0.01384483  0.88896590  1
  O  O296  1  0.38416199  0.60923967  0.35234501  1
  O  O297  1  0.25380036  0.55194889  0.91128708  1
  O  O298  1  0.91433405  0.16794611  0.33626510  1
  O  O299  1  0.84914478  0.10043643  0.83568223  1
  O  O300  1  0.91302361  0.63170630  0.40373255  1
  O  O301  1  0.91616359  0.61362583  0.84838022  1
  O  O302  1  0.12167719  0.40347351  0.10628807  1
  O  O303  1  0.12340889  0.35973881  0.67361213  1
  O  O304  1  0.08056689  0.83136809  0.13621978  1
  O  O305  1  0.13179036  0.88385505  0.66678370  1
  O  O306  1  0.62923047  0.35340751  0.15342143  1
  O  O307  1  0.58402321  0.39456306  0.64184274  1
  O  O308  1  0.64954322  0.80338663  0.09350974  1
  O  O309  1  0.64799591  0.83412164  0.62894136  1
  O  O310  1  0.20408933  0.26684963  0.27940490  1
  O  O311  1  0.18411818  0.25052354  0.81001400  1
  O  O312  1  0.13195291  0.79354326  0.16813784  1
  O  O313  1  0.09653104  0.77288490  0.81083611  1
  O  O314  1  0.63684490  0.25738082  0.25819165  1
  O  O315  1  0.58254265  0.28828488  0.76132569  1
  O  O316  1  0.61510334  0.79035438  0.26450162  1
  O  O317  1  0.65998182  0.72608917  0.73544498  1
  O  O318  1  0.36036987  0.25342797  0.24893297  1
  O  O319  1  0.38445963  0.25093306  0.74327912  1
  O  O320  1  0.36732422  0.78350923  0.25772147  1
  O  O321  1  0.38643358  0.77050135  0.74709578  1
  O  O322  1  0.80967217  0.24179901  0.13990564  1
  O  O323  1  0.85629236  0.20766881  0.72951744  1
  O  O324  1  0.80034870  0.70685746  0.22147210  1
  O  O325  1  0.87506696  0.73228402  0.76144738  1
  O  O326  1  0.38460513  0.49586745  0.47016677  1
  O  O327  1  0.30501002  0.46323459  1.06006085  1
  O  O328  1  0.41703073  0.95673491  0.52103690  1
  O  O329  1  0.29773897  1.01232309  0.99111631  1
  O  O330  1  0.88492334  0.50314049  0.50691326  1
  O  O331  1  0.89522519  0.44609191  0.94799060  1
  O  O332  1  0.87813303  0.97144655  0.46223249  1
  O  O333  1  0.86200027  1.01647441  0.96646436  1
  O  O334  1  -0.02883296  -0.09236051  0.06183266  1
  O  O335  1  0.09353089  0.00279710  0.49730123  1
  O  O336  1  0.11147685  0.49105152  -0.02267591  1
  O  O337  1  0.14852798  0.49481233  0.50945483  1
  O  O338  1  0.55372960  -0.08138564  -0.04880222  1
  O  O339  1  0.64428229  0.00473678  0.50195540  1
  O  O340  1  0.65940193  0.54803215  -0.00108356  1
  O  O341  1  0.58047972  0.49891963  0.52687928  1
  O  O342  1  0.41734729  0.39937227  0.09282011  1
  O  O343  1  0.39107320  0.34791580  0.62706043  1
  O  O344  1  0.39371166  0.88330729  0.14461755  1
  O  O345  1  0.35626689  0.83918385  0.57634034  1
  O  O346  1  0.89343043  0.29777621  -0.00260857  1
  O  O347  1  0.87339026  0.39667820  0.60855419  1
  O  O348  1  0.77566665  0.86419147  0.17920329  1
  O  O349  1  0.86327753  0.85023384  0.61763493  1
  O  O350  1  0.09313175  0.14187374  0.40854248  1
  O  O351  1  0.10309932  0.14115742  0.86617856  1
  O  O352  1  0.15446183  0.66835757  0.45563123  1
  O  O353  1  0.12130098  0.62560747  0.88993210  1
  O  O354  1  0.68302653  0.06575411  0.52793575  1
  O  O355  1  0.63372787  0.07763318  0.81877254  1
  O  O356  1  0.64038449  0.63313797  0.32139499  1
  O  O357  1  0.65630558  0.60250700  0.84715088  1
