# generated using pymatgen
data_V51Zn51O256
_symmetry_space_group_name_H-M   'P 1'
_cell_length_a   17.61697760
_cell_length_b   17.59601718
_cell_length_c   17.37402127
_cell_angle_alpha   90.29337774
_cell_angle_beta   90.09228547
_cell_angle_gamma   92.64785682
_symmetry_Int_Tables_number   1
_chemical_formula_structural   V51Zn51O256
_chemical_formula_sum   'V51 Zn51 O256'
_cell_volume   5379.91931183
_cell_formula_units_Z   1
loop_
 _symmetry_equiv_pos_site_id
 _symmetry_equiv_pos_as_xyz
  1  'x, y, z'
loop_
 _atom_site_type_symbol
 _atom_site_label
 _atom_site_symmetry_multiplicity
 _atom_site_fract_x
 _atom_site_fract_y
 _atom_site_fract_z
 _atom_site_occupancy
  V  V0  1  0.25744445  0.40958197  0.09234500  1
  V  V1  1  0.02344411  0.00892014  -0.00859515  1
  V  V2  1  0.86876156  0.22325589  0.62822454  1
  V  V3  1  0.13368552  0.10764964  0.55887957  1
  V  V4  1  0.13190895  0.01299853  0.12043439  1
  V  V5  1  0.88431757  0.52455926  0.90047107  1
  V  V6  1  -0.00384822  0.84790579  0.86459425  1
  V  V7  1  0.63929270  0.21741003  0.89144353  1
  V  V8  1  0.01021565  0.36740082  0.39337869  1
  V  V9  1  0.13120081  0.72515230  0.86919042  1
  V  V10  1  0.75452313  0.35555051  0.61807658  1
  V  V11  1  0.49699920  0.70820822  0.78268039  1
  V  V12  1  0.76328331  0.36215654  0.12804342  1
  V  V13  1  0.46752169  0.95081318  0.38098482  1
  V  V14  1  0.15670555  -0.03145134  0.66566401  1
  V  V15  1  0.87547851  0.06841885  0.76048413  1
  V  V16  1  0.57303122  0.39862838  0.25246969  1
  V  V17  1  -0.03153052  0.65173254  0.58080666  1
  V  V18  1  0.40724060  0.69818601  0.61568837  1
  V  V19  1  0.47849016  0.16132721  0.61139689  1
  V  V20  1  0.38486038  0.90611288  0.53176928  1
  V  V21  1  0.46987336  0.47353334  -0.04276517  1
  V  V22  1  0.89899275  0.17577062  0.23549607  1
  V  V23  1  0.10604777  0.28414419  0.85519075  1
  V  V24  1  0.00226696  0.64732941  0.16912409  1
  V  V25  1  0.50549926  -0.02728884  0.02063948  1
  V  V26  1  0.64411269  0.60539180  0.03221926  1
  V  V27  1  0.62511969  0.71803204  0.36624249  1
  V  V28  1  -0.00915417  0.28124729  0.73524436  1
  V  V29  1  0.79102374  0.46819638  0.26465458  1
  V  V30  1  0.65738065  0.39105169  0.77249260  1
  V  V31  1  0.50722606  0.25709534  0.79842705  1
  V  V32  1  0.69028365  0.17747485  0.37824093  1
  V  V33  1  0.07958063  0.48277274  0.12368036  1
  V  V34  1  0.24999354  0.63444316  0.36414373  1
  V  V35  1  0.38348849  0.76073173  0.12707244  1
  V  V36  1  0.22368394  0.10729144  0.84575481  1
  V  V37  1  0.09707410  0.46159454  0.60350591  1
  V  V38  1  0.65118973  0.75707446  0.84746010  1
  V  V39  1  0.60372177  0.87595879  0.69976714  1
  V  V40  1  0.75214918  0.10545164  0.90103600  1
  V  V41  1  0.35784270  0.12719545  0.74585765  1
  V  V42  1  0.12404136  0.79671831  0.40769628  1
  V  V43  1  0.36298057  0.33088005  0.65149813  1
  V  V44  1  0.85426857  0.86741572  -0.01280623  1
  V  V45  1  0.13978691  0.63379446  0.52453679  1
  V  V46  1  0.84928320  0.03296071  0.34171730  1
  V  V47  1  0.71698396  0.00090317  0.67915161  1
  V  V48  1  0.23395405  0.86773951  0.04471662  1
  V  V49  1  0.22695747  0.24282302  -0.02874102  1
  V  V50  1  0.16752240  0.38998476  0.24846973  1
  Zn  Zn51  1  0.08329588  0.60466755  0.71773204  1
  Zn  Zn52  1  0.94504109  0.17297677  0.90132007  1
  Zn  Zn53  1  0.68845971  0.93104898  0.94665669  1
  Zn  Zn54  1  0.55375769  0.32227695  0.63241137  1
  Zn  Zn55  1  0.08438006  0.80102728  0.59386636  1
  Zn  Zn56  1  0.07321809  0.27658298  0.56895831  1
  Zn  Zn57  1  0.67408608  0.99783921  0.39851746  1
  Zn  Zn58  1  0.80522518  0.07762279  0.51087409  1
  Zn  Zn59  1  0.99300125  1.02233936  0.21008387  1
  Zn  Zn60  1  0.19838903  0.22898281  0.69934580  1
  Zn  Zn61  1  0.90425146  0.70058774  0.97092305  1
  Zn  Zn62  1  0.68830220  0.44021037  0.94707919  1
  Zn  Zn63  1  0.93030839  0.37349686  0.19561446  1
  Zn  Zn64  1  0.79678220  0.88010666  0.80001280  1
  Zn  Zn65  1  0.19176879  0.90525749  0.85137958  1
  Zn  Zn66  1  0.66286151  0.51721043  0.37556680  1
  Zn  Zn67  1  0.81548982  0.55934859  0.63209681  1
  Zn  Zn68  1  0.43623412  0.68885091  0.42954013  1
  Zn  Zn69  1  0.68799136  0.35753131  0.40865425  1
  Zn  Zn70  1  0.15027050  0.43876876  0.94485774  1
  Zn  Zn71  1  0.20069548  0.20310446  0.17760466  1
  Zn  Zn72  1  0.48928884  0.67435896  0.96415881  1
  Zn  Zn73  1  0.45890465  0.98121230  0.69462945  1
  Zn  Zn74  1  0.46278813  0.42000624  0.77927858  1
  Zn  Zn75  1  0.05955674  0.02088685  0.81259074  1
  Zn  Zn76  1  0.76830675  0.66042484  0.81219518  1
  Zn  Zn77  1  0.32408257  0.57773649  0.51138739  1
  Zn  Zn78  1  0.59536559  0.55874181  0.84489120  1
  Zn  Zn79  1  0.62200883  0.32153174  0.06547103  1
  Zn  Zn80  1  0.91869925  0.41623379  0.63033483  1
  Zn  Zn81  1  0.29928415  0.74156659  0.76901089  1
  Zn  Zn82  1  0.73261391  0.18317922  0.18621815  1
  Zn  Zn83  1  0.11367720  0.30708058  0.05991409  1
  Zn  Zn84  1  0.65740614  0.57384537  0.21690691  1
  Zn  Zn85  1  0.34130243  0.79974228  0.32688133  1
  Zn  Zn86  1  0.52069939  0.10650122  0.42681382  1
  Zn  Zn87  1  0.20795682  0.93582632  0.50325733  1
  Zn  Zn88  1  0.66036195  0.18554060  0.68892211  1
  Zn  Zn89  1  0.82951358  0.31419403  0.32845453  1
  Zn  Zn90  1  0.78866592  0.26994139  0.78174532  1
  Zn  Zn91  1  0.57761811  0.86222484  0.50825078  1
  Zn  Zn92  1  0.28869174  0.48906003  0.30367536  1
  Zn  Zn93  1  0.25486038  0.75841429  0.56294502  1
  Zn  Zn94  1  0.30644493  0.06563428  0.58180470  1
  Zn  Zn95  1  0.06670726  0.54718849  0.31434720  1
  Zn  Zn96  1  0.15906406  0.48673417  0.42494154  1
  Zn  Zn97  1  0.54966434  0.77854456  0.06601825  1
  Zn  Zn98  1  0.80937428  0.55297922  0.09299455  1
  Zn  Zn99  1  0.47450748  0.87518440  0.21167173  1
  Zn  Zn100  1  0.43097330  0.39171586  0.14691038  1
  Zn  Zn101  1  0.32425407  0.27467828  0.83608244  1
  O  O102  1  0.16529950  0.10181568  0.14610096  1
  O  O103  1  0.10561702  0.05247565  0.64270866  1
  O  O104  1  0.06837456  0.58714090  0.12857628  1
  O  O105  1  0.14008601  0.64859539  0.61938495  1
  O  O106  1  0.69321392  0.04236514  0.15495658  1
  O  O107  1  0.57326237  0.20982513  0.62464023  1
  O  O108  1  0.61279947  0.57075327  0.11866984  1
  O  O109  1  0.67204025  0.65507141  0.59773752  1
  O  O110  1  0.37685275  0.42108959  0.36670096  1
  O  O111  1  0.32386145  0.57881735  0.87920457  1
  O  O112  1  0.38025478  0.89528475  0.37289144  1
  O  O113  1  0.25317714  0.84894801  0.76076906  1
  O  O114  1  0.91352583  0.36114770  0.39001846  1
  O  O115  1  0.92665340  0.43780688  0.89851662  1
  O  O116  1  0.88836583  0.74501725  0.30979758  1
  O  O117  1  0.87440652  0.88186059  0.88472241  1
  O  O118  1  0.29479968  0.20237998  0.41314203  1
  O  O119  1  0.24096740  0.01568964  0.85392337  1
  O  O120  1  0.28488885  0.54566283  0.41052336  1
  O  O121  1  0.21441829  0.50045589  0.85983751  1
  O  O122  1  0.75900872  -0.00646855  0.32628386  1
  O  O123  1  0.73332728  0.00923892  0.88128339  1
  O  O124  1  0.74866333  0.44985158  0.36193447  1
  O  O125  1  0.78888591  0.48419195  0.90472243  1
  O  O126  1  0.27806131  0.49786459  0.07234753  1
  O  O127  1  0.27093362  0.54766187  0.71523367  1
  O  O128  1  0.20939094  0.95309159  0.10149409  1
  O  O129  1  0.24979513  0.99178389  0.65480278  1
  O  O130  1  0.77085437  0.47029034  0.15436668  1
  O  O131  1  0.81000520  0.44837972  0.62705979  1
  O  O132  1  0.77835613  0.90729815  0.19598856  1
  O  O133  1  0.76642561  1.01424840  0.59480537  1
  O  O134  1  0.04762064  0.36067306  0.28147826  1
  O  O135  1  -0.01462745  0.37479379  0.72004330  1
  O  O136  1  0.00511083  0.94929020  0.41153255  1
  O  O137  1  -0.02192509  0.84136774  0.77251865  1
  O  O138  1  0.47248525  0.39527640  0.24434469  1
  O  O139  1  0.55139782  0.35115697  0.74927606  1
  O  O140  1  0.51445568  0.92221272  0.29918451  1
  O  O141  1  0.52545661  0.91178328  0.74301733  1
  O  O142  1  0.41079154  0.06391573  0.21644478  1
  O  O143  1  0.45754288  0.18165462  0.74755376  1
  O  O144  1  0.42938833  0.55362807  0.28111730  1
  O  O145  1  0.51667707  0.61511899  0.78390157  1
  O  O146  1  0.98273073  0.13528541  0.21685039  1
  O  O147  1  0.96895997  0.05369763  0.76466593  1
  O  O148  1  1.00020113  0.61499657  0.26152251  1
  O  O149  1  0.98508421  0.60733579  0.66479673  1
  O  O150  1  0.31732404  0.27339429  -0.04575495  1
  O  O151  1  0.31298661  0.35186333  0.57548842  1
  O  O152  1  0.43838525  0.73924149  0.03797417  1
  O  O153  1  0.42082942  0.74096169  0.52669707  1
  O  O154  1  0.96299950  0.23123986  0.05586248  1
  O  O155  1  0.85268855  0.17611967  0.54488515  1
  O  O156  1  0.83107060  0.77280393  0.00142061  1
  O  O157  1  0.81294802  0.85934092  0.46918878  1
  O  O158  1  0.15414050  0.20308459  0.59292797  1
  O  O159  1  0.10994092  0.25609657  0.95628461  1
  O  O160  1  0.14111686  0.74973206  0.50358449  1
  O  O161  1  0.11441012  0.68449116  0.95362932  1
  O  O162  1  0.41897172  0.29976308  0.45537110  1
  O  O163  1  0.63446481  0.25244676  0.98303707  1
  O  O164  1  0.59484676  0.75545687  0.45863934  1
  O  O165  1  0.59675798  0.69160983  1.01853159  1
  O  O166  1  0.56453009  0.18702096  0.15650843  1
  O  O167  1  0.44549003  0.27835692  0.62109042  1
  O  O168  1  0.49648483  0.78033788  0.16243929  1
  O  O169  1  0.48651639  0.71795550  0.67436470  1
  O  O170  1  1.00831052  0.28022099  0.09937777  1
  O  O171  1  0.98141079  0.23753735  0.63701502  1
  O  O172  1  1.06381694  0.73913186  0.16317960  1
  O  O173  1  0.98740943  0.74963563  0.59308686  1
  O  O174  1  0.04332319  0.29306666  0.32486815  1
  O  O175  1  0.00195067  0.25020492  0.84158083  1
  O  O176  1  0.03171015  0.79739944  0.40145098  1
  O  O177  1  -0.02878169  0.76443491  0.91240973  1
  O  O178  1  0.47387086  0.30629191  0.41288864  1
  O  O179  1  0.52589155  0.22659287  0.88884484  1
  O  O180  1  0.51999464  0.71641310  0.36209670  1
  O  O181  1  0.53584201  0.73415836  0.87745224  1
  O  O182  1  0.22825307  0.19316749  0.39290029  1
  O  O183  1  0.22794928  0.14531096  0.94702328  1
  O  O184  1  0.24443872  0.65613189  0.50509157  1
  O  O185  1  0.22033911  0.61763385  0.99728009  1
  O  O186  1  0.72104899  0.10274258  0.43741681  1
  O  O187  1  0.77217628  0.11281985  0.99177266  1
  O  O188  1  0.69550562  0.59247852  0.57790400  1
  O  O189  1  0.74095686  0.62075041  1.04544398  1
  O  O190  1  0.21421459  0.37153121  0.00096486  1
  O  O191  1  0.35870751  0.40345898  0.43366835  1
  O  O192  1  0.24185881  0.88689706  -0.05176194  1
  O  O193  1  0.29084302  0.85818910  0.52136745  1
  O  O194  1  0.71673769  0.39032291  0.03979509  1
  O  O195  1  0.72811517  0.34642767  0.52622179  1
  O  O196  1  0.77599843  0.91436397  0.01101038  1
  O  O197  1  0.65917667  0.90721459  0.45465423  1
  O  O198  1  0.11231406  0.48343384  0.23044597  1
  O  O199  1  0.10974546  0.50253854  0.69263779  1
  O  O200  1  0.09429636  0.97733339  0.20523355  1
  O  O201  1  0.12766719  0.94935858  0.76056148  1
  O  O202  1  0.60408769  0.49428821  0.27838570  1
  O  O203  1  0.65230591  0.48688297  0.77500840  1
  O  O204  1  0.64853528  1.00875431  0.19945005  1
  O  O205  1  0.62656903  0.97136292  0.64566108  1
  O  O206  1  0.35639081  0.06092505  0.17196743  1
  O  O207  1  0.38193020  0.03648798  0.75540676  1
  O  O208  1  0.44834407  0.60667807  0.23760505  1
  O  O209  1  0.36255928  0.55340262  0.82773578  1
  O  O210  1  0.91402529  -0.00862703  0.28175243  1
  O  O211  1  0.82106206  -0.01640999  0.74349255  1
  O  O212  1  0.88743294  0.46170259  0.26444207  1
  O  O213  1  0.88120575  0.52381991  0.80019256  1
  O  O214  1  0.19576115  0.41872351  0.34473561  1
  O  O215  1  0.10181737  0.37947949  0.86217217  1
  O  O216  1  0.15825391  0.88983499  0.41478158  1
  O  O217  1  0.10203679  0.82684856  0.86637815  1
  O  O218  1  0.60622635  0.34335666  0.32482749  1
  O  O219  1  0.65265165  0.36496274  0.87009387  1
  O  O220  1  0.64278902  0.79924240  0.31487902  1
  O  O221  1  0.65855865  0.82898709  0.91405317  1
  O  O222  1  0.46062705  0.21725869  0.03895835  1
  O  O223  1  0.36567905  0.14358259  0.63660428  1
  O  O224  1  0.34044902  0.68067425  0.14787296  1
  O  O225  1  0.38145661  0.60257670  0.60180784  1
  O  O226  1  0.83432270  0.15137109  0.16495472  1
  O  O227  1  0.86175695  0.12762140  0.68389599  1
  O  O228  1  0.90015345  0.62305951  0.13029675  1
  O  O229  1  0.87431647  0.62461704  0.56168680  1
  O  O230  1  0.20700482  0.24149638  0.07311546  1
  O  O231  1  0.29956041  0.28027819  0.71909256  1
  O  O232  1  0.32131492  0.82685900  0.07951127  1
  O  O233  1  0.32471900  0.73738007  0.65539908  1
  O  O234  1  0.71214404  0.27046673  0.13031440  1
  O  O235  1  0.76019666  0.24708774  0.66017402  1
  O  O236  1  0.71483574  0.77029618  0.12482511  1
  O  O237  1  0.81081629  0.74538769  0.65494817  1
  O  O238  1  0.39724556  0.22869795  0.29495789  1
  O  O239  1  0.20761084  0.26234474  0.85456657  1
  O  O240  1  0.21853498  0.74442868  0.34881912  1
  O  O241  1  0.22790709  0.72027014  0.85056292  1
  O  O242  1  0.74615586  0.26488950  0.38801789  1
  O  O243  1  0.74319357  0.21527921  0.86594322  1
  O  O244  1  0.71621137  0.72555630  0.40223168  1
  O  O245  1  0.74945503  0.77125354  0.81199459  1
  O  O246  1  -0.00979008  0.09084026  -0.04466330  1
  O  O247  1  -0.05011858  -0.06106087  0.63210415  1
  O  O248  1  -0.05532652  0.65631681  0.06921363  1
  O  O249  1  0.03856996  0.62561822  0.50607920  1
  O  O250  1  0.51334114  0.05705033  0.06999441  1
  O  O251  1  0.47050629  0.15202651  0.51466190  1
  O  O252  1  0.46207279  0.56996561  -0.02379730  1
  O  O253  1  0.43551172  0.57519932  0.45218886  1
  O  O254  1  0.53855365  0.40696411  0.55019062  1
  O  O255  1  0.52843594  0.38875147  1.00696714  1
  O  O256  1  0.47704913  0.89697482  0.48030241  1
  O  O257  1  0.52577227  0.86845259  1.00386010  1
  O  O258  1  1.04048111  0.32303818  0.47442015  1
  O  O259  1  0.94391629  0.25714223  0.98789724  1
  O  O260  1  0.86566353  0.84263797  0.42248343  1
  O  O261  1  0.95862193  0.90969610  1.01086827  1
  O  O262  1  0.61384724  0.43978301  0.44974722  1
  O  O263  1  0.51228520  0.47402418  0.86139311  1
  O  O264  1  0.43993667  1.04403233  0.37199918  1
  O  O265  1  0.50250740  1.00987786  0.92919775  1
  O  O266  1  1.04762400  0.46552314  0.39384523  1
  O  O267  1  0.97379787  0.57175807  0.91133106  1
  O  O268  1  0.99538154  0.94229878  0.48040945  1
  O  O269  1  1.02251140  0.95138429  0.89594356  1
  O  O270  1  0.01808039  0.01951285  0.09519525  1
  O  O271  1  -0.10175487  -0.08990762  0.59307961  1
  O  O272  1  -0.00823579  0.44213439  0.13240831  1
  O  O273  1  0.00268726  0.46108215  0.57771108  1
  O  O274  1  0.49483276  -0.06451457  0.11948330  1
  O  O275  1  0.49911758  0.07307085  0.64259432  1
  O  O276  1  0.49709503  0.43949163  0.06214465  1
  O  O277  1  0.52659226  0.59054051  0.54678807  1
  O  O278  1  0.25972454  0.42504537  0.21180768  1
  O  O279  1  0.24129761  0.45758168  0.81021817  1
  O  O280  1  0.26867524  1.04749391  0.33211156  1
  O  O281  1  0.21876988  0.85326166  0.68955785  1
  O  O282  1  0.76548265  0.36447328  0.24116118  1
  O  O283  1  0.75564467  0.37044321  0.75766347  1
  O  O284  1  0.84807966  0.70590314  0.26643683  1
  O  O285  1  0.70229545  0.90379923  0.73604107  1
  O  O286  1  0.29403937  0.17487787  0.23700442  1
  O  O287  1  0.24803849  0.12892593  0.73778530  1
  O  O288  1  0.25674706  0.59796135  0.27557994  1
  O  O289  1  0.23608747  0.60110998  0.74131967  1
  O  O290  1  0.68961541  0.15180100  0.28243886  1
  O  O291  1  0.70075482  0.08846168  0.71950585  1
  O  O292  1  0.75893020  0.56322100  0.26126404  1
  O  O293  1  0.79647055  0.60449547  0.72822752  1
  O  O294  1  0.34800493  0.23391230  0.24193383  1
  O  O295  1  0.33753723  0.15744656  0.84104308  1
  O  O296  1  0.34099188  0.69769917  0.37441727  1
  O  O297  1  0.27514267  0.66180151  1.00070462  1
  O  O298  1  0.85784617  0.13536919  0.32120363  1
  O  O299  1  0.85367486  0.11606743  0.85103695  1
  O  O300  1  0.89061034  0.59137441  0.38960565  1
  O  O301  1  0.84654874  0.62196916  0.89807592  1
  O  O302  1  0.14511187  0.39311116  0.13135286  1
  O  O303  1  0.12715730  0.37095794  0.60627182  1
  O  O304  1  0.16331219  0.80637814  0.05578140  1
  O  O305  1  0.12616136  0.90668631  0.58810264  1
  O  O306  1  0.60186584  0.37142408  0.16229486  1
  O  O307  1  0.65990440  0.36813300  0.65475138  1
  O  O308  1  0.66368315  0.81645955  0.12513793  1
  O  O309  1  0.58709536  0.83238318  0.61292477  1
  O  O310  1  0.17273508  0.29241848  0.23904275  1
  O  O311  1  0.10078061  0.26628981  0.74487974  1
  O  O312  1  0.14635268  0.75473375  0.31261098  1
  O  O313  1  0.18109966  0.78286818  0.66642701  1
  O  O314  1  0.50622747  0.18754120  0.19527200  1
  O  O315  1  0.61634717  0.23222199  0.78381593  1
  O  O316  1  0.63178351  0.67025302  0.27579475  1
  O  O317  1  0.59981653  0.77925693  0.75935244  1
  O  O318  1  0.41394826  0.20448409  0.09014316  1
  O  O319  1  0.42888392  0.31420163  0.82079546  1
  O  O320  1  0.37577501  0.81630610  0.22180045  1
  O  O321  1  0.40237417  0.71779000  0.80263296  1
  O  O322  1  0.90175510  0.27681836  0.24890306  1
  O  O323  1  0.89112935  0.25629871  0.74618170  1
  O  O324  1  0.99340541  0.75672551  0.18512145  1
  O  O325  1  0.85551953  0.79491023  0.67999214  1
  O  O326  1  0.48921271  0.54490764  0.50326145  1
  O  O327  1  0.38328181  0.43875093  0.94307560  1
  O  O328  1  0.36360142  0.99842577  0.51578869  1
  O  O329  1  0.40852299  0.95753107  1.00677971  1
  O  O330  1  0.88206037  0.53325446  0.42725163  1
  O  O331  1  0.87304056  0.52194869  1.00394975  1
  O  O332  1  0.87046719  1.02650562  0.43797451  1
  O  O333  1  0.91543541  0.89044350  1.07720901  1
  O  O334  1  0.12009177  0.01490350  0.00320345  1
  O  O335  1  0.21034014  0.05464426  0.51782811  1
  O  O336  1  0.09855890  0.48510211  0.02548777  1
  O  O337  1  0.15256336  0.52325470  0.53136501  1
  O  O338  1  0.60784002  -0.03316195  0.01062057  1
  O  O339  1  0.56711165  0.00733984  0.41803055  1
  O  O340  1  0.62985834  0.53224901  -0.04157643  1
  O  O341  1  0.59972995  0.44683631  0.53026096  1
  O  O342  1  0.34054596  0.35989775  0.10071368  1
  O  O343  1  0.39904423  0.41629916  0.69146630  1
  O  O344  1  0.26463821  0.99099904  0.29083168  1
  O  O345  1  0.40795112  0.90421119  0.62582481  1
  O  O346  1  0.85389394  0.34591771  0.10807662  1
  O  O347  1  0.86408014  0.32060830  0.60037712  1
  O  O348  1  0.80524115  0.85050486  0.22297474  1
  O  O349  1  0.79522785  0.81297230  0.52443478  1
  O  O350  1  0.06253726  0.10836028  0.49945931  1
  O  O351  1  0.12676793  0.11058816  0.83190768  1
  O  O352  1  0.14922943  0.60448150  0.38949612  1
  O  O353  1  0.08223972  0.67038665  0.80033582  1
  O  O354  1  0.59759235  0.18684356  0.40477712  1
  O  O355  1  0.64218682  0.12065858  0.90388698  1
  O  O356  1  0.62541976  0.61673162  0.39605048  1
  O  O357  1  0.66560391  0.65550552  0.85983383  1
