# generated using pymatgen
data_V51Zn51O256
_symmetry_space_group_name_H-M   'P 1'
_cell_length_a   17.47134151
_cell_length_b   17.20730783
_cell_length_c   17.73803432
_cell_angle_alpha   90.47363074
_cell_angle_beta   88.79325010
_cell_angle_gamma   91.17865759
_symmetry_Int_Tables_number   1
_chemical_formula_structural   V51Zn51O256
_chemical_formula_sum   'V51 Zn51 O256'
_cell_volume   5330.19507145
_cell_formula_units_Z   1
loop_
 _symmetry_equiv_pos_site_id
 _symmetry_equiv_pos_as_xyz
  1  'x, y, z'
loop_
 _atom_site_type_symbol
 _atom_site_label
 _atom_site_symmetry_multiplicity
 _atom_site_fract_x
 _atom_site_fract_y
 _atom_site_fract_z
 _atom_site_occupancy
  V  V0  1  0.49742365  0.72774815  0.75997531  1
  V  V1  1  -0.04705715  0.75412515  0.77681126  1
  V  V2  1  0.73842065  0.00103988  0.73580472  1
  V  V3  1  0.34951023  0.50891961  0.40275551  1
  V  V4  1  0.08091917  0.83645626  0.33595005  1
  V  V5  1  0.38196388  0.74717956  0.61670069  1
  V  V6  1  0.25438498  0.86960491  0.62928946  1
  V  V7  1  0.08912782  0.52069570  0.60706287  1
  V  V8  1  0.64838286  0.75199928  0.38793504  1
  V  V9  1  0.23076238  0.62987608  0.38423835  1
  V  V10  1  0.02180993  -0.03425373  0.02053427  1
  V  V11  1  0.38165287  0.65145791  0.26791797  1
  V  V12  1  0.24454589  0.52475999  0.22225657  1
  V  V13  1  0.23864295  -0.00856378  0.75143470  1
  V  V14  1  0.93189832  0.27626183  0.07428780  1
  V  V15  1  0.60909627  0.86523200  0.25851512  1
  V  V16  1  0.01017849  0.62387951  0.12424722  1
  V  V17  1  0.08910528  0.03684576  0.50813254  1
  V  V18  1  0.87596351  0.50973829  0.83257678  1
  V  V19  1  0.74674466  0.48046592  0.26597977  1
  V  V20  1  0.00148714  0.45927980  0.48161209  1
  V  V21  1  0.89691132  0.63799800  0.26514919  1
  V  V22  1  0.21735582  0.51056880  0.70865665  1
  V  V23  1  0.25685074  0.88077455  0.12061262  1
  V  V24  1  0.78640319  0.34880949  0.61851208  1
  V  V25  1  0.40245094  0.46616792  0.92944854  1
  V  V26  1  0.70720875  0.28478751  -0.03177993  1
  V  V27  1  0.67007078  -0.00044568  0.57397220  1
  V  V28  1  0.00330896  0.26484755  0.76603300  1
  V  V29  1  0.12077853  0.86154421  0.75952304  1
  V  V30  1  0.90914281  0.45801785  0.35124890  1
  V  V31  1  0.60921544  0.88028193  0.75936908  1
  V  V32  1  0.00668547  0.09419922  0.67558163  1
  V  V33  1  0.93079158  0.14515111  0.29175462  1
  V  V34  1  0.38563835  -0.01068905  0.86216147  1
  V  V35  1  0.69892926  0.34589163  0.13735418  1
  V  V36  1  0.48486736  0.06824881  0.10880530  1
  V  V37  1  0.15127311  0.35886204  0.26802671  1
  V  V38  1  0.71367722  0.63352040  0.84514400  1
  V  V39  1  0.78354724  0.72254916  0.49632312  1
  V  V40  1  0.62593339  0.53418759  0.12534137  1
  V  V41  1  0.26221177  0.34214406  0.60747151  1
  V  V42  1  0.89246521  0.21657321  0.62545029  1
  V  V43  1  0.37038498  0.12777026  0.73167488  1
  V  V44  1  0.23861386  0.73854328  0.49914144  1
  V  V45  1  0.75898909  -0.01353188  0.23788296  1
  V  V46  1  -0.04124932  0.64884176  0.64124985  1
  V  V47  1  0.64146142  0.60331150  0.52072464  1
  V  V48  1  0.15757426  0.73182885  0.86990590  1
  V  V49  1  0.86395841  0.88876398  0.47069232  1
  V  V50  1  0.24329115  0.10750672  0.88319368  1
  Zn  Zn51  1  0.09713115  0.77388591  0.06287917  1
  Zn  Zn52  1  0.53106158  0.26803196  0.04937069  1
  Zn  Zn53  1  0.64956822  0.80083606  0.93443401  1
  Zn  Zn54  1  0.06855335  0.05495266  0.83500951  1
  Zn  Zn55  1  0.80199498  0.16792650  0.15620914  1
  Zn  Zn56  1  0.44737481  0.53301893  0.19395381  1
  Zn  Zn57  1  0.39154901  0.15901856  0.95074041  1
  Zn  Zn58  1  0.86076139  0.13612514  0.78748061  1
  Zn  Zn59  1  0.98603341  0.43198636  0.17717229  1
  Zn  Zn60  1  0.33512149  0.38557330  0.27392662  1
  Zn  Zn61  1  0.94333163  0.08733908  0.46940416  1
  Zn  Zn62  1  0.19841275  0.49482397  0.88869900  1
  Zn  Zn63  1  0.83936298  0.53620618  0.55020713  1
  Zn  Zn64  1  0.93669367  0.67698303  0.44899871  1
  Zn  Zn65  1  0.82194656  0.32385061  0.80654202  1
  Zn  Zn66  1  0.94226137  0.41973742  0.67630845  1
  Zn  Zn67  1  0.32603808  0.33736178  0.46565914  1
  Zn  Zn68  1  0.53949962  0.03880529  0.76597246  1
  Zn  Zn69  1  0.25777134  0.07884036  0.58373207  1
  Zn  Zn70  1  0.94186498  0.94148075  0.21854306  1
  Zn  Zn71  1  0.44189897  0.66828953  0.93292923  1
  Zn  Zn72  1  0.85510901  0.31583258  0.24772549  1
  Zn  Zn73  1  0.11870496  0.16874256  0.25479366  1
  Zn  Zn74  1  0.41687556  0.90667696  0.71979037  1
  Zn  Zn75  1  0.17610972  0.18435089  0.71284260  1
  Zn  Zn76  1  0.85100060  0.18702349  -0.03070252  1
  Zn  Zn77  1  0.36809237  0.46038833  0.73481520  1
  Zn  Zn78  1  0.55907173  0.82956661  0.54467072  1
  Zn  Zn79  1  0.75168784  0.53256740  0.98212538  1
  Zn  Zn80  1  1.00571191  0.64484106  0.92354405  1
  Zn  Zn81  1  0.04334757  0.28086826  -0.05491129  1
  Zn  Zn82  1  0.70108924  0.16500062  0.66463997  1
  Zn  Zn83  1  0.80823884  0.82289943  0.31094230  1
  Zn  Zn84  1  0.76235518  0.65881745  0.65943018  1
  Zn  Zn85  1  0.87217308  0.01374271  0.60833897  1
  Zn  Zn86  1  0.17171046  0.70824672  0.66566582  1
  Zn  Zn87  1  0.70841174  0.94331735  0.40456997  1
  Zn  Zn88  1  0.31544670  0.79887214  0.79806652  1
  Zn  Zn89  1  0.74189570  0.44900923  0.45362512  1
  Zn  Zn90  1  0.20052601  0.91577872  0.93342450  1
  Zn  Zn91  1  0.33228425  0.60965287  0.07200454  1
  Zn  Zn92  1  0.56834959  0.90685124  0.08499472  1
  Zn  Zn93  1  0.06127202  0.56535925  0.30699258  1
  Zn  Zn94  1  0.91778332  0.91661326  0.74319976  1
  Zn  Zn95  1  0.05287806  0.01830415  0.31176165  1
  Zn  Zn96  1  0.05454646  0.57064188  0.78874231  1
  Zn  Zn97  1  0.18060176  0.70420659  0.21004402  1
  Zn  Zn98  1  0.58355839  0.64439175  0.27726894  1
  Zn  Zn99  1  0.48087584  0.59169593  0.62900009  1
  Zn  Zn100  1  0.17690434  0.44144915  0.44550996  1
  Zn  Zn101  1  0.83317584  0.55526459  0.12695746  1
  O  O102  1  0.12996259  0.06389792  0.24942562  1
  O  O103  1  0.10425952  0.09742853  0.67444142  1
  O  O104  1  0.10058585  0.68331351  0.13311372  1
  O  O105  1  0.03398387  0.58364389  0.68069439  1
  O  O106  1  0.58308676  0.02601293  0.08719739  1
  O  O107  1  0.63426088  0.08147047  0.61825154  1
  O  O108  1  0.63611443  0.61315233  0.18383917  1
  O  O109  1  0.69221758  0.59030171  0.60107958  1
  O  O110  1  0.35440242  0.40053028  0.38097353  1
  O  O111  1  0.37425053  0.38898804  0.98220012  1
  O  O112  1  0.32740548  0.95014602  0.42258024  1
  O  O113  1  0.38205936  0.88724003  0.83049824  1
  O  O114  1  0.90878907  0.36122168  0.33981087  1
  O  O115  1  0.86515314  0.41734797  0.86220850  1
  O  O116  1  0.87836261  0.89217426  0.37688298  1
  O  O117  1  0.73992470  0.96800949  0.92184016  1
  O  O118  1  0.32413522  0.08848914  0.30993787  1
  O  O119  1  0.24683046  -0.00145736  0.86929367  1
  O  O120  1  0.24514509  0.51413844  0.38758850  1
  O  O121  1  0.30605043  0.49547970  0.90000607  1
  O  O122  1  0.74740960  0.01868937  0.32818356  1
  O  O123  1  0.75724599  0.03373171  0.94294555  1
  O  O124  1  0.79928635  0.46888561  0.35819436  1
  O  O125  1  0.79121728  0.56172701  0.87583667  1
  O  O126  1  0.25582446  0.54423371  0.12990353  1
  O  O127  1  0.17706458  0.58337545  0.64797517  1
  O  O128  1  0.26085598  0.97672054  0.09344429  1
  O  O129  1  0.23667606  0.98164166  0.64921795  1
  O  O130  1  0.69353680  0.46468759  0.15937379  1
  O  O131  1  0.78355613  0.43556445  0.55952246  1
  O  O132  1  0.79177078  0.96121117  0.07495448  1
  O  O133  1  0.75972341  0.99414283  0.62961320  1
  O  O134  1  0.06841228  0.38394262  0.22778694  1
  O  O135  1  0.00220771  0.36220953  0.74459700  1
  O  O136  1  0.02604242  0.90330511  0.28492398  1
  O  O137  1  0.02077754  0.86071622  0.76482543  1
  O  O138  1  0.50825504  0.44322665  0.36719658  1
  O  O139  1  0.51270120  0.26464928  0.60746507  1
  O  O140  1  0.55091647  0.91510744  0.31276139  1
  O  O141  1  0.52498870  0.92883470  0.72482502  1
  O  O142  1  0.50412185  0.07190630  0.20384791  1
  O  O143  1  0.46885149  0.11033275  0.72877553  1
  O  O144  1  0.47721242  0.61187578  0.27636564  1
  O  O145  1  0.50634658  0.63569963  0.72825158  1
  O  O146  1  1.01540711  0.19647307  0.28876476  1
  O  O147  1  0.99063371  0.10556717  0.77674282  1
  O  O148  1  1.00122709  0.63648656  0.24690444  1
  O  O149  1  0.92039855  0.65992707  0.75639611  1
  O  O150  1  0.30017641  0.27286312  -0.11372655  1
  O  O151  1  0.52999626  0.35721480  0.47508555  1
  O  O152  1  0.36274197  0.68388671  0.00077629  1
  O  O153  1  0.33687009  0.74788988  0.52497878  1
  O  O154  1  0.88863312  0.30171077  -0.00618847  1
  O  O155  1  0.90851903  0.19767077  0.53515439  1
  O  O156  1  0.92778312  0.81753012  0.15792901  1
  O  O157  1  0.87583026  0.77449827  0.47211632  1
  O  O158  1  0.11478930  0.23940428  0.49876735  1
  O  O159  1  0.14227691  0.33712455  0.90737347  1
  O  O160  1  0.15977378  0.72252162  0.55627712  1
  O  O161  1  0.13571960  0.74053978  0.96623428  1
  O  O162  1  0.55810683  0.30434507  0.30522670  1
  O  O163  1  0.60918986  0.27573606  0.97184205  1
  O  O164  1  0.67442736  0.70445193  0.50116071  1
  O  O165  1  0.48073660  0.82279232  1.01718486  1
  O  O166  1  0.52337324  0.16591198  0.10146276  1
  O  O167  1  0.54872030  0.22144638  0.65061674  1
  O  O168  1  0.52933143  0.68656546  0.07890681  1
  O  O169  1  0.47441286  0.77702963  0.58926237  1
  O  O170  1  1.02954037  0.27068106  0.04941310  1
  O  O171  1  0.99267547  0.21102116  0.66425128  1
  O  O172  1  0.98742645  0.77911676  0.14826610  1
  O  O173  1  0.98466706  0.74315451  0.66568411  1
  O  O174  1  0.08574807  0.22989144  0.43752582  1
  O  O175  1  -0.01541418  0.25590760  0.86337773  1
  O  O176  1  0.01271967  0.76265763  0.38743219  1
  O  O177  1  -0.01420408  0.74072265  0.86735531  1
  O  O178  1  0.49144979  0.28219395  0.28077599  1
  O  O179  1  0.50424753  0.25841659  0.81701977  1
  O  O180  1  0.59691999  0.81659021  0.44444748  1
  O  O181  1  0.49100369  0.72649758  0.85661040  1
  O  O182  1  0.18185715  0.07885425  0.51446129  1
  O  O183  1  0.27551080  0.13365166  0.96963424  1
  O  O184  1  0.24474305  0.63053481  0.48396017  1
  O  O185  1  0.21439301  0.61306571  1.00151936  1
  O  O186  1  0.61262029  0.19538937  0.48288773  1
  O  O187  1  0.74292123  0.19825727  0.99768297  1
  O  O188  1  0.81742772  0.62961659  0.48789482  1
  O  O189  1  0.85912920  0.75585043  1.01624544  1
  O  O190  1  0.16622408  0.39653376  -0.05301612  1
  O  O191  1  0.22503111  0.37464280  0.52002434  1
  O  O192  1  0.25263208  0.86555394  0.01788046  1
  O  O193  1  0.23804427  0.85276749  0.53631171  1
  O  O194  1  0.72948088  0.35960267  0.04155129  1
  O  O195  1  0.69302171  0.33747950  0.47390205  1
  O  O196  1  0.74783284  0.76553199  0.13485373  1
  O  O197  1  0.76759441  0.88421749  0.48633407  1
  O  O198  1  0.14856956  0.52851379  0.24355384  1
  O  O199  1  0.15620851  0.50163277  0.79025457  1
  O  O200  1  0.18292686  0.86953797  0.36860654  1
  O  O201  1  0.13301949  0.97434436  0.77556815  1
  O  O202  1  0.66328821  0.49852552  0.30376783  1
  O  O203  1  0.52483290  0.44246035  0.68399637  1
  O  O204  1  0.67423267  0.93956233  0.20700157  1
  O  O205  1  0.64439989  1.00330295  0.78143182  1
  O  O206  1  0.38798307  0.07889234  0.33602637  1
  O  O207  1  0.34687759  0.00441510  0.75418331  1
  O  O208  1  0.35235758  0.49885211  0.25177408  1
  O  O209  1  0.39412739  0.42555172  0.83519211  1
  O  O210  1  0.95309920  0.05137945  0.25428499  1
  O  O211  1  0.82214213  -0.02429037  0.77590916  1
  O  O212  1  0.92163870  0.48848024  0.25896255  1
  O  O213  1  0.88297106  0.49620352  0.73740948  1
  O  O214  1  0.15017810  0.37301607  0.36392915  1
  O  O215  1  0.04340233  0.45840448  0.98273258  1
  O  O216  1  0.05282111  0.81181684  0.43655372  1
  O  O217  1  0.15010406  0.84423848  0.86321789  1
  O  O218  1  0.59075210  0.26276589  0.35441999  1
  O  O219  1  0.51256928  0.38040236  0.71906649  1
  O  O220  1  0.69967512  0.86004942  0.32890475  1
  O  O221  1  0.61074769  0.86268226  0.85321998  1
  O  O222  1  0.39176079  0.07767551  0.13824950  1
  O  O223  1  0.34129756  0.11369004  0.63583048  1
  O  O224  1  0.38432163  0.62998256  0.16593837  1
  O  O225  1  0.38509546  0.65003748  0.62679481  1
  O  O226  1  0.89004317  0.18173371  0.08419695  1
  O  O227  1  0.88195658  0.11727039  0.66052943  1
  O  O228  1  0.90719528  0.63688981  0.15158672  1
  O  O229  1  0.86376005  0.60860237  0.63250461  1
  O  O230  1  0.20965762  0.25489937  0.04626425  1
  O  O231  1  0.21850269  0.25959182  0.64050664  1
  O  O232  1  0.24749001  0.77544284  0.14524788  1
  O  O233  1  0.27445022  0.76568262  0.66176157  1
  O  O234  1  0.73377221  0.25545520  0.15488315  1
  O  O235  1  0.78174140  0.23710873  0.62441910  1
  O  O236  1  0.69779700  0.74949038  0.08971473  1
  O  O237  1  0.78187437  0.74618265  0.59037873  1
  O  O238  1  0.34500706  0.25890529  0.26366080  1
  O  O239  1  0.24896631  0.23341719  0.85473426  1
  O  O240  1  0.23407442  0.73854146  0.39783055  1
  O  O241  1  0.25525998  0.72425279  0.85683650  1
  O  O242  1  0.60559900  0.11491634  0.32972224  1
  O  O243  1  0.73950699  0.30596548  0.87816423  1
  O  O244  1  0.75262885  0.74571046  0.39212208  1
  O  O245  1  0.69679250  0.70702375  0.91342159  1
  O  O246  1  0.02300359  0.06298010  0.04845228  1
  O  O247  1  0.01350895  0.08745819  0.56122390  1
  O  O248  1  -0.00251655  0.64591162  0.03028427  1
  O  O249  1  -0.01639723  0.64500674  0.54466915  1
  O  O250  1  0.45848190  0.09618602  0.01371958  1
  O  O251  1  0.45032832  0.23088023  0.41358680  1
  O  O252  1  0.54387060  0.67588009  0.01068015  1
  O  O253  1  0.54547778  0.59947049  0.54352070  1
  O  O254  1  0.52511129  0.39716617  0.53225306  1
  O  O255  1  0.43808030  0.24907516  0.99243073  1
  O  O256  1  0.48033947  0.98788292  0.47178475  1
  O  O257  1  0.45928704  0.85242000  0.95815831  1
  O  O258  1  1.01274731  0.36683850  0.47905225  1
  O  O259  1  1.00123927  0.41274624  0.94788729  1
  O  O260  1  0.93223632  0.85562090  0.56708122  1
  O  O261  1  1.03645410  0.86266867  1.01906666  1
  O  O262  1  0.47993721  0.50404560  0.39281364  1
  O  O263  1  0.49682217  0.44058845  0.93411432  1
  O  O264  1  0.37675919  0.90088840  0.41766436  1
  O  O265  1  0.48159463  1.01269116  0.86106204  1
  O  O266  1  1.01279691  0.48778266  0.37825834  1
  O  O267  1  0.96752690  0.54860979  0.86209773  1
  O  O268  1  1.13991682  0.93223337  0.37708213  1
  O  O269  1  1.02952437  0.98786601  0.91956625  1
  O  O270  1  0.01036979  -0.04617018  0.12001829  1
  O  O271  1  -0.03633405  -0.00496050  0.67504437  1
  O  O272  1  0.02350422  0.52642210  0.12795647  1
  O  O273  1  -0.00934185  0.47776301  0.58966613  1
  O  O274  1  0.47037811  -0.03413575  0.08552686  1
  O  O275  1  0.43883085  0.04433719  0.47583716  1
  O  O276  1  0.53114208  0.50191551  0.13269888  1
  O  O277  1  0.45217148  0.48316907  0.66473956  1
  O  O278  1  0.23670439  0.40946074  0.22776748  1
  O  O279  1  0.27227477  0.41848475  0.68284185  1
  O  O280  1  0.24559853  0.91660034  0.21092841  1
  O  O281  1  0.24742795  0.88538562  0.75559276  1
  O  O282  1  0.76164051  0.37845267  0.23547310  1
  O  O283  1  0.76421522  0.37359026  0.70689373  1
  O  O284  1  0.83403896  0.91511643  0.23141428  1
  O  O285  1  0.70052304  0.89030122  0.71987388  1
  O  O286  1  0.32881776  0.22503477  0.20323346  1
  O  O287  1  0.24205706  0.10459540  0.76220843  1
  O  O288  1  0.25824087  0.63295921  0.26606069  1
  O  O289  1  0.29780559  0.55331288  0.74127986  1
  O  O290  1  0.77629503  0.06414901  0.17980051  1
  O  O291  1  0.75114045  0.10533065  0.74295774  1
  O  O292  1  0.80094459  0.56897773  0.23452745  1
  O  O293  1  0.74129294  0.67459660  0.76102724  1
  O  O294  1  0.32342789  0.22270283  0.43973362  1
  O  O295  1  0.36007684  0.10849929  0.85346563  1
  O  O296  1  0.35311352  0.61133529  0.36952067  1
  O  O297  1  0.44380255  0.56307892  0.89905431  1
  O  O298  1  0.90211068  0.13453906  0.38372653  1
  O  O299  1  0.87211719  0.11706121  0.89220898  1
  O  O300  1  0.90587836  0.61346827  0.36009187  1
  O  O301  1  0.83923201  0.78198119  0.95571792  1
  O  O302  1  0.21759396  0.31423939  0.08434218  1
  O  O303  1  0.12883365  0.44487666  0.64682912  1
  O  O304  1  0.15096733  0.85658935  0.12022533  1
  O  O305  1  0.14689121  0.85525805  0.66308248  1
  O  O306  1  0.60421280  0.32564042  0.12859935  1
  O  O307  1  0.69202489  0.31622242  0.54378593  1
  O  O308  1  0.56028181  0.84582033  0.17472506  1
  O  O309  1  0.60973820  0.92010578  0.58394266  1
  O  O310  1  0.17121890  0.26288956  0.24857420  1
  O  O311  1  0.09943110  0.24336528  0.76528413  1
  O  O312  1  0.11856289  0.77107083  0.27514055  1
  O  O313  1  0.13008348  0.74848811  0.76250254  1
  O  O314  1  0.55363461  0.08458188  0.36729300  1
  O  O315  1  0.62022719  0.24934315  0.67347220  1
  O  O316  1  0.60894365  0.75986377  0.29006912  1
  O  O317  1  0.57867650  0.78259557  0.72611760  1
  O  O318  1  0.38568825  0.36209540  0.14122485  1
  O  O319  1  0.36393915  0.22233119  0.74474577  1
  O  O320  1  0.38542130  0.74445148  0.28096919  1
  O  O321  1  0.40835647  0.76897031  0.72827769  1
  O  O322  1  0.85972122  0.20337911  0.24801931  1
  O  O323  1  0.88341631  0.24634467  0.75488923  1
  O  O324  1  0.86428890  0.72994022  0.27023046  1
  O  O325  1  0.87703159  0.81486461  0.77967055  1
  O  O326  1  0.35987733  0.50974552  0.49351684  1
  O  O327  1  0.38591428  0.52349343  1.01452758  1
  O  O328  1  0.39586589  1.19275354  0.44591639  1
  O  O329  1  0.36113608  0.98362245  0.95254070  1
  O  O330  1  0.90135741  0.47943117  0.46585319  1
  O  O331  1  0.83692467  0.50803987  1.03617651  1
  O  O332  1  0.88881943  0.98742573  0.50298471  1
  O  O333  1  0.92782166  0.95227255  0.99900152  1
  O  O334  1  0.12742825  -0.03025725  -0.00070694  1
  O  O335  1  0.08946617  -0.05403716  0.53232728  1
  O  O336  1  0.17191159  0.55462737  -0.01413280  1
  O  O337  1  0.10312426  0.50855904  0.50569917  1
  O  O338  1  0.64085152  -0.13369950  0.01937310  1
  O  O339  1  0.68111681  0.02063070  0.48084178  1
  O  O340  1  0.65635145  0.55322358  0.03316502  1
  O  O341  1  0.66403382  0.52390791  0.46489403  1
  O  O342  1  0.45398684  0.34678884  0.12509552  1
  O  O343  1  0.35217994  0.32171335  0.57565850  1
  O  O344  1  0.35181157  0.86077618  0.12407333  1
  O  O345  1  0.35650685  0.88170065  0.63037576  1
  O  O346  1  0.91769475  0.34325226  0.15236162  1
  O  O347  1  0.88846448  0.33594261  0.61826757  1
  O  O348  1  0.77699643  0.89847712  0.04556925  1
  O  O349  1  0.88417602  0.86886855  0.62048336  1
  O  O350  1  0.04611161  0.04705485  0.41771038  1
  O  O351  1  0.14456648  0.11957875  0.88589987  1
  O  O352  1  0.13568152  0.61950499  0.37281426  1
  O  O353  1  0.10792262  0.63618591  0.86222559  1
  O  O354  1  0.55824127  0.14995448  0.48900097  1
  O  O355  1  0.56921576  0.28541192  0.82274849  1
  O  O356  1  0.61107852  0.65707489  0.38506321  1
  O  O357  1  0.63555179  0.58093401  0.83562299  1
