# generated using pymatgen
data_V51Zn51O256
_symmetry_space_group_name_H-M   'P 1'
_cell_length_a   17.44141581
_cell_length_b   17.32985788
_cell_length_c   17.71954048
_cell_angle_alpha   91.83936893
_cell_angle_beta   90.08082307
_cell_angle_gamma   89.12368603
_symmetry_Int_Tables_number   1
_chemical_formula_structural   V51Zn51O256
_chemical_formula_sum   'V51 Zn51 O256'
_cell_volume   5352.47168967
_cell_formula_units_Z   1
loop_
 _symmetry_equiv_pos_site_id
 _symmetry_equiv_pos_as_xyz
  1  'x, y, z'
loop_
 _atom_site_type_symbol
 _atom_site_label
 _atom_site_symmetry_multiplicity
 _atom_site_fract_x
 _atom_site_fract_y
 _atom_site_fract_z
 _atom_site_occupancy
  V  V0  1  0.38550724  0.61859361  0.26911313  1
  V  V1  1  0.12864371  0.86286441  0.22516199  1
  V  V2  1  0.72157412  0.46097039  0.72406403  1
  V  V3  1  0.48078949  0.22269193  0.23106897  1
  V  V4  1  0.46980793  0.59576334  0.11526992  1
  V  V5  1  0.22514606  0.38679048  0.13836861  1
  V  V6  1  0.76424050  0.69679251  0.48946239  1
  V  V7  1  0.61003934  0.10972053  0.02561124  1
  V  V8  1  0.72167576  0.56818162  0.86918477  1
  V  V9  1  -0.01259890  0.35647142  0.91551910  1
  V  V10  1  0.72822205  0.49868752  0.25718334  1
  V  V11  1  0.86453892  0.62342318  0.27264345  1
  V  V12  1  0.62503850  0.88447310  0.74894793  1
  V  V13  1  0.07057976  0.47882197  0.67391916  1
  V  V14  1  0.37698681  0.21073491  0.09327117  1
  V  V15  1  0.35158955  0.78912919  0.62024195  1
  V  V16  1  0.13811716  0.39151920  0.80110233  1
  V  V17  1  0.28137615  0.37903816  0.67937373  1
  V  V18  1  0.59436295  0.37313471  0.25083349  1
  V  V19  1  0.61832752  -0.04265865  0.09168189  1
  V  V20  1  0.02887268  0.25378006  0.76639076  1
  V  V21  1  0.86831588  0.25631454  0.18172533  1
  V  V22  1  0.40786090  0.52878802  0.90157893  1
  V  V23  1  0.09834685  0.53719549  0.16411693  1
  V  V24  1  0.85195660  0.84760423  0.51762760  1
  V  V25  1  0.50612393  0.07333370  0.44216368  1
  V  V26  1  0.13491422  0.69845037  0.48853541  1
  V  V27  1  0.64976923  0.87430629  0.26743591  1
  V  V28  1  0.62893027  0.49904225  0.11162562  1
  V  V29  1  0.13836662  0.68044507  0.91570677  1
  V  V30  1  0.88616596  0.50237835  0.89831508  1
  V  V31  1  -0.00034130  0.14794359  0.15641843  1
  V  V32  1  0.10028056  0.87467832  0.72637117  1
  V  V33  1  0.80752505  0.90103833  0.08015789  1
  V  V34  1  0.58779038  -0.00053913  0.59866431  1
  V  V35  1  0.36702195  0.11080730  0.76724335  1
  V  V36  1  0.73736845  0.79986446  0.65674273  1
  V  V37  1  0.29665458  0.81409101  0.00351813  1
  V  V38  1  0.55361181  0.23132404  0.52255977  1
  V  V39  1  0.74437523  0.35856726  0.12944838  1
  V  V40  1  0.41528470  0.86956921  0.15494502  1
  V  V41  1  0.90863532  0.49199038  0.39700373  1
  V  V42  1  -0.00178437  0.53952126  0.03371849  1
  V  V43  1  0.26012889  0.22634537  0.47968276  1
  V  V44  1  0.18186459  -0.06223467  0.09108363  1
  V  V45  1  0.56734602  0.75926016  0.83102002  1
  V  V46  1  0.64099216  0.22282177  0.87317651  1
  V  V47  1  0.82094080  0.11819713  0.88162488  1
  V  V48  1  0.43449909  0.36428252  -0.01387875  1
  V  V49  1  0.87510348  0.72449481  0.11033922  1
  V  V50  1  0.89869601  0.86438819  -0.05968645  1
  Zn  Zn51  1  0.55561390  0.55032016  0.79087485  1
  Zn  Zn52  1  0.74609675  0.99477492  0.93830046  1
  Zn  Zn53  1  0.45964771  0.18349906  0.93009338  1
  Zn  Zn54  1  0.70424433  0.40494868  0.95135953  1
  Zn  Zn55  1  0.80275286  0.35674648  0.31824967  1
  Zn  Zn56  1  0.40011961  0.42252600  0.18622415  1
  Zn  Zn57  1  0.82117678  0.51618536  0.56371934  1
  Zn  Zn58  1  0.27118121  0.77765821  0.26330349  1
  Zn  Zn59  1  0.92793633  0.43839688  0.22567209  1
  Zn  Zn60  1  0.39051550  0.73976952  0.41731396  1
  Zn  Zn61  1  0.86495650  0.07270460  0.07347299  1
  Zn  Zn62  1  0.18238912  0.71292560  0.10363943  1
  Zn  Zn63  1  0.03843622  0.34797164  0.11509445  1
  Zn  Zn64  1  0.18477393  0.21087819  0.13646606  1
  Zn  Zn65  1  0.23003422  0.86405565  0.40681641  1
  Zn  Zn66  1  0.70464627  0.70357531  0.30239891  1
  Zn  Zn67  1  1.01095200  0.95249699  0.08189648  1
  Zn  Zn68  1  0.30181603  0.30719795  0.84225806  1
  Zn  Zn69  1  0.32836700  0.62343603  -0.00516429  1
  Zn  Zn70  1  0.68580342  0.91784283  0.44791375  1
  Zn  Zn71  1  0.31371446  0.27034907  0.27638434  1
  Zn  Zn72  1  0.13645348  0.29462423  0.61389534  1
  Zn  Zn73  1  0.26348128  0.80186235  0.81610406  1
  Zn  Zn74  1  0.93507844  0.39416572  0.74108620  1
  Zn  Zn75  1  0.36961488  0.00755441  0.08223196  1
  Zn  Zn76  1  0.51925895  1.01764822  0.24264614  1
  Zn  Zn77  1  0.54812644  0.81249283  0.60716557  1
  Zn  Zn78  1  0.56714299  0.29044512  0.08065036  1
  Zn  Zn79  1  0.56163239  0.17286229  0.69928755  1
  Zn  Zn80  1  0.83436367  0.53440283  0.11248081  1
  Zn  Zn81  1  0.43137922  0.39538900  0.78536429  1
  Zn  Zn82  1  0.04145435  0.60081691  0.34078572  1
  Zn  Zn83  1  0.93758561  0.69802576  0.92482477  1
  Zn  Zn84  1  0.40944136  0.24023484  0.41865403  1
  Zn  Zn85  1  0.42909481  0.90498294  0.77014492  1
  Zn  Zn86  1  0.39813629  0.24801061  0.62677968  1
  Zn  Zn87  1  0.66861750  0.19723970  0.18728166  1
  Zn  Zn88  1  0.76534029  0.75674283  0.83322329  1
  Zn  Zn89  1  0.15310216  0.93954338  0.91599569  1
  Zn  Zn90  1  0.82729008  0.30449895  0.82340283  1
  Zn  Zn91  1  0.94494714  0.18495968  0.33297934  1
  Zn  Zn92  1  0.67543109  0.06747775  0.76996942  1
  Zn  Zn93  1  0.03770231  0.78663655  0.05310906  1
  Zn  Zn94  1  0.06114082  0.55329240  0.85985421  1
  Zn  Zn95  1  0.01850628  0.83039558  0.56641940  1
  Zn  Zn96  1  0.06076330  0.05035808  0.78749310  1
  Zn  Zn97  1  0.48271791  0.75766700  1.01237048  1
  Zn  Zn98  1  0.54054135  0.73529131  0.19976376  1
  Zn  Zn99  1  0.20763615  0.51447548  0.55440444  1
  Zn  Zn100  1  0.18965487  0.48510547  0.97982006  1
  Zn  Zn101  1  0.23012419  0.02611410  0.51320028  1
  O  O102  1  0.09245992  0.15541483  0.12756120  1
  O  O103  1  0.07857442  0.11012931  0.60382324  1
  O  O104  1  0.15271700  0.60642648  0.12326302  1
  O  O105  1  0.14430934  0.69874079  0.58629976  1
  O  O106  1  0.58851388  0.05628564  0.11648310  1
  O  O107  1  0.61512438  0.07301149  0.66308855  1
  O  O108  1  0.64486385  0.59202965  0.12219957  1
  O  O109  1  0.57521912  0.60968063  0.62000321  1
  O  O110  1  0.37472039  0.44408582  0.47869712  1
  O  O111  1  0.39377903  0.35348308  0.88190241  1
  O  O112  1  0.22597034  1.03636290  0.33540030  1
  O  O113  1  0.34853004  0.86570738  0.82548338  1
  O  O114  1  0.90035679  0.40950132  0.33231252  1
  O  O115  1  0.88743633  0.36987330  0.90669861  1
  O  O116  1  0.93809237  0.80218051  0.36297065  1
  O  O117  1  0.85944147  0.79048151  0.87646875  1
  O  O118  1  0.13425194  0.23330179  0.33948816  1
  O  O119  1  0.24461449  0.10394929  0.94696840  1
  O  O120  1  0.20426920  0.45357243  0.44750093  1
  O  O121  1  0.31065325  0.52536258  0.92948986  1
  O  O122  1  0.90174582  -0.04167318  0.28172514  1
  O  O123  1  0.76059460  0.04292057  0.83827514  1
  O  O124  1  0.74284280  0.47157293  0.34597063  1
  O  O125  1  0.77691048  0.49444926  0.92157621  1
  O  O126  1  0.18158491  0.46525709  0.18062005  1
  O  O127  1  0.10629576  0.51704902  0.59401395  1
  O  O128  1  0.25784408  0.99624463  0.07540014  1
  O  O129  1  0.27029463  1.01425055  0.60725292  1
  O  O130  1  0.74140463  0.47126316  0.13807216  1
  O  O131  1  0.76179311  0.46744106  0.63619065  1
  O  O132  1  0.81300877  0.98904518  0.12425680  1
  O  O133  1  0.66215598  0.96842166  0.54330606  1
  O  O134  1  0.02612979  0.43647974  0.18202658  1
  O  O135  1  0.02966153  0.38225022  0.81390539  1
  O  O136  1  0.07322216  0.86807046  0.12463029  1
  O  O137  1  0.00236390  0.86520023  0.73328363  1
  O  O138  1  0.50004405  0.38718988  0.22308671  1
  O  O139  1  0.54514148  0.34876079  0.77576290  1
  O  O140  1  0.49928524  0.77388560  0.39901459  1
  O  O141  1  0.52207852  0.83723550  0.77860243  1
  O  O142  1  0.50364139  0.12928039  0.24208404  1
  O  O143  1  0.46406371  0.15371071  0.75286799  1
  O  O144  1  0.47165716  0.64826765  0.21087932  1
  O  O145  1  0.55742559  0.66862599  0.79135566  1
  O  O146  1  1.00116639  0.13260960  0.25082776  1
  O  O147  1  1.04706941  0.15882628  0.77696348  1
  O  O148  1  0.95842541  0.64406265  0.27983725  1
  O  O149  1  1.00754773  0.57699928  0.70860196  1
  O  O150  1  0.40197942  0.25376301  -0.00290729  1
  O  O151  1  0.34256949  0.24447313  0.53300631  1
  O  O152  1  0.38388488  0.78761551  -0.03552021  1
  O  O153  1  0.38317782  0.78545176  0.52247173  1
  O  O154  1  1.00398837  0.11046157  -0.03596660  1
  O  O155  1  0.86630200  0.23728223  0.45354432  1
  O  O156  1  0.86025830  0.70757669  0.01798385  1
  O  O157  1  0.85428867  0.74772948  0.48382604  1
  O  O158  1  0.17892111  0.27460188  0.51381394  1
  O  O159  1  0.17333671  0.25372335  0.93454392  1
  O  O160  1  0.08690473  0.79284769  0.48630267  1
  O  O161  1  0.12442424  0.73254301  1.00167661  1
  O  O162  1  0.50497971  0.21168408  0.61151636  1
  O  O163  1  0.63075229  0.19423626  1.08171248  1
  O  O164  1  0.57838452  0.65224160  0.56587913  1
  O  O165  1  0.67802071  0.74675529  1.03739706  1
  O  O166  1  0.47637765  0.24864605  0.12838563  1
  O  O167  1  0.56535010  0.31409378  0.71547720  1
  O  O168  1  0.48886437  0.80053302  0.12846358  1
  O  O169  1  0.45238715  0.76162781  0.63221062  1
  O  O170  1  0.97417121  0.25751700  0.15446247  1
  O  O171  1  1.04920198  0.26436608  0.67106557  1
  O  O172  1  0.96966269  0.73779671  0.12487029  1
  O  O173  1  0.97357867  0.75630933  0.62051498  1
  O  O174  1  -0.01201252  0.25228269  0.41707253  1
  O  O175  1  0.00688661  0.26409121  0.88338926  1
  O  O176  1  -0.04815942  0.79606936  0.29575013  1
  O  O177  1  0.05274337  0.67108890  0.86296414  1
  O  O178  1  0.43813011  0.26550845  0.31218501  1
  O  O179  1  0.54324984  0.23105751  0.87926989  1
  O  O180  1  0.55164581  0.76660252  0.45306912  1
  O  O181  1  0.54455046  0.76371616  0.92292120  1
  O  O182  1  0.24381947  0.12840547  0.48234490  1
  O  O183  1  0.21164754  0.12151995  1.00618799  1
  O  O184  1  0.21160887  0.75980205  0.46275526  1
  O  O185  1  0.27340674  0.71540217  1.02859531  1
  O  O186  1  0.63266516  0.27607514  0.54478097  1
  O  O187  1  0.81954634  0.08652329  0.97744981  1
  O  O188  1  0.77517485  0.60536294  0.51780302  1
  O  O189  1  0.69519545  0.67863589  1.02790755  1
  O  O190  1  0.24493400  0.41846040  0.05003156  1
  O  O191  1  0.27313918  0.45543147  0.61723104  1
  O  O192  1  0.24150151  0.86404762  -0.06407837  1
  O  O193  1  0.18749344  0.93780486  0.47093968  1
  O  O194  1  0.76096189  0.35258166  0.03610187  1
  O  O195  1  0.74275048  0.31795831  0.41905786  1
  O  O196  1  0.79334959  0.89896422  -0.02454792  1
  O  O197  1  0.71877525  0.75048786  0.56364383  1
  O  O198  1  0.09841628  0.56449144  0.25641355  1
  O  O199  1  0.10714939  0.50042027  0.77247379  1
  O  O200  1  0.16240740  0.95913901  0.18724395  1
  O  O201  1  0.11037802  0.97866321  0.71087195  1
  O  O202  1  0.62565176  0.47838667  0.22699924  1
  O  O203  1  0.62295205  0.47648477  0.72574554  1
  O  O204  1  0.59581440  0.93751282  0.20443358  1
  O  O205  1  0.56189633  0.92093108  0.65686965  1
  O  O206  1  0.28800111  0.02761354  0.30380684  1
  O  O207  1  0.41359349  0.01848549  0.74953438  1
  O  O208  1  0.38099103  0.52201369  0.24453211  1
  O  O209  1  0.27317642  0.58012721  0.75192830  1
  O  O210  1  0.85098301  0.00676902  0.29149331  1
  O  O211  1  0.79161457  0.08562123  0.66814896  1
  O  O212  1  0.84167976  0.51721943  0.22926897  1
  O  O213  1  0.88963189  0.47707722  0.80466699  1
  O  O214  1  0.22193832  0.48224640  0.38587792  1
  O  O215  1  0.15831146  0.41504344  0.89267266  1
  O  O216  1  0.05451371  0.87714040  0.28032936  1
  O  O217  1  0.09038988  0.89084805  0.82814557  1
  O  O218  1  0.59750005  0.38075437  0.34267750  1
  O  O219  1  0.67248835  0.31629186  0.89183003  1
  O  O220  1  0.62899539  0.89587661  0.36132837  1
  O  O221  1  0.61784037  0.97188129  0.79341970  1
  O  O222  1  0.38517971  0.11598722  0.06897150  1
  O  O223  1  0.35801059  0.14228315  0.67237512  1
  O  O224  1  0.37769357  0.58505510  0.08803854  1
  O  O225  1  0.31621935  0.69737534  0.60542783  1
  O  O226  1  0.87861019  0.15994652  0.14465409  1
  O  O227  1  0.92011280  0.12098656  0.55606285  1
  O  O228  1  0.84340170  0.64105094  0.16002300  1
  O  O229  1  0.93077502  0.56482308  0.60647099  1
  O  O230  1  0.27993290  0.23622970  0.08934631  1
  O  O231  1  0.24760515  0.29343762  0.64897668  1
  O  O232  1  0.36030768  0.87662172  0.07368546  1
  O  O233  1  0.27943228  0.84825020  0.58928476  1
  O  O234  1  0.76310916  0.25363219  0.15618983  1
  O  O235  1  0.80669162  0.23729322  0.61368537  1
  O  O236  1  0.82508836  0.81546246  0.13294942  1
  O  O237  1  0.77671427  0.74193168  0.72011883  1
  O  O238  1  0.29689667  0.25431274  0.38774359  1
  O  O239  1  0.24231713  0.27144152  0.93545569  1
  O  O240  1  0.31131107  0.79706530  0.37257922  1
  O  O241  1  0.20979479  0.72038004  0.86013976  1
  O  O242  1  0.73423737  0.12109483  0.30894646  1
  O  O243  1  0.78557308  0.21016237  0.85932227  1
  O  O244  1  0.70634268  0.70509045  0.41242107  1
  O  O245  1  0.73056153  0.66536443  0.88399174  1
  O  O246  1  0.06917072  0.13278435  -0.04452444  1
  O  O247  1  0.09480211  0.06719733  0.54871722  1
  O  O248  1  0.00554677  0.62575336  -0.00553503  1
  O  O249  1  0.04092414  0.66303664  0.49534336  1
  O  O250  1  0.52090450  0.11261169  -0.01011121  1
  O  O251  1  0.42414097  0.12467376  0.43571456  1
  O  O252  1  0.51269071  0.66032081  0.05985713  1
  O  O253  1  0.44064195  0.56414921  0.57640406  1
  O  O254  1  0.53559746  0.44030434  0.51206959  1
  O  O255  1  0.52892583  0.34126325  0.99336426  1
  O  O256  1  0.56189496  0.83164089  0.50001948  1
  O  O257  1  0.46046323  0.97415934  0.94697743  1
  O  O258  1  0.93178705  0.26598731  0.46999339  1
  O  O259  1  1.01198032  0.35152491  1.00829106  1
  O  O260  1  0.94230555  0.88763988  0.51629468  1
  O  O261  1  0.98180516  0.80147173  0.95773669  1
  O  O262  1  0.54406226  0.53837087  0.39894874  1
  O  O263  1  0.45079249  0.50529801  0.80661950  1
  O  O264  1  0.52421594  1.02553887  0.35812097  1
  O  O265  1  0.48268055  0.94299777  0.88305872  1
  O  O266  1  1.00337262  0.51736717  0.39867250  1
  O  O267  1  0.99229410  0.48475303  0.92002894  1
  O  O268  1  0.92364518  1.09081413  0.39651371  1
  O  O269  1  0.96587841  1.01556272  0.75433335  1
  O  O270  1  -0.02437233  0.05758031  0.10474750  1
  O  O271  1  -0.09980463  0.05370197  0.54954886  1
  O  O272  1  -0.00130601  0.56852495  0.13164038  1
  O  O273  1  -0.01484388  0.43324406  0.65507281  1
  O  O274  1  0.54823963  -0.08866993  0.05004066  1
  O  O275  1  0.51204141  0.02332882  0.53711217  1
  O  O276  1  0.51918048  0.50648521  0.11612340  1
  O  O277  1  0.59261501  0.46095055  0.54696654  1
  O  O278  1  0.30302214  0.36199955  0.20379446  1
  O  O279  1  0.25359963  0.38876970  0.77894978  1
  O  O280  1  0.20339674  0.86804721  0.30024019  1
  O  O281  1  0.20326038  0.87270778  0.75285351  1
  O  O282  1  0.72231683  0.37068596  0.24444574  1
  O  O283  1  0.75837412  0.38077923  0.76837780  1
  O  O284  1  0.74120308  0.88509984  0.25711751  1
  O  O285  1  0.71891280  0.89392066  0.71012158  1
  O  O286  1  0.16320550  0.17916650  0.29993590  1
  O  O287  1  0.28412627  0.05939470  0.77160125  1
  O  O288  1  0.30685443  0.66993798  0.24272464  1
  O  O289  1  0.31938307  0.61756860  0.78996322  1
  O  O290  1  0.69254461  0.10228489  0.24219941  1
  O  O291  1  0.84957906  0.11290700  0.69712250  1
  O  O292  1  0.71174732  0.59616899  0.26563520  1
  O  O293  1  0.75036715  0.54978909  0.77453752  1
  O  O294  1  0.34447934  -0.03824075  0.44794385  1
  O  O295  1  0.39472347  0.11282129  0.86432309  1
  O  O296  1  0.39936153  0.64052596  0.36464256  1
  O  O297  1  0.42740627  0.62162436  0.92644922  1
  O  O298  1  0.72699627  0.07549161  0.36234576  1
  O  O299  1  0.90942683  0.11193623  0.85008005  1
  O  O300  1  0.85910546  0.57571784  0.36630223  1
  O  O301  1  0.88681279  0.59964378  0.89148803  1
  O  O302  1  0.14861498  0.32014620  0.13161582  1
  O  O303  1  0.13671300  0.39601469  0.68223138  1
  O  O304  1  0.22262623  0.84414144  0.08354735  1
  O  O305  1  0.10038891  0.88048786  0.62340627  1
  O  O306  1  0.63843294  0.36224715  0.12980767  1
  O  O307  1  0.73664738  0.36586858  0.47218232  1
  O  O308  1  0.70136407  0.89457877  0.09258075  1
  O  O309  1  0.63255179  0.78966793  0.67272324  1
  O  O310  1  0.22151044  0.20068511  0.24464769  1
  O  O311  1  0.13482996  0.28931983  0.79240986  1
  O  O312  1  0.16569099  0.76489378  0.20228403  1
  O  O313  1  0.11468699  0.77589445  0.71964869  1
  O  O314  1  0.58593674  0.26000567  0.23646929  1
  O  O315  1  0.64469209  0.17713762  0.77733051  1
  O  O316  1  0.62922774  0.76903323  0.25074289  1
  O  O317  1  0.65957910  0.81021245  0.82275820  1
  O  O318  1  0.37340039  0.20444382  0.19920909  1
  O  O319  1  0.31797014  0.20011824  0.79581928  1
  O  O320  1  0.36393677  0.83266142  0.22457447  1
  O  O321  1  0.32034529  0.76990638  0.71293837  1
  O  O322  1  0.86686361  0.25165625  0.28105102  1
  O  O323  1  0.92353504  0.28410037  0.75770954  1
  O  O324  1  0.81819334  0.70855181  0.29353342  1
  O  O325  1  0.94025420  0.59472892  0.67387879  1
  O  O326  1  0.38801307  0.47611203  0.41935787  1
  O  O327  1  0.45756100  0.46945842  0.96127320  1
  O  O328  1  0.41488694  0.94940252  0.44233013  1
  O  O329  1  0.38664909  0.97335028  0.96534783  1
  O  O330  1  0.87879340  0.46629396  0.48427007  1
  O  O331  1  0.89782041  0.50636198  1.02659967  1
  O  O332  1  0.79238462  0.89821221  0.46067337  1
  O  O333  1  0.92752041  0.93829018  0.89439515  1
  O  O334  1  0.11291682  -0.03933352  0.01665529  1
  O  O335  1  0.05194560  0.07126596  0.39641420  1
  O  O336  1  0.08849432  0.49078180  0.04342111  1
  O  O337  1  0.19455393  0.61415945  0.49524893  1
  O  O338  1  0.66013146  0.01383376  0.00636033  1
  O  O339  1  0.57726616  0.14354692  0.46263769  1
  O  O340  1  0.64251914  0.47213204  0.01891104  1
  O  O341  1  0.59853380  0.56902076  0.43084692  1
  O  O342  1  0.40058871  0.39006687  0.07332797  1
  O  O343  1  0.38253423  0.34852487  0.69337666  1
  O  O344  1  0.43512676  0.96966731  0.17323473  1
  O  O345  1  0.39565266  0.87892226  0.66157184  1
  O  O346  1  0.85715200  0.35884316  0.16251752  1
  O  O347  1  0.79741200  0.30444322  0.59626811  1
  O  O348  1  0.91269728  0.90182439  0.04685142  1
  O  O349  1  0.82166084  0.84858077  0.61196882  1
  O  O350  1  -0.01386329  0.04331419  0.40735336  1
  O  O351  1  0.13706024  0.03034654  0.85965104  1
  O  O352  1  0.11977193  0.66743769  0.39149470  1
  O  O353  1  0.16093560  0.58294471  0.92881400  1
  O  O354  1  0.49372745  0.28979741  0.47217121  1
  O  O355  1  0.66114752  0.15126685  0.94051642  1
  O  O356  1  0.45448004  0.59471547  0.51604344  1
  O  O357  1  0.62914062  0.54317862  0.87644478  1
