# generated using pymatgen
data_V51Zn51O256
_symmetry_space_group_name_H-M   'P 1'
_cell_length_a   17.23699903
_cell_length_b   17.56984224
_cell_length_c   17.33856743
_cell_angle_alpha   88.83396565
_cell_angle_beta   90.41366387
_cell_angle_gamma   89.48676029
_symmetry_Int_Tables_number   1
_chemical_formula_structural   V51Zn51O256
_chemical_formula_sum   'V51 Zn51 O256'
_cell_volume   5249.56673539
_cell_formula_units_Z   1
loop_
 _symmetry_equiv_pos_site_id
 _symmetry_equiv_pos_as_xyz
  1  'x, y, z'
loop_
 _atom_site_type_symbol
 _atom_site_label
 _atom_site_symmetry_multiplicity
 _atom_site_fract_x
 _atom_site_fract_y
 _atom_site_fract_z
 _atom_site_occupancy
  V  V0  1  0.88031093  0.40090546  0.46362070  1
  V  V1  1  0.23232331  0.36507415  0.61766836  1
  V  V2  1  0.86859771  0.14982402  0.75244356  1
  V  V3  1  0.25243958  0.72087267  0.52961880  1
  V  V4  1  0.53015634  0.92194333  0.89403243  1
  V  V5  1  0.33834522  -0.00016632  0.43211197  1
  V  V6  1  0.58245032  0.27209873  0.36615585  1
  V  V7  1  0.32482480  0.34052890  0.44563387  1
  V  V8  1  0.28585454  0.10391457  0.87647965  1
  V  V9  1  0.58702709  0.55629279  0.62370827  1
  V  V10  1  0.11209564  0.23704110  0.89262353  1
  V  V11  1  0.83692923  0.65827279  0.58603584  1
  V  V12  1  0.24807767  0.49586751  0.74512219  1
  V  V13  1  -0.03319697  0.57349659  0.64177738  1
  V  V14  1  0.11696596  0.37926500  0.75811532  1
  V  V15  1  0.74493933  0.13681033  0.88813348  1
  V  V16  1  -0.00502134  0.25599784  0.76417361  1
  V  V17  1  0.52939025  0.17841375  0.61808066  1
  V  V18  1  0.03749069  0.51433242  0.47106980  1
  V  V19  1  0.48409629  0.53290668  -0.02329983  1
  V  V20  1  0.39524639  0.13345323  0.21567216  1
  V  V21  1  0.89902621  0.62192761  0.22770384  1
  V  V22  1  0.05669491  0.37914454  0.37145931  1
  V  V23  1  0.74656832  0.29616890  0.00874755  1
  V  V24  1  0.67995991  -0.03426120  0.59076540  1
  V  V25  1  0.13973339  0.90291619  0.27316796  1
  V  V26  1  0.26210108  0.92661588  0.16874395  1
  V  V27  1  0.82080798  0.08123965  0.37683045  1
  V  V28  1  0.57540739  0.52047338  0.12488231  1
  V  V29  1  0.00743840  0.14208160  0.62147530  1
  V  V30  1  0.66156314  0.64548469  0.46114137  1
  V  V31  1  0.74998206  0.01506924  0.74551894  1
  V  V32  1  0.07029524  0.29330728  0.24272219  1
  V  V33  1  0.27829563  0.44755401  0.30198898  1
  V  V34  1  0.62979229  0.87366735  0.75369601  1
  V  V35  1  0.89435180  0.26878060  0.13484190  1
  V  V36  1  0.23601998  0.76637522  -0.01782299  1
  V  V37  1  0.39412877  0.26729508  0.09689460  1
  V  V38  1  0.37449487  0.40729596  -0.03349955  1
  V  V39  1  0.62428561  0.27009303  0.85486248  1
  V  V40  1  0.92154948  0.44772297  -0.02656254  1
  V  V41  1  0.63207482  0.14494301  0.04167061  1
  V  V42  1  0.26204743  0.25221257  -0.01455275  1
  V  V43  1  0.47215377  0.67969816  0.18639177  1
  V  V44  1  -0.00724921  -0.07874412  -0.00694219  1
  V  V45  1  0.36162993  0.25602153  0.65562398  1
  V  V46  1  0.62255455  0.91655376  0.26574115  1
  V  V47  1  0.66768953  0.39818379  0.25666287  1
  V  V48  1  0.74663719  0.63763491  0.88873815  1
  V  V49  1  0.44951516  0.79973072  0.76917225  1
  V  V50  1  0.25221517  0.39518257  0.10668805  1
  Zn  Zn51  1  0.13515154  0.98806972  0.42673049  1
  Zn  Zn52  1  0.94938457  0.89821747  0.17853390  1
  Zn  Zn53  1  0.54573537  0.62542677  0.81156734  1
  Zn  Zn54  1  0.75174649  0.46701658  0.09205142  1
  Zn  Zn55  1  0.85739595  0.59776109  0.42904574  1
  Zn  Zn56  1  0.91621424  0.22126438  0.95179188  1
  Zn  Zn57  1  0.81031348  0.84091249  0.25546992  1
  Zn  Zn58  1  0.85597739  0.06542746  0.58542432  1
  Zn  Zn59  1  0.55069427  0.83871805  0.08212474  1
  Zn  Zn60  1  0.30147926  0.09020751  0.06570998  1
  Zn  Zn61  1  0.94181061  0.64422384  0.97052237  1
  Zn  Zn62  1  0.39389744  0.47119794  0.62577611  1
  Zn  Zn63  1  0.40689809  0.94165198  0.27336088  1
  Zn  Zn64  1  0.82021868  0.32648044  0.84905232  1
  Zn  Zn65  1  0.06772258  0.31964491  0.05904765  1
  Zn  Zn66  1  0.09744823  0.55411031  0.28917859  1
  Zn  Zn67  1  0.95327885  0.98999925  0.71516756  1
  Zn  Zn68  1  0.42506010  0.16571627  0.44482444  1
  Zn  Zn69  1  0.05903785  0.75104022  0.09940695  1
  Zn  Zn70  1  0.05839942  0.68287218  0.53572444  1
  Zn  Zn71  1  0.97321349  0.43733521  0.18247302  1
  Zn  Zn72  1  0.18379007  0.18472113  0.70867862  1
  Zn  Zn73  1  0.60148536  0.56584597  0.29171644  1
  Zn  Zn74  1  0.87198430  0.78903834  0.91782077  1
  Zn  Zn75  1  0.46622792  0.16831325  0.93076708  1
  Zn  Zn76  1  0.59611419  0.12763596  0.24331936  1
  Zn  Zn77  1  0.50446330  0.31681373  0.50350708  1
  Zn  Zn78  1  0.27813318  0.84255942  0.36163641  1
  Zn  Zn79  1  0.29886729  0.31414853  0.81145356  1
  Zn  Zn80  1  0.40123187  0.06252863  0.59226586  1
  Zn  Zn81  1  0.55034645  0.32389155  -0.01839077  1
  Zn  Zn82  1  0.69048614  0.21729706  0.69454058  1
  Zn  Zn83  1  0.57241330  0.08795310  0.79537624  1
  Zn  Zn84  1  0.92632610  0.44182976  0.77657909  1
  Zn  Zn85  1  0.68244496  0.68486550  0.70262433  1
  Zn  Zn86  1  0.32693329  0.90909526  0.86604122  1
  Zn  Zn87  1  0.82236896  0.28216708  0.31097581  1
  Zn  Zn88  1  0.13960541  0.66448420  0.70785517  1
  Zn  Zn89  1  0.71007519  0.84144889  0.43401695  1
  Zn  Zn90  1  0.24845182  0.51891739  0.49386629  1
  Zn  Zn91  1  -0.03245546  -0.01096604  0.31942574  1
  Zn  Zn92  1  0.16432076  0.72777844  0.26362791  1
  Zn  Zn93  1  0.04008421  0.07224732  0.84760793  1
  Zn  Zn94  1  0.72613403  0.93709534  0.91109341  1
  Zn  Zn95  1  0.03157843  0.37871382  0.58508589  1
  Zn  Zn96  1  0.41942468  0.68927069  0.91933553  1
  Zn  Zn97  1  0.18790397  0.43089006  0.92143333  1
  Zn  Zn98  1  0.75862589  0.50460573  0.55631260  1
  Zn  Zn99  1  0.36926972  0.52835943  0.14851217  1
  Zn  Zn100  1  0.69390535  0.39148661  0.42040874  1
  Zn  Zn101  1  0.28144599  0.27138954  0.25720807  1
  O  O102  1  0.14797547  0.10572664  0.21382677  1
  O  O103  1  0.09985974  0.13189272  0.65845246  1
  O  O104  1  0.13209806  0.69846058  0.16395722  1
  O  O105  1  0.05591768  0.62822921  0.63616455  1
  O  O106  1  0.63781415  0.13225964  0.13901237  1
  O  O107  1  0.62669052  0.19661871  0.60614694  1
  O  O108  1  0.67501927  0.54442903  0.11851995  1
  O  O109  1  0.59466676  0.61515772  0.53784401  1
  O  O110  1  0.30784062  0.34044939  0.34309199  1
  O  O111  1  0.36370353  0.37803983  0.87367821  1
  O  O112  1  0.35953576  0.91653881  0.37287684  1
  O  O113  1  0.43240137  0.90849492  0.90539133  1
  O  O114  1  0.87625442  0.35450233  0.37830403  1
  O  O115  1  0.89041461  0.42192931  0.87738136  1
  O  O116  1  0.91733442  0.86956698  0.28523747  1
  O  O117  1  0.81413610  0.87743266  0.92097411  1
  O  O118  1  0.24079667  0.02130861  0.42859160  1
  O  O119  1  0.27769151  0.00705792  0.88083062  1
  O  O120  1  0.19285360  0.49210337  0.27875014  1
  O  O121  1  0.24405630  0.48994462  0.84395506  1
  O  O122  1  0.85294158  -0.01611472  0.36651736  1
  O  O123  1  0.74492076  0.03573615  0.85786094  1
  O  O124  1  0.65767792  0.47299182  0.32383249  1
  O  O125  1  0.73063998  0.53985805  0.89229556  1
  O  O126  1  0.27098087  0.49023895  0.10261291  1
  O  O127  1  0.22952636  0.46298357  0.62703846  1
  O  O128  1  0.26640139  0.99421311  0.09454790  1
  O  O129  1  0.29660425  1.00193990  0.68425168  1
  O  O130  1  0.74202059  0.41960837  0.19697060  1
  O  O131  1  0.67045116  0.50159260  0.62419358  1
  O  O132  1  0.69980962  0.96958799  0.02532119  1
  O  O133  1  0.76848748  1.01432818  0.63272756  1
  O  O134  1  0.05521209  0.39545685  0.25237867  1
  O  O135  1  0.00330869  0.36100940  0.75205719  1
  O  O136  1  0.01957482  0.81208517  0.18009411  1
  O  O137  1  0.06041081  0.84615191  0.63334732  1
  O  O138  1  0.58762374  0.27303998  0.17194336  1
  O  O139  1  0.50448217  0.41967512  0.79796563  1
  O  O140  1  0.51905815  0.92949053  0.27858897  1
  O  O141  1  0.52306696  0.87512171  0.78686391  1
  O  O142  1  0.48791000  0.14896073  0.24836864  1
  O  O143  1  0.51838588  0.13772946  0.70808774  1
  O  O144  1  0.54976491  0.60139488  0.19669193  1
  O  O145  1  0.32382806  0.67150827  0.78385186  1
  O  O146  1  1.14081240  0.11121817  0.28325136  1
  O  O147  1  0.97614791  0.13944572  0.77863449  1
  O  O148  1  1.00423168  0.61769668  0.24673378  1
  O  O149  1  0.95755447  0.53576877  0.73096237  1
  O  O150  1  0.36147322  0.25356608  -0.02684102  1
  O  O151  1  0.34091584  0.24590255  0.46440390  1
  O  O152  1  0.33774303  0.74850737  -0.03881875  1
  O  O153  1  0.32940563  0.66901328  0.56604954  1
  O  O154  1  0.83951796  0.30917703  -0.03780782  1
  O  O155  1  0.88526698  0.31314047  0.53306325  1
  O  O156  1  0.86760641  0.72277846  0.01033992  1
  O  O157  1  0.86317251  0.68688582  0.49480074  1
  O  O158  1  0.13623889  0.18827099  0.43506487  1
  O  O159  1  0.13260421  0.25806402  0.99058771  1
  O  O160  1  0.14866665  0.73697095  0.50274159  1
  O  O161  1  0.14050708  0.76451465  1.01917322  1
  O  O162  1  0.61150839  0.32478099  0.45434183  1
  O  O163  1  0.64521754  0.24540718  1.02035112  1
  O  O164  1  0.67874845  0.74007968  0.46379721  1
  O  O165  1  0.65496103  0.76108548  1.07908447  1
  O  O166  1  0.48614741  0.27032991  0.06119051  1
  O  O167  1  0.47539827  0.26897012  0.60657789  1
  O  O168  1  0.49986242  0.75081876  0.12400902  1
  O  O169  1  0.45765812  0.77838182  0.67899696  1
  O  O170  1  1.02316742  0.26823802  0.15749740  1
  O  O171  1  0.99463320  0.24304257  0.66610565  1
  O  O172  1  1.01479640  0.66703869  0.04773721  1
  O  O173  1  0.91785292  0.67342549  0.64577524  1
  O  O174  1  0.02837531  0.28032168  0.33583077  1
  O  O175  1  0.00695560  0.25204706  0.88548250  1
  O  O176  1  0.01422683  0.82402449  0.45025241  1
  O  O177  1  -0.04914737  0.71936123  0.88593912  1
  O  O178  1  0.49533435  0.24282135  0.40946268  1
  O  O179  1  0.52740744  0.24866994  0.88701182  1
  O  O180  1  0.47977973  0.69437103  0.29693369  1
  O  O181  1  0.47846663  0.71632165  0.82980813  1
  O  O182  1  0.22495073  0.09278597  0.57563008  1
  O  O183  1  0.25620811  0.14285914  0.97592877  1
  O  O184  1  0.23852941  0.63098725  0.47761546  1
  O  O185  1  0.19301922  0.75292011  0.89192747  1
  O  O186  1  0.84987892  0.08983122  0.47746781  1
  O  O187  1  0.72361878  0.12214776  0.98648856  1
  O  O188  1  0.74615608  0.58647843  0.46726241  1
  O  O189  1  0.72179849  0.65902312  0.98145692  1
  O  O190  1  0.25889910  0.37281345  -0.01351866  1
  O  O191  1  0.24199800  0.35523084  0.51677741  1
  O  O192  1  0.25690982  0.81865214  0.06798323  1
  O  O193  1  0.28373297  0.80984375  0.55926622  1
  O  O194  1  0.71263822  0.38298406  0.02743194  1
  O  O195  1  0.77852156  0.42177353  0.48460457  1
  O  O196  1  0.70264499  0.80709261  0.05101482  1
  O  O197  1  0.87029187  0.85252340  0.55798596  1
  O  O198  1  0.10608224  0.53190493  0.15440199  1
  O  O199  1  0.11191754  0.47210192  0.74576516  1
  O  O200  1  0.06586307  0.96581854  0.26223662  1
  O  O201  1  0.05347778  0.99605451  0.76698857  1
  O  O202  1  0.58736333  0.43899783  0.18262626  1
  O  O203  1  0.59112841  0.61548627  0.70804610  1
  O  O204  1  0.61768036  1.01890125  0.26167395  1
  O  O205  1  0.65745096  1.04641210  0.72888794  1
  O  O206  1  0.38769771  0.03678938  0.21959789  1
  O  O207  1  0.35609950  -0.01123065  0.72671636  1
  O  O208  1  0.35011031  0.49830901  0.25826211  1
  O  O209  1  0.34520281  0.49893602  0.72286995  1
  O  O210  1  0.92023087  -0.00100986  0.21500548  1
  O  O211  1  0.86029171  0.04169238  0.75947494  1
  O  O212  1  0.92253487  0.51874425  0.23611858  1
  O  O213  1  0.81116065  0.39726383  0.75357047  1
  O  O214  1  0.14769163  0.36602862  0.38841193  1
  O  O215  1  0.11872440  0.36653937  0.86038484  1
  O  O216  1  0.17447515  0.89445680  0.37370422  1
  O  O217  1  0.10453367  0.92126540  0.76999601  1
  O  O218  1  0.56868686  0.34156560  0.29661670  1
  O  O219  1  0.62579076  0.35742565  0.89863298  1
  O  O220  1  0.65255097  0.91803828  0.36809356  1
  O  O221  1  0.63938557  0.89752880  0.85637019  1
  O  O222  1  0.38006973  0.15399638  0.10924280  1
  O  O223  1  0.36495318  0.16193914  0.62908426  1
  O  O224  1  0.38925334  0.64019473  0.15768183  1
  O  O225  1  0.34920894  0.52321495  0.53841637  1
  O  O226  1  0.93154065  0.21119795  0.06065129  1
  O  O227  1  0.87599477  0.15903205  0.65321662  1
  O  O228  1  0.88826518  0.60509374  0.12950083  1
  O  O229  1  0.85287016  0.55622330  0.59968274  1
  O  O230  1  0.26628744  0.26091938  0.08695567  1
  O  O231  1  0.25200659  0.25782265  0.65259856  1
  O  O232  1  0.25091838  0.67105711  0.01102323  1
  O  O233  1  0.20231683  0.70797890  0.61905017  1
  O  O234  1  0.78912564  0.26406768  0.09517781  1
  O  O235  1  0.77785284  0.30727461  0.66142173  1
  O  O236  1  0.75063988  0.75800842  0.22985963  1
  O  O237  1  0.74900838  0.69253659  0.61730684  1
  O  O238  1  0.20223781  0.17551315  0.41416607  1
  O  O239  1  0.22728579  0.25778540  0.88173707  1
  O  O240  1  0.28695264  0.76108049  0.44001271  1
  O  O241  1  0.25321676  0.86143324  0.93827276  1
  O  O242  1  0.80821323  0.18129922  0.36896168  1
  O  O243  1  0.73135595  0.25430609  0.89274128  1
  O  O244  1  0.79364717  0.82605688  0.36462676  1
  O  O245  1  0.78175094  0.73764807  0.87095948  1
  O  O246  1  -0.00749587  0.00804680  -0.07000305  1
  O  O247  1  0.01123712  0.16830369  0.53129869  1
  O  O248  1  -0.03656740  0.53652465  -0.03706833  1
  O  O249  1  0.01768790  0.61055125  0.46467515  1
  O  O250  1  0.54196203  0.12698104  0.00746072  1
  O  O251  1  0.48880789  0.12274248  0.54362026  1
  O  O252  1  0.46791709  0.62856637  -0.00391523  1
  O  O253  1  0.47563620  0.52291958  0.36457125  1
  O  O254  1  0.41269289  0.37803505  0.47170509  1
  O  O255  1  0.47740148  0.40903774  0.97369695  1
  O  O256  1  0.53822492  0.85213261  0.52184428  1
  O  O257  1  0.56321384  0.88294408  0.98250474  1
  O  O258  1  1.01209630  0.38870323  0.46832320  1
  O  O259  1  0.99314454  0.38833083  1.01054684  1
  O  O260  1  0.99001741  0.77757955  0.49930302  1
  O  O261  1  0.99563676  0.82545881  1.03365410  1
  O  O262  1  0.47111070  0.71643974  0.47716385  1
  O  O263  1  0.50765457  0.54553323  0.87885511  1
  O  O264  1  0.49021072  0.87953086  0.47599315  1
  O  O265  1  0.54194128  1.01893009  0.87867864  1
  O  O266  1  1.04427560  0.48783879  0.36624480  1
  O  O267  1  1.10359315  0.55195770  0.88477058  1
  O  O268  1  1.02610325  0.98647741  0.41223777  1
  O  O269  1  0.96508912  0.86577690  0.91308406  1
  O  O270  1  0.00883102  -0.05198594  0.09420219  1
  O  O271  1  -0.03630378  0.04458340  0.61866672  1
  O  O272  1  0.05384619  0.50250501  0.11343164  1
  O  O273  1  -0.00007129  0.49772044  0.57957061  1
  O  O274  1  0.44902025  -0.07864622  0.08266054  1
  O  O275  1  0.62504186  0.02721588  0.54511960  1
  O  O276  1  0.46915762  0.51469475  0.09778009  1
  O  O277  1  0.50601357  0.50182107  0.62502689  1
  O  O278  1  0.26966076  0.37599507  0.20702806  1
  O  O279  1  0.22783049  0.37676492  0.74396553  1
  O  O280  1  0.23093212  0.96853544  0.25343338  1
  O  O281  1  0.17529816  0.93125123  0.76248243  1
  O  O282  1  0.71927419  0.33068047  0.32449474  1
  O  O283  1  0.77299710  0.37717892  0.68194343  1
  O  O284  1  0.72165502  0.92051776  0.23362189  1
  O  O285  1  0.73901261  0.91792849  0.75413352  1
  O  O286  1  0.31957458  0.16922007  0.27035501  1
  O  O287  1  0.24579320  0.13277329  0.78932117  1
  O  O288  1  0.26301419  0.76538874  0.28852160  1
  O  O289  1  0.20960763  0.58607862  0.72803517  1
  O  O290  1  0.77845542  0.08201013  0.28550008  1
  O  O291  1  0.76368375  0.15709204  0.75968662  1
  O  O292  1  0.79937722  0.60662608  0.24476841  1
  O  O293  1  0.75381419  0.63949433  0.78261416  1
  O  O294  1  0.39317428  0.07466733  0.39857019  1
  O  O295  1  0.38377690  0.12101211  0.87897105  1
  O  O296  1  0.45076947  0.66150364  0.43885072  1
  O  O297  1  0.34129812  0.62586868  0.83701893  1
  O  O298  1  0.92329741  0.09554500  0.35170255  1
  O  O299  1  0.84727994  0.15047145  0.89000294  1
  O  O300  1  0.88816921  0.64259540  0.33165472  1
  O  O301  1  0.84462850  0.60951204  0.90671974  1
  O  O302  1  0.15352178  0.38404517  0.09712485  1
  O  O303  1  0.12354752  0.35075796  0.64135920  1
  O  O304  1  0.17582358  0.86991928  0.17755568  1
  O  O305  1  0.10481538  0.89283844  0.60359254  1
  O  O306  1  0.65491228  0.29540793  0.17771160  1
  O  O307  1  0.50009935  0.38116312  0.74067613  1
  O  O308  1  0.60338246  0.89409013  0.16886923  1
  O  O309  1  0.61669630  0.91447852  0.66018921  1
  O  O310  1  0.16382130  0.26522825  0.24581970  1
  O  O311  1  0.10536828  0.24889385  0.77658229  1
  O  O312  1  0.09492041  0.81208884  0.29107863  1
  O  O313  1  0.11557321  0.75176766  0.75579301  1
  O  O314  1  0.62738955  0.19443535  0.32592660  1
  O  O315  1  0.63377532  0.28869780  0.75809233  1
  O  O316  1  0.61403268  0.81976912  0.29343448  1
  O  O317  1  0.64627761  0.78075527  0.74236162  1
  O  O318  1  0.40120842  0.27318672  0.19264092  1
  O  O319  1  0.37775166  0.25838157  0.75143860  1
  O  O320  1  0.43002484  0.74602571  0.26681300  1
  O  O321  1  0.35712593  0.83582811  0.78684776  1
  O  O322  1  0.87543384  0.23525192  0.22668410  1
  O  O323  1  0.88857539  0.25458344  0.78332608  1
  O  O324  1  0.90592176  0.71688851  0.19918034  1
  O  O325  1  0.95168001  0.82081462  0.73672259  1
  O  O326  1  0.28533937  0.46250919  0.40434976  1
  O  O327  1  0.37113645  0.50556268  0.96789515  1
  O  O328  1  0.36311999  0.98384391  0.52792088  1
  O  O329  1  0.45699259  0.99099631  1.07303423  1
  O  O330  1  0.90797123  0.49841104  0.44727775  1
  O  O331  1  0.84593908  0.46859342  1.03550519  1
  O  O332  1  0.90686289  0.91250233  0.55586480  1
  O  O333  1  0.89858377  0.95561719  1.01724882  1
  O  O334  1  0.09192820  -0.06397771  -0.02288577  1
  O  O335  1  0.18483099  0.03223214  0.58123331  1
  O  O336  1  0.12120121  0.52214684  -0.04466554  1
  O  O337  1  0.13334484  0.50792440  0.49429175  1
  O  O338  1  0.63969918  0.00715435  0.04164597  1
  O  O339  1  0.71270776  -0.09904662  0.52517786  1
  O  O340  1  0.57968475  0.51231843  0.01751213  1
  O  O341  1  0.49035059  0.50737689  0.43244025  1
  O  O342  1  0.36630231  0.36995489  0.07540675  1
  O  O343  1  0.34657661  0.36057814  0.62771489  1
  O  O344  1  0.34816606  0.88295150  0.19532377  1
  O  O345  1  0.42627669  1.00659601  0.69573302  1
  O  O346  1  0.90280537  0.36636962  0.14371934  1
  O  O347  1  0.91025151  0.37521101  0.57553180  1
  O  O348  1  0.84555479  0.86835234  0.15080036  1
  O  O349  1  0.91196954  0.88109161  0.74036422  1
  O  O350  1  0.11981836  0.02909446  0.53863394  1
  O  O351  1  0.11382665  0.13889661  0.89269767  1
  O  O352  1  0.13300990  0.64713013  0.32787593  1
  O  O353  1  0.07686400  0.61930789  0.87943427  1
  O  O354  1  0.73520983  0.05376623  0.42224536  1
  O  O355  1  0.64250851  0.15696109  0.85368935  1
  O  O356  1  0.61855889  0.63244312  0.37356642  1
  O  O357  1  0.64549212  0.65830070  0.86653622  1
