# generated using pymatgen
data_V51Zn51O256
_symmetry_space_group_name_H-M   'P 1'
_cell_length_a   17.84643650
_cell_length_b   17.52695077
_cell_length_c   17.59560394
_cell_angle_alpha   89.60676769
_cell_angle_beta   90.37579567
_cell_angle_gamma   89.18427744
_symmetry_Int_Tables_number   1
_chemical_formula_structural   V51Zn51O256
_chemical_formula_sum   'V51 Zn51 O256'
_cell_volume   5502.98320185
_cell_formula_units_Z   1
loop_
 _symmetry_equiv_pos_site_id
 _symmetry_equiv_pos_as_xyz
  1  'x, y, z'
loop_
 _atom_site_type_symbol
 _atom_site_label
 _atom_site_symmetry_multiplicity
 _atom_site_fract_x
 _atom_site_fract_y
 _atom_site_fract_z
 _atom_site_occupancy
  V  V0  1  0.50450141  0.26977231  0.76157238  1
  V  V1  1  0.62625783  0.86681593  0.74687113  1
  V  V2  1  -0.01870489  0.89478626  0.85391503  1
  V  V3  1  -0.02678027  0.43973522  0.01539212  1
  V  V4  1  0.76579530  0.83703362  0.17923123  1
  V  V5  1  0.24765898  0.62062723  0.40530486  1
  V  V6  1  0.00036920  -0.02104829  0.02855035  1
  V  V7  1  0.54426591  0.11064265  0.66394711  1
  V  V8  1  0.65837216  0.62055796  0.01482320  1
  V  V9  1  0.48127949  0.54677099  -0.00255337  1
  V  V10  1  0.51066111  -0.03362101  -0.00223374  1
  V  V11  1  0.38797016  0.10898072  0.75472245  1
  V  V12  1  0.63680108  0.43048234  0.22465090  1
  V  V13  1  0.36072169  0.14872605  0.27094336  1
  V  V14  1  0.40942216  -0.01907532  0.87277218  1
  V  V15  1  0.84467970  0.27198917  0.62570355  1
  V  V16  1  0.12826372  0.70355949  0.01013100  1
  V  V17  1  0.50603999  0.46643396  0.54793210  1
  V  V18  1  0.60308649  0.01726654  0.12584890  1
  V  V19  1  0.37495825  0.25432324  0.05080955  1
  V  V20  1  0.00597481  -0.00257169  0.49693569  1
  V  V21  1  0.49683168  0.65333624  0.61246527  1
  V  V22  1  0.61649575  0.31282313  0.88427070  1
  V  V23  1  0.33254091  0.68043545  0.75585982  1
  V  V24  1  0.51307535  0.73973131  0.77025974  1
  V  V25  1  0.15199014  0.87932650  0.76688142  1
  V  V26  1  0.07592892  0.23806400  0.72986957  1
  V  V27  1  0.53549937  0.00615732  0.50740313  1
  V  V28  1  0.03141378  0.49731123  0.46727943  1
  V  V29  1  0.62877441  0.64613500  0.51686128  1
  V  V30  1  0.26178329  0.08086390  0.89335992  1
  V  V31  1  0.93704623  0.54111990  0.22609281  1
  V  V32  1  0.79393831  0.62398001  0.87869096  1
  V  V33  1  0.64419508  0.13656848  0.53370146  1
  V  V34  1  0.38864372  0.31174148  0.55674415  1
  V  V35  1  0.34520700  0.87911577  0.54483947  1
  V  V36  1  0.26636117  0.39467564  -0.02787603  1
  V  V37  1  0.45257943  0.38630226  0.31937566  1
  V  V38  1  0.72622750  0.58759118  0.37630967  1
  V  V39  1  -0.00641651  0.15026273  0.25812375  1
  V  V40  1  0.24140891  0.51475736  0.18205743  1
  V  V41  1  0.86357128  0.75221658  0.62303538  1
  V  V42  1  0.77792896  0.75047637  0.00376999  1
  V  V43  1  -0.02202303  0.63423614  0.64896765  1
  V  V44  1  0.59892142  0.25945406  0.32348286  1
  V  V45  1  0.18187448  0.29646846  0.10681757  1
  V  V46  1  0.37900818  0.01384720  0.40462963  1
  V  V47  1  -0.03527667  0.35744040  0.84015376  1
  V  V48  1  0.12130350  0.53500247  0.62817994  1
  V  V49  1  0.74920228  0.50314650  0.77086104  1
  V  V50  1  0.73064682  0.27872453  0.46878382  1
  Zn  Zn51  1  0.09661896  0.03668151  0.78146841  1
  Zn  Zn52  1  0.54420497  0.36005312  0.05821205  1
  Zn  Zn53  1  1.07057183  0.42804122  0.16724527  1
  Zn  Zn54  1  0.91897047  0.96430214  0.20597125  1
  Zn  Zn55  1  0.40408825  0.69306239  0.92479825  1
  Zn  Zn56  1  0.94892810  0.93940794  0.68569931  1
  Zn  Zn57  1  0.86573937  0.60583455  0.05169512  1
  Zn  Zn58  1  0.60202651  0.51018045  0.86405216  1
  Zn  Zn59  1  0.22058040  0.18419618  0.75075353  1
  Zn  Zn60  1  0.31431724  0.84272653  0.37333897  1
  Zn  Zn61  1  0.00785594  0.33509645  0.57137802  1
  Zn  Zn62  1  0.87422672  0.19235418  0.37564291  1
  Zn  Zn63  1  0.79448093  0.71236139  0.31364459  1
  Zn  Zn64  1  0.28831195  0.56554155  -0.00970428  1
  Zn  Zn65  1  0.34201845  0.45225706  0.44109431  1
  Zn  Zn66  1  0.15626422  0.95392381  0.93463759  1
  Zn  Zn67  1  -0.01497637  0.26875153  0.11093747  1
  Zn  Zn68  1  0.63515247  0.41066042  0.71246094  1
  Zn  Zn69  1  0.57647950  0.30190500  0.59021529  1
  Zn  Zn70  1  0.92586755  0.45235299  0.66663467  1
  Zn  Zn71  1  0.53649961  0.14522026  0.19500053  1
  Zn  Zn72  1  -0.02184825  0.79110011  0.52042730  1
  Zn  Zn73  1  0.38847976  0.09097996  0.01805650  1
  Zn  Zn74  1  0.39976993  0.41871906  0.12550745  1
  Zn  Zn75  1  0.78358685  0.61015198  0.58474533  1
  Zn  Zn76  1  0.82007469  0.81602141  0.83606963  1
  Zn  Zn77  1  0.23989806  0.69975522  0.17266872  1
  Zn  Zn78  1  0.41770262  0.12959853  0.55326624  1
  Zn  Zn79  1  0.34019475  0.82192172  0.80650307  1
  Zn  Zn80  1  0.57100463  0.52290372  0.37027237  1
  Zn  Zn81  1  0.69133680  0.92089364  0.96489026  1
  Zn  Zn82  1  0.45973126  0.20437569  0.40727989  1
  Zn  Zn83  1  0.47452515  0.93831202  0.69203582  1
  Zn  Zn84  1  0.90228153  0.60760132  0.39637904  1
  Zn  Zn85  1  0.18269028  0.11813302  0.19181913  1
  Zn  Zn86  1  0.21174606  0.99485164  0.49001552  1
  Zn  Zn87  1  0.84344400  0.10977922  0.52843734  1
  Zn  Zn88  1  0.59560790  0.81649725  0.56832409  1
  Zn  Zn89  1  0.34237402  0.24807922  0.86500270  1
  Zn  Zn90  1  0.51519900  0.19296029  0.95392351  1
  Zn  Zn91  1  0.57585265  1.06272487  0.33915063  1
  Zn  Zn92  1  0.75641247  0.55797325  0.18721478  1
  Zn  Zn93  1  0.78435870  0.30651233  0.80830347  1
  Zn  Zn94  1  0.30067166  0.68236184  0.58043818  1
  Zn  Zn95  1  0.14559312  0.49509859  1.01228548  1
  Zn  Zn96  1  0.10065795  0.55820342  0.29866645  1
  Zn  Zn97  1  0.67577726  0.45919711  0.52484305  1
  Zn  Zn98  1  0.15073724  0.71859353  0.68173692  1
  Zn  Zn99  1  0.29385780  0.34606731  0.26671958  1
  Zn  Zn100  1  0.46293854  0.98978493  0.22216617  1
  Zn  Zn101  1  0.68621200  0.68506958  0.70951612  1
  O  O102  1  0.13939574  0.02481523  0.17991532  1
  O  O103  1  0.17850334  0.10663503  0.60867004  1
  O  O104  1  0.15264474  0.67674035  0.10977244  1
  O  O105  1  0.08921109  0.63531784  0.64881893  1
  O  O106  1  0.60911052  0.11131684  0.11110810  1
  O  O107  1  0.64600057  0.12284894  0.63198593  1
  O  O108  1  0.69107555  0.57717429  0.09676402  1
  O  O109  1  0.62871202  0.64250290  0.61799635  1
  O  O110  1  0.35850589  0.38053823  0.35000152  1
  O  O111  1  0.29366284  0.34315860  0.89384691  1
  O  O112  1  0.37270826  0.90123031  0.44263219  1
  O  O113  1  0.40554930  0.88435298  0.86124251  1
  O  O114  1  0.84728879  0.35761652  0.28835625  1
  O  O115  1  0.87993706  0.32177538  0.86180920  1
  O  O116  1  0.79886008  0.90615810  0.40087007  1
  O  O117  1  0.88343596  0.90207984  0.85019182  1
  O  O118  1  0.28349647  0.02215301  0.41364376  1
  O  O119  1  0.29886266  -0.01194166  0.86791297  1
  O  O120  1  0.28196498  0.52943540  0.39541216  1
  O  O121  1  0.25674105  0.42201155  0.72383743  1
  O  O122  1  0.70343689  0.05061996  0.33199645  1
  O  O123  1  0.74336991  0.01426373  0.92042807  1
  O  O124  1  0.73924392  0.49539743  0.37866201  1
  O  O125  1  0.78284155  0.51112183  0.86232032  1
  O  O126  1  0.23065529  0.52899388  0.08508204  1
  O  O127  1  0.21122645  0.54218352  0.63784895  1
  O  O128  1  0.29895057  0.98209858  0.13443447  1
  O  O129  1  0.21620254  1.10148215  0.54904861  1
  O  O130  1  0.77903285  0.40366452  0.07920774  1
  O  O131  1  0.76971977  0.51962833  0.65746100  1
  O  O132  1  0.69809472  0.97997656  0.16086685  1
  O  O133  1  0.80912396  1.04098754  0.63657402  1
  O  O134  1  0.00047856  0.25383487  0.23319089  1
  O  O135  1  -0.04419895  0.42167901  0.76926281  1
  O  O136  1  0.05863960  0.79585866  0.23069680  1
  O  O137  1  0.00149949  0.96528471  0.77627154  1
  O  O138  1  0.45574318  0.39223340  0.22376228  1
  O  O139  1  0.45306505  0.34684954  0.75674605  1
  O  O140  1  0.47669975  0.86838192  0.20949143  1
  O  O141  1  0.51989960  0.84580711  0.74536872  1
  O  O142  1  0.43762963  0.10835033  0.21825026  1
  O  O143  1  0.55212005  0.10296326  0.75583924  1
  O  O144  1  0.51103858  0.70186583  0.18410445  1
  O  O145  1  0.50851592  0.65293944  0.71853618  1
  O  O146  1  0.99117566  0.05073943  0.25863020  1
  O  O147  1  1.09256028  0.14066425  0.74646271  1
  O  O148  1  1.01557116  0.59670236  0.23524711  1
  O  O149  1  0.95598930  0.64241549  0.73717690  1
  O  O150  1  0.40459147  0.23469078  -0.04233966  1
  O  O151  1  0.40655895  0.22628477  0.50079689  1
  O  O152  1  0.39607384  0.76156538  0.02364848  1
  O  O153  1  0.32292152  0.78520376  0.54307031  1
  O  O154  1  0.89594524  0.22174403  0.03712032  1
  O  O155  1  0.81905701  0.26297745  0.42877495  1
  O  O156  1  0.86729671  0.72071313  0.02740688  1
  O  O157  1  0.86162437  0.79678804  0.53755098  1
  O  O158  1  0.11747420  0.34401402  0.51567519  1
  O  O159  1  0.04329619  0.19267045  1.01102014  1
  O  O160  1  -0.01346098  0.73945021  0.42011919  1
  O  O161  1  0.15573340  0.79102544  1.04817149  1
  O  O162  1  0.63005453  0.23974679  0.51493756  1
  O  O163  1  0.57473963  0.28886927  0.97975699  1
  O  O164  1  0.64734290  0.74016298  0.50092450  1
  O  O165  1  0.67307939  0.71887260  1.01195059  1
  O  O166  1  0.44259240  0.31403929  0.09203380  1
  O  O167  1  0.53509912  0.23108817  0.66960225  1
  O  O168  1  0.41966862  0.76673754  0.26191244  1
  O  O169  1  0.51222823  0.74976052  0.60314551  1
  O  O170  1  0.98156293  0.15623124  0.15663285  1
  O  O171  1  1.03597500  0.25783116  0.64305839  1
  O  O172  1  1.00002083  0.76471226  0.21206898  1
  O  O173  1  0.97734293  0.74100762  0.61834351  1
  O  O174  1  -0.01229652  0.18070567  0.35799897  1
  O  O175  1  0.02533094  0.28128645  0.80777415  1
  O  O176  1  -0.06395209  0.76631161  0.36930318  1
  O  O177  1  -0.00654341  0.80468168  0.83486686  1
  O  O178  1  0.50350219  0.30218286  0.36003852  1
  O  O179  1  0.53990238  0.23613430  0.85468136  1
  O  O180  1  0.60385259  0.79795096  0.33764611  1
  O  O181  1  0.48928581  0.72189654  0.86263045  1
  O  O182  1  0.19093101  0.24655547  0.55402066  1
  O  O183  1  0.27763193  0.08776173  0.98773309  1
  O  O184  1  0.24038181  0.63924972  0.50101185  1
  O  O185  1  0.22216451  0.66308370  0.98742039  1
  O  O186  1  0.73897718  0.14027476  0.51014855  1
  O  O187  1  0.74592275  0.13282957  0.96732107  1
  O  O188  1  0.71032013  0.56910238  0.51550170  1
  O  O189  1  0.77498406  0.62207990  0.98482837  1
  O  O190  1  0.17983779  0.37214565  0.02332949  1
  O  O191  1  0.32416759  0.37052569  0.51301561  1
  O  O192  1  0.25034155  0.91834003  -0.00681451  1
  O  O193  1  0.26083018  0.92704002  0.55804098  1
  O  O194  1  0.82903048  0.22479106  0.06992145  1
  O  O195  1  0.71262800  0.37245246  0.46281437  1
  O  O196  1  0.77161943  0.84857064  -0.01199604  1
  O  O197  1  0.75693973  0.94093750  0.44415592  1
  O  O198  1  0.15191676  0.48875771  0.21820467  1
  O  O199  1  0.10860840  0.47362095  0.72359988  1
  O  O200  1  0.12746932  0.86475067  0.34915196  1
  O  O201  1  0.15204366  0.96493641  0.71856259  1
  O  O202  1  0.59374207  0.51126932  0.26045452  1
  O  O203  1  0.64640097  0.51152099  0.76370479  1
  O  O204  1  0.57028174  1.02780928  0.23334771  1
  O  O205  1  0.61370430  0.95920438  0.74026576  1
  O  O206  1  0.39757947  -0.01986129  0.31395656  1
  O  O207  1  0.42193675  0.00711492  0.76503395  1
  O  O208  1  0.31312105  0.44606617  0.19522529  1
  O  O209  1  0.36324020  0.59306423  0.75769077  1
  O  O210  1  0.95193991  -0.09449364  0.28463361  1
  O  O211  1  0.85786287  0.02428122  0.68652871  1
  O  O212  1  0.97176463  0.45060469  0.20695308  1
  O  O213  1  0.83614356  0.51372415  0.70559807  1
  O  O214  1  0.19359179  0.36535518  0.33837328  1
  O  O215  1  0.10305314  0.16057205  0.99801328  1
  O  O216  1  0.18308584  0.87540400  0.39094963  1
  O  O217  1  0.10503521  0.89598039  0.85899582  1
  O  O218  1  0.62053156  0.35848549  0.29751517  1
  O  O219  1  0.62437866  0.40708087  0.90376485  1
  O  O220  1  0.62102471  0.86516115  0.34270668  1
  O  O221  1  0.66209101  0.86747868  0.85999874  1
  O  O222  1  0.37124705  0.16902172  0.09715327  1
  O  O223  1  0.43410517  0.12073145  0.66203834  1
  O  O224  1  0.36323555  0.72215055  0.07883958  1
  O  O225  1  0.40320924  0.64414982  0.60068712  1
  O  O226  1  0.85024861  0.04178923  0.19650423  1
  O  O227  1  0.88637379  0.19189520  0.58681341  1
  O  O228  1  0.86488445  0.57750832  0.15921830  1
  O  O229  1  0.88532546  0.64423362  0.59721638  1
  O  O230  1  0.17946866  0.19809510  0.11802965  1
  O  O231  1  0.18298122  0.31791646  0.54251153  1
  O  O232  1  0.32250271  0.76473232  0.12815099  1
  O  O233  1  0.11231669  0.76532933  0.50525166  1
  O  O234  1  0.82129886  0.26349560  0.13096322  1
  O  O235  1  0.76225622  0.28539596  0.57151359  1
  O  O236  1  0.76049316  0.76250862  0.11615273  1
  O  O237  1  0.77164879  0.71580970  0.63994974  1
  O  O238  1  0.15995044  0.30401221  0.36498650  1
  O  O239  1  0.25452480  0.17861038  0.85618312  1
  O  O240  1  0.28445570  0.73547236  0.38367127  1
  O  O241  1  0.29026230  0.86024142  0.98294903  1
  O  O242  1  0.68139222  0.24371732  0.37671571  1
  O  O243  1  0.70508177  0.27439617  0.87677499  1
  O  O244  1  0.79987052  0.64880145  0.41415163  1
  O  O245  1  0.78038531  0.73264044  0.89308907  1
  O  O246  1  0.03313499  0.07022462  0.03294893  1
  O  O247  1  0.02875625  0.09328190  0.49948518  1
  O  O248  1  0.03373871  0.71038937  0.02367145  1
  O  O249  1  -0.03076007  0.57426794  0.47219885  1
  O  O250  1  0.49595627  0.10125668  0.00422701  1
  O  O251  1  0.53358480  0.12538215  0.53868607  1
  O  O252  1  0.55123982  0.60929235  0.02862325  1
  O  O253  1  0.53219253  0.63407327  0.50953939  1
  O  O254  1  0.47851432  0.36175893  0.56748954  1
  O  O255  1  0.33941391  0.42854701  1.02495623  1
  O  O256  1  0.55359870  0.91161777  0.52355156  1
  O  O257  1  0.51013227  0.87400268  0.99533503  1
  O  O258  1  0.99182204  0.41231350  0.49681757  1
  O  O259  1  0.94283476  0.36415715  1.06797545  1
  O  O260  1  1.00498537  0.89296289  0.49653901  1
  O  O261  1  0.98480967  0.88919323  0.97915800  1
  O  O262  1  0.47669046  0.47108558  0.35736254  1
  O  O263  1  0.50316381  0.51911248  0.90889586  1
  O  O264  1  0.51311191  1.00640128  0.40791834  1
  O  O265  1  0.50932250  0.99121881  0.89428659  1
  O  O266  1  1.06206401  0.48881972  0.37634285  1
  O  O267  1  1.00067980  0.40554736  0.92243068  1
  O  O268  1  0.97737400  0.98963524  0.40561575  1
  O  O269  1  0.99097897  0.99895877  0.92472593  1
  O  O270  1  -0.00661161  -0.05555954  0.12270809  1
  O  O271  1  0.00812759  -0.02683269  0.60224564  1
  O  O272  1  0.05368527  0.47530711  0.06232902  1
  O  O273  1  -0.00754435  0.53168599  0.63073746  1
  O  O274  1  0.50635162  -0.01395576  0.10974185  1
  O  O275  1  0.53014446  0.01439523  0.62638811  1
  O  O276  1  0.39080062  0.59802107  -0.01325978  1
  O  O277  1  0.51572628  0.53252559  0.61786011  1
  O  O278  1  0.21983320  0.32658982  0.18888282  1
  O  O279  1  0.32446742  0.42875515  0.72251917  1
  O  O280  1  0.28512290  0.88824914  0.27207138  1
  O  O281  1  0.24178880  0.85036234  0.78420605  1
  O  O282  1  0.73006037  0.45291167  0.21528095  1
  O  O283  1  0.74585171  0.40266916  0.76055461  1
  O  O284  1  0.76368647  0.80603060  0.27264462  1
  O  O285  1  0.72117320  0.87192952  0.80639007  1
  O  O286  1  0.27499932  0.11370015  0.24715169  1
  O  O287  1  0.29773530  0.11038710  0.72308838  1
  O  O288  1  0.26784167  0.60261980  0.21520834  1
  O  O289  1  0.25635587  0.69373057  0.68651363  1
  O  O290  1  0.73439673  0.10585088  0.30163238  1
  O  O291  1  0.72752398  0.09028449  0.77277055  1
  O  O292  1  0.73832075  0.62015172  0.27961587  1
  O  O293  1  0.74837734  0.62287684  0.78250914  1
  O  O294  1  0.38702481  0.12328989  0.36989261  1
  O  O295  1  0.37645604  0.09415183  0.86283050  1
  O  O296  1  0.32688386  0.67460453  0.35587129  1
  O  O297  1  0.31813506  0.71038294  0.85298991  1
  O  O298  1  0.85765844  0.09802519  0.42076269  1
  O  O299  1  0.79065050  0.10101020  0.79730269  1
  O  O300  1  0.89273872  0.53769823  0.31262902  1
  O  O301  1  0.88387566  0.62186742  0.87233570  1
  O  O302  1  0.08463276  0.32187755  0.12534995  1
  O  O303  1  0.10947766  0.42709720  0.66353724  1
  O  O304  1  0.24116625  0.84948013  0.22470468  1
  O  O305  1  0.15696840  0.79100842  0.55320761  1
  O  O306  1  0.60574054  0.39887384  0.13765041  1
  O  O307  1  0.61895663  0.40334755  0.60596844  1
  O  O308  1  0.68246304  0.90248369  0.15864556  1
  O  O309  1  0.65717273  0.83864158  0.65759420  1
  O  O310  1  0.09055157  0.14221794  0.26622011  1
  O  O311  1  0.16526346  0.27427482  0.72650532  1
  O  O312  1  0.22060677  0.77867706  0.24990965  1
  O  O313  1  0.10661022  0.81050892  0.71363088  1
  O  O314  1  0.60005482  0.22311240  0.23315602  1
  O  O315  1  0.59578703  0.32931948  0.77697973  1
  O  O316  1  0.55029649  0.75420025  0.16208272  1
  O  O317  1  0.61356468  0.74284472  0.77123571  1
  O  O318  1  0.35628267  0.24519325  0.26447052  1
  O  O319  1  0.41204969  0.20758277  0.78199430  1
  O  O320  1  0.45322131  0.83073386  0.27166436  1
  O  O321  1  0.40224724  0.75332551  0.73662718  1
  O  O322  1  0.89169303  0.15521942  0.27331412  1
  O  O323  1  0.81928392  0.25371024  0.71760428  1
  O  O324  1  0.91080934  0.70725510  0.32349450  1
  O  O325  1  0.87268426  0.79289107  0.72910362  1
  O  O326  1  0.42536748  0.49254682  0.50419160  1
  O  O327  1  0.22828531  0.48694570  0.93674176  1
  O  O328  1  0.41766554  1.03083543  0.50364500  1
  O  O329  1  0.40385535  0.98421918  0.98329334  1
  O  O330  1  0.89386246  0.37834145  0.33479061  1
  O  O331  1  0.91007573  0.51288558  1.01045862  1
  O  O332  1  0.91213208  1.01857517  0.52836789  1
  O  O333  1  0.90931178  1.01237678  1.04422467  1
  O  O334  1  0.10158853  -0.04294825  0.03155010  1
  O  O335  1  0.10551233  -0.00972510  0.48806240  1
  O  O336  1  0.11030530  0.60383647  -0.01418234  1
  O  O337  1  0.11079441  0.51875252  0.52763885  1
  O  O338  1  0.61793220  -0.02293116  0.02629761  1
  O  O339  1  0.63009662  0.04162709  0.48898447  1
  O  O340  1  0.48137806  0.46691431  0.05738509  1
  O  O341  1  0.57504525  0.47610198  0.47590706  1
  O  O342  1  0.28344316  0.28978330  0.04946527  1
  O  O343  1  0.35403992  0.28369355  0.63803260  1
  O  O344  1  0.35066754  0.93573434  0.14261386  1
  O  O345  1  0.40686014  0.89831325  0.61625851  1
  O  O346  1  0.76481477  0.38876801  0.01318993  1
  O  O347  1  0.90539080  0.35373963  0.61942148  1
  O  O348  1  0.84416957  0.88785843  0.16773735  1
  O  O349  1  0.87380308  0.85544664  0.67596169  1
  O  O350  1  0.19961561  0.24342761  0.37998990  1
  O  O351  1  0.16384001  0.05119518  0.87986008  1
  O  O352  1  0.16371986  0.62638674  0.35634628  1
  O  O353  1  0.12716293  0.74610283  0.92268794  1
  O  O354  1  0.55430888  0.16798061  0.36427365  1
  O  O355  1  0.70606227  0.07993726  0.94197759  1
  O  O356  1  0.63018770  0.61301446  0.40037884  1
  O  O357  1  0.65560468  0.58251178  0.92447370  1
