# generated using pymatgen
data_V51Zn51O256
_symmetry_space_group_name_H-M   'P 1'
_cell_length_a   17.65501878
_cell_length_b   17.74620827
_cell_length_c   17.59767662
_cell_angle_alpha   90.64093840
_cell_angle_beta   89.87173703
_cell_angle_gamma   89.53556521
_symmetry_Int_Tables_number   1
_chemical_formula_structural   V51Zn51O256
_chemical_formula_sum   'V51 Zn51 O256'
_cell_volume   5512.98068164
_cell_formula_units_Z   1
loop_
 _symmetry_equiv_pos_site_id
 _symmetry_equiv_pos_as_xyz
  1  'x, y, z'
loop_
 _atom_site_type_symbol
 _atom_site_label
 _atom_site_symmetry_multiplicity
 _atom_site_fract_x
 _atom_site_fract_y
 _atom_site_fract_z
 _atom_site_occupancy
  V  V0  1  0.64406389  0.32161710  0.23383023  1
  V  V1  1  -0.01211033  0.15078528  0.64302920  1
  V  V2  1  0.32213455  -0.06800264  0.85200449  1
  V  V3  1  0.85314320  0.32205118  0.47658501  1
  V  V4  1  0.76644961  0.76845647  -0.00182614  1
  V  V5  1  0.87449422  0.79429296  0.12654423  1
  V  V6  1  0.15724693  0.75901027  0.39365687  1
  V  V7  1  0.83002820  0.52149062  0.38577486  1
  V  V8  1  0.74424853  0.52410106  0.24207712  1
  V  V9  1  0.87053526  0.10366568  0.76252885  1
  V  V10  1  0.82046422  0.43103198  0.82991264  1
  V  V11  1  -0.08540999  0.52272442  0.52297635  1
  V  V12  1  0.21233541  0.88131779  0.59098007  1
  V  V13  1  0.28727959  0.66354970  0.31941248  1
  V  V14  1  0.64869564  0.86855426  0.21124427  1
  V  V15  1  0.29542429  0.37696061  0.16163384  1
  V  V16  1  0.64178754  0.52182159  0.10777207  1
  V  V17  1  0.54033660  0.90145287  0.38501052  1
  V  V18  1  -0.00285648  0.00434404  0.51465564  1
  V  V19  1  0.13210751  0.91629907  0.80985446  1
  V  V20  1  0.23443070  0.16933470  0.86551816  1
  V  V21  1  -0.01123868  0.75711845  0.24779738  1
  V  V22  1  0.50880767  0.35515643  0.89487666  1
  V  V23  1  0.86295772  0.57320449  0.71685257  1
  V  V24  1  0.59541878  0.14961435  0.50185886  1
  V  V25  1  0.37530887  0.35574295  0.00708500  1
  V  V26  1  0.85231471  0.30613287  0.07836411  1
  V  V27  1  0.51747852  -0.01470543  0.00757732  1
  V  V28  1  0.82323873  0.60488750  0.91018271  1
  V  V29  1  0.00939624  0.57455109  0.12707189  1
  V  V30  1  0.61528173  0.69782935  0.90613131  1
  V  V31  1  0.03373230  0.33564511  0.79895217  1
  V  V32  1  0.26340197  0.39111117  0.65665701  1
  V  V33  1  0.11660805  0.66987464  -0.01120407  1
  V  V34  1  0.33325696  0.75875382  0.59166653  1
  V  V35  1  0.24518505  0.64594031  0.83809220  1
  V  V36  1  0.62329413  0.23918760  0.87507721  1
  V  V37  1  0.53589090  0.75509904  0.26505672  1
  V  V38  1  0.13260329  0.43452691  0.20524487  1
  V  V39  1  0.90439108  0.12501448  0.24837255  1
  V  V40  1  0.85890820  0.00148431  0.38029356  1
  V  V41  1  0.36501661  0.19609310  0.13050051  1
  V  V42  1  0.55198418  0.89518224  0.85287830  1
  V  V43  1  0.40295249  0.15448398  0.77120608  1
  V  V44  1  0.48366089  0.50748934  -0.00469292  1
  V  V45  1  0.11843922  0.89653296  0.25887799  1
  V  V46  1  0.76573718  0.77693262  0.45767431  1
  V  V47  1  0.74633756  0.12569672  0.91299743  1
  V  V48  1  0.36689590  -0.03258676  0.34888414  1
  V  V49  1  0.41146338  0.89791233  0.52742102  1
  V  V50  1  0.88308568  0.87070163  0.51211541  1
  Zn  Zn51  1  0.32214960  0.60222181  0.47694949  1
  Zn  Zn52  1  0.56179018  0.55931162  0.28732123  1
  Zn  Zn53  1  0.43825103  0.86520272  0.71229759  1
  Zn  Zn54  1  0.08287538  0.80353159  0.11961110  1
  Zn  Zn55  1  0.34075409  -0.00073264  0.67600418  1
  Zn  Zn56  1  0.70095165  0.69049698  0.16317608  1
  Zn  Zn57  1  0.97767542  0.18031081  0.45657130  1
  Zn  Zn58  1  0.42214978  0.68726270  0.91512805  1
  Zn  Zn59  1  0.29005513  0.83410307  0.30911141  1
  Zn  Zn60  1  0.46073066  0.32928872  0.69838050  1
  Zn  Zn61  1  0.47051020  0.91283925  0.19415128  1
  Zn  Zn62  1  0.74714341  0.44283333  0.55198203  1
  Zn  Zn63  1  0.74890806  0.26187617  0.78634954  1
  Zn  Zn64  1  0.70395718  0.97144874  0.47940220  1
  Zn  Zn65  1  0.81805632  0.30961421  0.28723474  1
  Zn  Zn66  1  0.17352989  0.97661365  0.41453906  1
  Zn  Zn67  1  0.48978383  0.42560209  0.15079938  1
  Zn  Zn68  1  0.28677610  0.12415122  0.30348977  1
  Zn  Zn69  1  0.82811086  0.48717651  0.05944758  1
  Zn  Zn70  1  0.80493881  0.82246787  0.29949613  1
  Zn  Zn71  1  0.91174159  0.93059945  0.23497236  1
  Zn  Zn72  1  0.54580341  0.07967879  0.86996130  1
  Zn  Zn73  1  0.00732177  0.60629230  0.84165645  1
  Zn  Zn74  1  0.32954339  0.30801391  0.82410507  1
  Zn  Zn75  1  0.92802830  0.46672712  0.20409908  1
  Zn  Zn76  1  0.09802610  0.10093390  0.29531221  1
  Zn  Zn77  1  0.41661250  0.76602006  0.41252155  1
  Zn  Zn78  1  0.29425668  0.78150621  0.77544035  1
  Zn  Zn79  1  0.83305406  0.03632507  0.58880345  1
  Zn  Zn80  1  0.69672020  0.94473495  0.94156617  1
  Zn  Zn81  1  0.34613515  0.06630915  -0.02011414  1
  Zn  Zn82  1  0.07219824  0.83627171  0.53008379  1
  Zn  Zn83  1  0.95424927  0.69718543  0.98151750  1
  Zn  Zn84  1  0.52381644  0.28493543  0.08699350  1
  Zn  Zn85  1  0.16829802  0.21007450  0.69717422  1
  Zn  Zn86  1  0.46946275  0.10071360  0.38540567  1
  Zn  Zn87  1  0.18722350  0.24775830  0.21892419  1
  Zn  Zn88  1  0.16739692  1.03710377  0.91568388  1
  Zn  Zn89  1  0.04428435  0.17892613  0.82635568  1
  Zn  Zn90  1  0.26740440  0.48274143  0.33367602  1
  Zn  Zn91  1  0.75342574  0.18813854  0.19200677  1
  Zn  Zn92  1  0.13404940  0.78469255  0.72247213  1
  Zn  Zn93  1  0.43374301  0.18740867  0.94820023  1
  Zn  Zn94  1  0.63596405  0.50083423  0.87634196  1
  Zn  Zn95  1  0.70497501  0.37959114  0.97213375  1
  Zn  Zn96  1  0.75581400  0.70877959  0.79431606  1
  Zn  Zn97  1  0.91646204  0.41095090  0.64818608  1
  Zn  Zn98  1  0.68976316  0.39808807  0.39062836  1
  Zn  Zn99  1  0.58126765  0.35513550  0.54610751  1
  Zn  Zn100  1  0.87914705  0.25678922  0.89506709  1
  Zn  Zn101  1  0.92546087  0.68086253  0.42299085  1
  O  O102  1  0.07575035  0.21274767  0.09037175  1
  O  O103  1  0.08664600  0.15417358  0.65223877  1
  O  O104  1  0.11868302  0.56194047  0.11236331  1
  O  O105  1  0.02012404  0.72349842  0.69932747  1
  O  O106  1  0.53410262  0.08567034  0.22922795  1
  O  O107  1  0.58804465  0.15898389  0.59930584  1
  O  O108  1  0.64988309  0.61583567  0.09656410  1
  O  O109  1  0.54808782  0.52022629  0.74286624  1
  O  O110  1  0.44109714  0.44136095  0.31174216  1
  O  O111  1  0.39748862  0.35127396  0.90275742  1
  O  O112  1  0.38305583  0.86370745  0.36644519  1
  O  O113  1  0.32214587  0.83613638  0.86834804  1
  O  O114  1  1.05810069  0.32760477  0.36007143  1
  O  O115  1  0.82780530  0.32978425  0.81840363  1
  O  O116  1  0.86354187  0.90538115  0.35375028  1
  O  O117  1  0.82846942  0.83277984  0.78433173  1
  O  O118  1  0.26884996  -0.03449495  0.35946158  1
  O  O119  1  0.23729289  -0.01929616  0.83651118  1
  O  O120  1  0.29952704  0.57822874  0.27748056  1
  O  O121  1  0.23461114  0.55923891  0.81114740  1
  O  O122  1  0.76930428  0.02508881  0.40175663  1
  O  O123  1  0.74345713  0.03007864  0.89406876  1
  O  O124  1  0.72846082  0.49727986  0.34428151  1
  O  O125  1  0.72786706  0.43681076  0.87495140  1
  O  O126  1  0.21327895  0.43595498  0.14109138  1
  O  O127  1  0.27003875  0.48579268  0.63662140  1
  O  O128  1  0.26170935  0.95243755  0.10946846  1
  O  O129  1  0.24630211  0.95951839  0.63757041  1
  O  O130  1  0.74795050  0.49989676  0.14118610  1
  O  O131  1  0.67830140  0.52710243  0.60303441  1
  O  O132  1  0.73159266  1.06799611  0.17696047  1
  O  O133  1  0.73575172  1.00271928  0.57818549  1
  O  O134  1  0.04972678  0.39279429  0.38203394  1
  O  O135  1  -0.01818338  0.37404766  0.72877355  1
  O  O136  1  -0.01139399  0.85704890  0.26334401  1
  O  O137  1  0.06681574  1.00352554  0.77438746  1
  O  O138  1  0.41233211  0.23417231  0.38306372  1
  O  O139  1  0.50301586  0.36246795  0.79871537  1
  O  O140  1  0.56495791  0.89904439  0.26561754  1
  O  O141  1  0.51629104  0.83830144  0.78042520  1
  O  O142  1  0.49547900  0.13336761  0.26392494  1
  O  O143  1  0.49498641  0.13273789  0.78618180  1
  O  O144  1  0.52400843  0.65943953  0.26952704  1
  O  O145  1  0.47762905  0.67403660  0.61910620  1
  O  O146  1  0.99967678  0.13874601  0.26374866  1
  O  O147  1  0.96849448  0.14555839  0.75585438  1
  O  O148  1  0.98570783  0.63473187  0.19564200  1
  O  O149  1  0.95299538  0.58596837  0.74771252  1
  O  O150  1  0.37794549  0.25410164  0.02180625  1
  O  O151  1  0.34509111  0.20452093  0.54619898  1
  O  O152  1  0.34113214  0.70709370  0.00277498  1
  O  O153  1  0.31278714  0.85880888  0.55098073  1
  O  O154  1  0.90234457  0.26748639  0.00421761  1
  O  O155  1  0.93935785  0.27969396  0.45145598  1
  O  O156  1  0.87568004  0.76164594  0.01831597  1
  O  O157  1  0.87051089  0.76807251  0.47261251  1
  O  O158  1  0.14475440  0.14469342  0.45011898  1
  O  O159  1  0.10792922  0.19662439  1.03011212  1
  O  O160  1  0.10774261  0.74552610  0.47658492  1
  O  O161  1  0.12538153  0.75484200  1.03330997  1
  O  O162  1  0.58681798  0.24890196  0.50312689  1
  O  O163  1  0.62065983  0.23986288  1.03640761  1
  O  O164  1  0.71194933  0.72687531  0.51305150  1
  O  O165  1  0.67165981  0.73818703  0.98576481  1
  O  O166  1  0.46033977  0.21579654  0.13807589  1
  O  O167  1  0.61723348  0.38435150  0.65915035  1
  O  O168  1  0.45534142  0.66808784  0.11266049  1
  O  O169  1  0.41522935  0.78386810  0.52430890  1
  O  O170  1  0.91882449  0.37134565  0.14048027  1
  O  O171  1  0.96171293  0.23695646  0.62519019  1
  O  O172  1  0.97177879  0.77163775  0.12669083  1
  O  O173  1  0.99623002  0.71167638  0.63392712  1
  O  O174  1  0.08476874  0.16191451  0.40053078  1
  O  O175  1  -0.01708942  0.27430378  0.85740084  1
  O  O176  1  -0.02080172  0.71761030  0.33560801  1
  O  O177  1  -0.11661488  0.85017348  0.82380855  1
  O  O178  1  0.44161428  0.29669951  0.39462722  1
  O  O179  1  0.51651383  0.24572740  0.90260612  1
  O  O180  1  0.52253025  0.79062620  0.36097038  1
  O  O181  1  0.52231298  0.72754295  0.90753650  1
  O  O182  1  0.28343539  0.17671032  0.52976137  1
  O  O183  1  0.24728940  0.10385617  0.94706539  1
  O  O184  1  0.29758370  0.51274383  0.43301871  1
  O  O185  1  0.19707589  0.65545964  0.93171211  1
  O  O186  1  0.69034917  0.15478465  0.48106597  1
  O  O187  1  0.76183119  0.13084444  1.00319018  1
  O  O188  1  0.68419363  0.66445092  0.66593597  1
  O  O189  1  0.79199912  0.56489250  0.99081815  1
  O  O190  1  0.28451456  0.37315780  0.02174810  1
  O  O191  1  0.26625492  0.35895167  0.56420614  1
  O  O192  1  0.22975690  0.91197998  0.06285107  1
  O  O193  1  0.17600707  0.90421420  0.50350502  1
  O  O194  1  0.67184845  0.28860749  0.05203084  1
  O  O195  1  0.85612801  0.39640230  0.55269454  1
  O  O196  1  0.76294557  0.86064377  -0.02040722  1
  O  O197  1  0.77259106  0.87540299  0.48634405  1
  O  O198  1  0.16452069  0.47161214  0.28691421  1
  O  O199  1  0.11635286  0.58978839  0.67187315  1
  O  O200  1  0.11359347  0.98742053  0.30016180  1
  O  O201  1  0.12426061  0.99159401  0.72692392  1
  O  O202  1  0.63416219  0.51012264  0.21779586  1
  O  O203  1  0.62347034  0.51206124  0.76057600  1
  O  O204  1  0.66512329  1.04500039  0.17714280  1
  O  O205  1  0.65282734  0.97829021  0.69570755  1
  O  O206  1  0.38649102  -0.04138560  0.25273534  1
  O  O207  1  0.37720693  -0.05514860  0.76791974  1
  O  O208  1  0.47028001  0.48036154  0.25841828  1
  O  O209  1  0.47281913  0.63884561  0.67819295  1
  O  O210  1  0.87280926  0.02597381  0.27379382  1
  O  O211  1  0.87527136  0.01831188  0.79278279  1
  O  O212  1  0.84463838  0.49313643  0.26758296  1
  O  O213  1  0.84716776  0.46529991  0.73348397  1
  O  O214  1  0.21589880  0.37014475  0.39676054  1
  O  O215  1  0.08914438  0.39539023  0.86923150  1
  O  O216  1  0.11014679  0.83341630  0.34600140  1
  O  O217  1  0.11754060  0.94321711  0.90669381  1
  O  O218  1  0.61886414  0.34410307  0.32554401  1
  O  O219  1  0.61414935  0.34028111  0.91135265  1
  O  O220  1  0.62937024  0.92357427  0.41000259  1
  O  O221  1  0.64484946  0.87518109  0.87227771  1
  O  O222  1  0.35081862  0.11691356  0.07606327  1
  O  O223  1  0.37054596  0.09983022  0.69645291  1
  O  O224  1  0.40280024  0.64107859  0.14822452  1
  O  O225  1  0.32883408  0.66526713  0.56280120  1
  O  O226  1  0.89497762  0.11562324  0.15638832  1
  O  O227  1  0.89222078  0.09125685  0.65643665  1
  O  O228  1  0.92420390  0.52436537  0.10259740  1
  O  O229  1  0.86464142  0.55706307  0.61839285  1
  O  O230  1  0.27847532  0.27665627  0.15246884  1
  O  O231  1  0.23675114  0.29079758  0.66863080  1
  O  O232  1  0.33189904  0.76923360  0.04588190  1
  O  O233  1  0.23547996  0.77418247  0.61113131  1
  O  O234  1  0.78745433  0.23989116  0.10297692  1
  O  O235  1  0.80269090  0.25691661  0.51516351  1
  O  O236  1  0.76824468  0.75633262  0.10392651  1
  O  O237  1  0.61574247  0.67210640  0.66073108  1
  O  O238  1  0.26754251  0.31706223  0.40374626  1
  O  O239  1  0.24767985  0.26259652  0.88327198  1
  O  O240  1  0.24462338  0.79445618  0.40962579  1
  O  O241  1  0.20469889  0.70848118  0.76967474  1
  O  O242  1  0.80372089  0.35319071  0.38922712  1
  O  O243  1  0.72403616  0.24327343  0.90073426  1
  O  O244  1  0.74225112  0.76273491  0.36387247  1
  O  O245  1  0.79355367  0.70367302  0.90769681  1
  O  O246  1  -0.04153678  0.09517089  0.01087043  1
  O  O247  1  -0.01792619  0.10910816  0.53894142  1
  O  O248  1  0.02318756  0.63306535  0.04410412  1
  O  O249  1  -0.04704753  0.60769085  0.50051223  1
  O  O250  1  0.47915042  0.07546049  -0.03257305  1
  O  O251  1  0.49277766  0.12015706  0.49500584  1
  O  O252  1  0.46723561  0.59698699  -0.02994832  1
  O  O253  1  0.50821367  0.51656033  0.43488956  1
  O  O254  1  0.49238144  0.33079763  0.59733128  1
  O  O255  1  0.49116517  0.35952500  1.01251802  1
  O  O256  1  0.50415295  0.88509486  0.47934519  1
  O  O257  1  0.50276918  0.90633380  0.94523262  1
  O  O258  1  1.12126883  0.28307564  0.50536063  1
  O  O259  1  1.09610932  0.47295904  0.87233751  1
  O  O260  1  0.98254906  0.88264026  0.48965498  1
  O  O261  1  0.96493917  0.92710223  0.96151736  1
  O  O262  1  0.57498188  0.51494659  0.38880788  1
  O  O263  1  0.53097753  0.46220611  0.91323422  1
  O  O264  1  0.48771829  0.98432382  0.36870887  1
  O  O265  1  0.55132982  0.98476037  0.81960079  1
  O  O266  1  0.91799577  0.48257975  0.41930037  1
  O  O267  1  1.05995776  0.50704237  0.81559282  1
  O  O268  1  0.96181934  1.04231130  0.39380910  1
  O  O269  1  1.00413731  1.09031367  0.95803230  1
  O  O270  1  0.05929419  0.06083418  0.12011954  1
  O  O271  1  0.01419958  -0.01878327  0.60254899  1
  O  O272  1  0.03943168  0.47952859  0.18754909  1
  O  O273  1  -0.01919246  0.47405898  0.57206806  1
  O  O274  1  0.48582371  -0.03724226  0.09662586  1
  O  O275  1  0.59162412  -0.03152382  0.66499678  1
  O  O276  1  0.53062291  0.51053191  0.09307741  1
  O  O277  1  0.53023534  0.50298525  0.67499887  1
  O  O278  1  0.30517184  0.39726780  0.25459323  1
  O  O279  1  0.28302969  0.38320425  0.76128463  1
  O  O280  1  0.21177100  0.87471151  0.24452191  1
  O  O281  1  0.20883489  0.86084236  0.76563473  1
  O  O282  1  0.73579092  0.35755991  0.22590238  1
  O  O283  1  0.68173260  0.35958476  0.68786617  1
  O  O284  1  0.73734177  0.88942804  0.24320386  1
  O  O285  1  0.68818118  0.82966934  0.65755628  1
  O  O286  1  0.18991082  0.15118117  0.26063775  1
  O  O287  1  0.23983466  0.15912259  0.76731838  1
  O  O288  1  0.30566198  0.73334682  0.25690018  1
  O  O289  1  0.16104795  0.61903759  0.62762527  1
  O  O290  1  0.83460314  0.19992195  0.27142195  1
  O  O291  1  0.76389230  0.11387154  0.73375181  1
  O  O292  1  0.74452893  0.61904899  0.23932712  1
  O  O293  1  0.79980117  0.55941808  0.82509825  1
  O  O294  1  0.36778881  0.07562129  0.36026793  1
  O  O295  1  0.35997923  0.15024853  0.86602095  1
  O  O296  1  0.35781414  0.67355192  0.39409248  1
  O  O297  1  0.34174064  0.67158608  0.84345154  1
  O  O298  1  0.90917685  0.10606062  0.38955491  1
  O  O299  1  0.83894463  0.15603100  0.85867642  1
  O  O300  1  0.84623461  0.61374611  0.37458883  1
  O  O301  1  0.92086458  0.61007034  0.91589779  1
  O  O302  1  0.12591314  0.33794765  0.21764408  1
  O  O303  1  0.17012544  0.41671416  0.67484861  1
  O  O304  1  0.08963511  0.90223640  0.16417916  1
  O  O305  1  0.11983287  0.84921228  0.62964899  1
  O  O306  1  0.57008328  0.35159322  0.16778419  1
  O  O307  1  0.66409131  0.39645473  0.49600358  1
  O  O308  1  0.64092179  0.88918967  0.12191329  1
  O  O309  1  0.63254865  0.82607074  0.61618632  1
  O  O310  1  0.24484463  0.24818863  0.39685910  1
  O  O311  1  0.10009369  0.27298667  0.76389668  1
  O  O312  1  0.08231441  0.74819877  0.22040902  1
  O  O313  1  0.06683476  0.84767154  0.79626201  1
  O  O314  1  0.65493731  0.22487972  0.22476255  1
  O  O315  1  0.63344866  0.24750866  0.78030146  1
  O  O316  1  0.63163400  0.76325016  0.22012032  1
  O  O317  1  0.65445067  0.72330953  0.81985376  1
  O  O318  1  0.34750730  0.16641227  0.22034988  1
  O  O319  1  0.39913817  0.25267531  0.74997312  1
  O  O320  1  0.46965598  0.79436745  0.20814966  1
  O  O321  1  0.36820219  0.77742370  0.68691634  1
  O  O322  1  0.89318986  0.30515557  0.18203643  1
  O  O323  1  0.78370510  0.18578055  0.71061508  1
  O  O324  1  0.86961372  0.76318782  0.22480262  1
  O  O325  1  0.82149446  0.66267759  0.72562387  1
  O  O326  1  0.50197036  0.46270450  0.48102525  1
  O  O327  1  0.39590327  0.47174912  1.00055213  1
  O  O328  1  0.37926486  0.96992516  0.47545262  1
  O  O329  1  0.35931348  0.97086905  0.93385390  1
  O  O330  1  0.80035975  0.52031924  0.48351668  1
  O  O331  1  0.88714695  0.44786568  0.89224752  1
  O  O332  1  0.88281740  0.98197856  0.49696982  1
  O  O333  1  0.90820036  0.95733990  0.98867101  1
  O  O334  1  0.11614304  0.04114175  0.08437348  1
  O  O335  1  0.07940234  0.00275596  0.46511028  1
  O  O336  1  0.15652347  0.59398837  0.05350551  1
  O  O337  1  0.08716897  0.34099234  0.52504364  1
  O  O338  1  0.61294948  -0.00555630  0.00394557  1
  O  O339  1  0.61804057  0.05163377  0.50756655  1
  O  O340  1  0.65861741  0.47131767  0.02577498  1
  O  O341  1  0.65206014  0.56652246  0.54258824  1
  O  O342  1  0.38946962  0.38689137  0.12423243  1
  O  O343  1  0.36751781  0.38872662  0.66802708  1
  O  O344  1  0.37816867  0.82320499  0.03784759  1
  O  O345  1  0.42937861  0.93189292  0.62008659  1
  O  O346  1  0.79938623  0.38237833  0.03565187  1
  O  O347  1  0.74536822  0.36979483  0.64789733  1
  O  O348  1  0.87234405  0.88926319  0.13663949  1
  O  O349  1  0.87884552  0.86346973  0.60344796  1
  O  O350  1  0.19658745  0.09968843  0.41974517  1
  O  O351  1  0.13239318  0.14398293  0.87444340  1
  O  O352  1  0.18722970  0.67024416  0.34910993  1
  O  O353  1  0.04900658  0.68253490  0.91144499  1
  O  O354  1  0.56685144  0.15142045  0.39784028  1
  O  O355  1  0.63511237  0.13801036  0.89738574  1
  O  O356  1  0.58694566  0.59605658  0.54865203  1
  O  O357  1  0.62620770  0.60297620  0.91337931  1
