# generated using pymatgen
data_V51Zn51O256
_symmetry_space_group_name_H-M   'P 1'
_cell_length_a   17.74756261
_cell_length_b   17.56415600
_cell_length_c   17.59311558
_cell_angle_alpha   90.48694922
_cell_angle_beta   90.12124219
_cell_angle_gamma   89.67194208
_symmetry_Int_Tables_number   1
_chemical_formula_structural   V51Zn51O256
_chemical_formula_sum   'V51 Zn51 O256'
_cell_volume   5483.84317351
_cell_formula_units_Z   1
loop_
 _symmetry_equiv_pos_site_id
 _symmetry_equiv_pos_as_xyz
  1  'x, y, z'
loop_
 _atom_site_type_symbol
 _atom_site_label
 _atom_site_symmetry_multiplicity
 _atom_site_fract_x
 _atom_site_fract_y
 _atom_site_fract_z
 _atom_site_occupancy
  V  V0  1  0.24538605  0.73369865  0.54479109  1
  V  V1  1  -0.00183379  0.73488488  0.74816186  1
  V  V2  1  0.19386737  0.46087474  0.66719607  1
  V  V3  1  0.25648611  0.57422083  0.44186819  1
  V  V4  1  0.26155012  0.22581059  0.47435532  1
  V  V5  1  0.85054060  0.11016122  0.27406112  1
  V  V6  1  0.15254618  0.22653207  0.82906666  1
  V  V7  1  0.54080923  0.77528293  0.74174856  1
  V  V8  1  0.85237661  0.27170899  0.60083629  1
  V  V9  1  0.75532557  0.23018387  -0.00142403  1
  V  V10  1  0.87319965  0.02782372  0.83064169  1
  V  V11  1  0.14011880  0.60818354  -0.01314212  1
  V  V12  1  0.61828029  -0.00088859  0.59379156  1
  V  V13  1  0.50564474  -0.01346239  0.46797641  1
  V  V14  1  0.88194411  0.51241396  0.88312437  1
  V  V15  1  0.53013753  0.61817234  0.64693606  1
  V  V16  1  0.90120681  0.43035794  0.43099622  1
  V  V17  1  0.14041472  0.76871564  0.39372161  1
  V  V18  1  0.51361686  0.51487717  0.47992510  1
  V  V19  1  0.38136263  0.26430119  0.03044581  1
  V  V20  1  0.07495155  0.37880372  0.75767452  1
  V  V21  1  0.48635272  0.68471654  0.21275597  1
  V  V22  1  0.28643300  0.88252301  0.62771922  1
  V  V23  1  -0.04040085  0.24230135  0.23356549  1
  V  V24  1  0.74246612  -0.03259283  0.25150327  1
  V  V25  1  0.77483485  0.90391629  0.59721332  1
  V  V26  1  0.63187573  0.90512999  0.73781457  1
  V  V27  1  0.39235735  0.65136189  0.76813076  1
  V  V28  1  0.20889595  0.32294730  0.08665250  1
  V  V29  1  0.34034171  0.09217401  0.24288738  1
  V  V30  1  0.64235372  0.63787233  0.52190384  1
  V  V31  1  0.76248349  0.68307985  0.34527179  1
  V  V32  1  0.51649114  0.16857430  0.59028194  1
  V  V33  1  0.89124459  0.15281328  0.70989066  1
  V  V34  1  0.81144242  0.67671222  0.84181786  1
  V  V35  1  0.62993194  0.14260200  0.46156600  1
  V  V36  1  0.03536838  0.72135489  0.26303706  1
  V  V37  1  0.57710019  0.85779949  0.25559051  1
  V  V38  1  0.54211852  0.30390629  0.29460072  1
  V  V39  1  0.71191002  0.85576290  -0.01239072  1
  V  V40  1  0.41611208  0.13366811  0.71959861  1
  V  V41  1  0.74713036  0.51610682  0.24410309  1
  V  V42  1  0.74710103  0.03848254  0.71836100  1
  V  V43  1  0.11815846  -0.03287336  0.12700525  1
  V  V44  1  0.58046671  0.73005975  0.37791652  1
  V  V45  1  0.40953717  0.75774032  0.61447506  1
  V  V46  1  0.86433824  0.81456627  0.08288096  1
  V  V47  1  0.86700785  0.74615440  0.59774777  1
  V  V48  1  0.67475969  0.61109576  0.94417846  1
  V  V49  1  0.36383574  0.44935921  0.96344786  1
  V  V50  1  -0.00609175  0.91358247  0.79510802  1
  Zn  Zn51  1  0.10147038  0.82603294  0.64836913  1
  Zn  Zn52  1  0.32335942  0.62162498  0.26985528  1
  Zn  Zn53  1  0.93959718  0.73018107  0.41205029  1
  Zn  Zn54  1  0.91148570  0.10620201  1.01177730  1
  Zn  Zn55  1  0.55494843  0.50886646  0.28210055  1
  Zn  Zn56  1  0.34367242  0.56352005  0.59940979  1
  Zn  Zn57  1  0.22029907  0.36667715  0.88851102  1
  Zn  Zn58  1  0.74134269  0.01821345  0.45721783  1
  Zn  Zn59  1  0.83660843  0.64256555  0.01906192  1
  Zn  Zn60  1  0.32502330  0.47869774  0.77703806  1
  Zn  Zn61  1  0.05553850  0.55314792  0.80591498  1
  Zn  Zn62  1  0.90305876  0.23757919  0.40874395  1
  Zn  Zn63  1  0.42461214  0.78982535  0.85869465  1
  Zn  Zn64  1  0.79556203  0.85526057  0.79941093  1
  Zn  Zn65  1  0.31026002  -0.01287779  0.06517579  1
  Zn  Zn66  1  0.09253461  0.89174729  0.95204732  1
  Zn  Zn67  1  0.27629743  0.27080776  0.28301281  1
  Zn  Zn68  1  0.31213112  0.30682730  0.73648468  1
  Zn  Zn69  1  0.56751009  0.81921268  0.55016490  1
  Zn  Zn70  1  0.04000259  0.04621539  0.28537011  1
  Zn  Zn71  1  0.72971206  0.41586361  0.90302898  1
  Zn  Zn72  1  0.66245655  0.16739771  0.26598002  1
  Zn  Zn73  1  0.07499210  0.76779068  0.08068396  1
  Zn  Zn74  1  0.25034479  0.50193614  0.12517485  1
  Zn  Zn75  1  0.47837762  0.60585068  0.91770051  1
  Zn  Zn76  1  0.41363753  0.63939013  0.44606776  1
  Zn  Zn77  1  0.57031663  0.04097962  0.29251797  1
  Zn  Zn78  1  0.44249538  0.94498070  0.67701739  1
  Zn  Zn79  1  0.57238126  0.77464768  0.07674534  1
  Zn  Zn80  1  0.08151228  0.21555663  0.02255476  1
  Zn  Zn81  1  0.13979294  0.17331625  0.19253120  1
  Zn  Zn82  1  0.04989499  0.09738655  0.76875533  1
  Zn  Zn83  1  0.72361076  0.78749471  0.18545576  1
  Zn  Zn84  1  0.91054280  0.98819617  0.16199355  1
  Zn  Zn85  1  0.49684616  0.17435192  0.16243167  1
  Zn  Zn86  1  0.22739332  0.91957009  0.47374702  1
  Zn  Zn87  1  0.54262443  0.31370883  0.47596938  1
  Zn  Zn88  1  0.94571715  0.78420517  0.92951140  1
  Zn  Zn89  1  0.75573606  0.02501038  0.06199859  1
  Zn  Zn90  1  0.72258551  0.51716053  0.43211086  1
  Zn  Zn91  1  0.72842955  0.16485680  0.59702909  1
  Zn  Zn92  1  0.87894972  0.84452544  0.26989607  1
  Zn  Zn93  1  0.84129774  0.31257762  0.81719505  1
  Zn  Zn94  1  0.07136348  0.60275643  0.38483819  1
  Zn  Zn95  1  0.46917838  0.45747227  0.73321898  1
  Zn  Zn96  1  0.84184620  0.59310122  0.50847621  1
  Zn  Zn97  1  -0.00776137  0.38438772  0.59672221  1
  Zn  Zn98  1  0.45086560  0.17007016  0.40769332  1
  Zn  Zn99  1  0.34967937  0.05623568  0.56574543  1
  Zn  Zn100  1  0.88536519  0.39746460  0.27931392  1
  Zn  Zn101  1  0.70837121  0.87030062  0.39966421  1
  O  O102  1  0.13419535  0.06686294  0.13363985  1
  O  O103  1  0.16276742  0.09346422  0.63491732  1
  O  O104  1  0.17036801  0.57286844  0.07693563  1
  O  O105  1  0.10171006  0.60453089  0.63888720  1
  O  O106  1  0.57411820  0.11836404  0.21393690  1
  O  O107  1  0.61717711  0.12585767  0.58286083  1
  O  O108  1  0.56761783  0.49243233  0.05897028  1
  O  O109  1  0.64223539  0.63633276  0.61900969  1
  O  O110  1  0.33681677  0.34294457  0.32110550  1
  O  O111  1  0.40136977  0.35791303  0.98604838  1
  O  O112  1  0.30621448  0.92798087  0.37726856  1
  O  O113  1  0.38812484  0.93534107  0.92287534  1
  O  O114  1  0.93535308  0.47217684  0.35026653  1
  O  O115  1  0.83945051  0.42086311  0.87039188  1
  O  O116  1  0.91069321  0.91665877  0.35963349  1
  O  O117  1  0.88692923  0.92016747  0.81405297  1
  O  O118  1  0.16939732  0.02093969  0.43065122  1
  O  O119  1  0.21775154  0.04235818  0.93226827  1
  O  O120  1  0.28209659  0.48736044  0.46081462  1
  O  O121  1  0.30079336  0.44767238  0.88216908  1
  O  O122  1  0.72898466  -0.02716270  0.35742838  1
  O  O123  1  0.76798546  0.02276438  0.81901273  1
  O  O124  1  0.75131893  0.56373918  0.33496137  1
  O  O125  1  0.69832755  0.51854858  0.92591510  1
  O  O126  1  0.21151405  0.40253763  0.14411159  1
  O  O127  1  0.28066580  0.51708878  0.67902016  1
  O  O128  1  0.21842752  0.95429083  0.11607385  1
  O  O129  1  0.27902365  0.96645878  0.56358754  1
  O  O130  1  0.78526339  0.55104171  0.14599741  1
  O  O131  1  0.73088763  0.43825321  0.64079251  1
  O  O132  1  0.71925104  0.98973192  0.15917252  1
  O  O133  1  0.73298249  1.00954955  0.60929759  1
  O  O134  1  -0.05599985  0.33691262  0.21194774  1
  O  O135  1  -0.01537797  0.39364008  0.77278243  1
  O  O136  1  -0.01399568  0.91498861  0.36541981  1
  O  O137  1  0.02396278  0.89510549  0.70707618  1
  O  O138  1  0.54391130  0.40105283  0.29285461  1
  O  O139  1  0.51901793  0.40009558  0.82408295  1
  O  O140  1  0.49004127  0.88198967  0.23985087  1
  O  O141  1  0.52561370  0.88440051  0.72076655  1
  O  O142  1  0.43259748  0.07727129  0.19982189  1
  O  O143  1  0.51325673  0.16245404  0.69232746  1
  O  O144  1  0.50800674  0.59140457  0.22593464  1
  O  O145  1  0.54806627  0.66515098  0.73527318  1
  O  O146  1  0.94703715  0.07098100  0.24005458  1
  O  O147  1  0.98569539  0.14585019  0.69316977  1
  O  O148  1  1.03227487  0.62740311  0.28689054  1
  O  O149  1  0.99616661  0.64251661  0.77472648  1
  O  O150  1  0.34527111  0.20763711  -0.03333330  1
  O  O151  1  0.36080125  0.21851209  0.44486358  1
  O  O152  1  0.34259131  0.85455147  0.16583842  1
  O  O153  1  0.39886726  0.71931445  0.52598409  1
  O  O154  1  0.85485382  0.20400689  0.01401900  1
  O  O155  1  0.86551659  0.34581684  0.38992130  1
  O  O156  1  0.89274647  0.85426723  0.00088013  1
  O  O157  1  0.90013946  0.76550072  0.50948127  1
  O  O158  1  0.16852403  0.20156096  0.47616015  1
  O  O159  1  0.12251518  0.23274098  0.92056611  1
  O  O160  1  0.15828508  0.73876538  0.57817655  1
  O  O161  1  0.15128295  0.70346823  1.03156588  1
  O  O162  1  0.63017410  0.23851978  0.46481327  1
  O  O163  1  0.66142967  0.21754295  0.97529095  1
  O  O164  1  0.61420250  0.73424954  0.48667897  1
  O  O165  1  0.62307686  0.81539315  0.99453971  1
  O  O166  1  0.48941198  0.26947463  0.22096176  1
  O  O167  1  0.51832559  0.26324715  0.57153896  1
  O  O168  1  0.49966074  0.71202789  0.11806678  1
  O  O169  1  0.51613776  0.75315267  0.62529895  1
  O  O170  1  1.03137817  0.20532407  0.17830886  1
  O  O171  1  0.89788178  0.25181220  0.51580975  1
  O  O172  1  1.03149308  0.72729715  0.16690454  1
  O  O173  1  0.94263903  0.75879496  0.66519927  1
  O  O174  1  -0.01953512  0.23475023  0.32873780  1
  O  O175  1  -0.02850467  0.23344107  0.89190098  1
  O  O176  1  0.05656343  0.72380213  0.42232435  1
  O  O177  1  -0.02342108  0.80166943  0.82466198  1
  O  O178  1  0.49907718  0.26719190  0.38128566  1
  O  O179  1  0.50783352  0.22482202  0.88905703  1
  O  O180  1  0.49441372  0.69544356  0.39913586  1
  O  O181  1  0.53315860  0.78515692  0.83771239  1
  O  O182  1  0.29102510  0.12898619  0.49486173  1
  O  O183  1  0.25909965  0.06365923  0.98620605  1
  O  O184  1  0.27124854  0.62697788  0.53570868  1
  O  O185  1  0.22803939  0.62416226  0.94778959  1
  O  O186  1  0.72907862  0.12172920  0.48749910  1
  O  O187  1  0.74625128  0.12724510  1.01107507  1
  O  O188  1  0.73621122  0.62962633  0.48812555  1
  O  O189  1  0.72448964  0.64456311  1.02162173  1
  O  O190  1  0.22572615  0.35343678  -0.00308782  1
  O  O191  1  0.26902442  0.32489891  0.46549368  1
  O  O192  1  0.20957603  0.86618627  -0.03725195  1
  O  O193  1  0.27055828  0.82852513  0.52026348  1
  O  O194  1  0.75417242  0.33110979  -0.02243891  1
  O  O195  1  0.66231975  0.43164074  0.63953069  1
  O  O196  1  0.70671540  0.95216873  -0.00248633  1
  O  O197  1  0.75579343  0.91174745  0.49643370  1
  O  O198  1  0.15341186  0.40826487  0.34175070  1
  O  O199  1  0.11932324  0.49322591  0.73892161  1
  O  O200  1  0.11533135  0.96373040  0.23022425  1
  O  O201  1  0.22772302  1.08880499  0.65940725  1
  O  O202  1  0.65276925  0.50982979  0.22722121  1
  O  O203  1  0.57798890  0.43211798  0.85783721  1
  O  O204  1  0.62384679  0.94785858  0.25958221  1
  O  O205  1  0.63228698  1.00661221  0.70654919  1
  O  O206  1  0.32497642  0.00683010  0.28499621  1
  O  O207  1  0.38670731  0.04303576  0.67587058  1
  O  O208  1  0.39045713  0.42157161  0.18612792  1
  O  O209  1  0.41535392  0.55220228  0.78262441  1
  O  O210  1  0.84000327  -0.00425700  0.25364848  1
  O  O211  1  0.84747239  0.04715605  0.70475728  1
  O  O212  1  0.83524835  0.57213975  0.20037706  1
  O  O213  1  0.84206235  0.58264056  0.81670124  1
  O  O214  1  0.10085740  0.36511590  0.35523879  1
  O  O215  1  0.12711212  0.39950400  0.84417807  1
  O  O216  1  0.14941487  0.86272582  0.41578738  1
  O  O217  1  0.07249642  0.91730423  0.85271117  1
  O  O218  1  0.68135848  0.39520186  0.41620343  1
  O  O219  1  0.61281138  0.38585945  0.90744207  1
  O  O220  1  0.60759454  0.83146676  0.35866817  1
  O  O221  1  0.63541669  0.91578200  0.82888786  1
  O  O222  1  0.32220476  0.06376377  0.14483266  1
  O  O223  1  0.42285082  0.14255316  0.58272334  1
  O  O224  1  0.32258915  0.70035909  0.09127664  1
  O  O225  1  0.42162856  0.63647373  0.65470351  1
  O  O226  1  0.86130128  0.04069236  0.08170374  1
  O  O227  1  0.84839786  0.16008637  0.61734319  1
  O  O228  1  0.88502494  0.71896659  0.08368813  1
  O  O229  1  0.84695096  0.65195149  0.60108045  1
  O  O230  1  0.17515997  0.20324914  0.09050538  1
  O  O231  1  0.26143188  0.25149007  0.56924091  1
  O  O232  1  0.26074522  0.57111573  0.20413932  1
  O  O233  1  0.30157055  0.75760535  0.63465755  1
  O  O234  1  0.74620982  0.26080077  0.09001971  1
  O  O235  1  0.75668452  0.27709851  0.58940141  1
  O  O236  1  0.76132168  0.81904013  0.07785508  1
  O  O237  1  0.78092186  0.79949513  0.60946974  1
  O  O238  1  0.23336271  0.22089812  0.36988880  1
  O  O239  1  0.24092668  0.27405670  0.82324282  1
  O  O240  1  0.21782716  0.72156575  0.43370217  1
  O  O241  1  0.23414508  0.82509270  0.90869109  1
  O  O242  1  0.71847341  0.34492291  0.38352974  1
  O  O243  1  0.78942887  0.23535326  0.89879902  1
  O  O244  1  0.75129017  0.76964226  0.38864245  1
  O  O245  1  0.75450646  0.83451691  0.90308746  1
  O  O246  1  0.00985407  0.13878605  0.01797429  1
  O  O247  1  -0.03427129  0.08115679  0.51923318  1
  O  O248  1  0.04367813  0.63234811  0.00536061  1
  O  O249  1  -0.04796996  0.62008695  0.48289369  1
  O  O250  1  0.54124485  0.03018480  -0.04715195  1
  O  O251  1  0.52182482  0.12352467  0.47693091  1
  O  O252  1  0.33889302  0.73163726  0.03105367  1
  O  O253  1  0.53137480  0.61529182  0.54050515  1
  O  O254  1  0.52605173  0.42015638  0.49459098  1
  O  O255  1  0.45713790  0.21430464  1.07101226  1
  O  O256  1  0.51655832  0.89022734  0.48228263  1
  O  O257  1  0.38432310  0.85775309  0.93770463  1
  O  O258  1  0.97293001  0.41332744  0.49373037  1
  O  O259  1  0.94484998  0.29900106  0.88826514  1
  O  O260  1  1.04728072  0.86295721  0.55208798  1
  O  O261  1  1.03902556  0.80605389  0.98788436  1
  O  O262  1  0.50716777  0.53174353  0.38550689  1
  O  O263  1  0.43556671  0.51035193  0.94266080  1
  O  O264  1  0.50914617  1.00040250  0.37094911  1
  O  O265  1  0.55156495  1.03822341  0.88140620  1
  O  O266  1  0.99890547  0.56488887  0.46233707  1
  O  O267  1  0.97598554  0.51030977  0.86801648  1
  O  O268  1  1.01958441  0.98374101  0.37475814  1
  O  O269  1  0.97992052  1.01930269  0.79675597  1
  O  O270  1  0.01774438  -0.02682772  0.13520830  1
  O  O271  1  0.06393866  -0.01283560  0.58319330  1
  O  O272  1  -0.01195362  0.53651274  0.15482329  1
  O  O273  1  0.04647796  0.59935305  0.59785218  1
  O  O274  1  0.54553184  -0.00299617  0.10063028  1
  O  O275  1  0.52122413  0.00228829  0.59872133  1
  O  O276  1  0.51379183  0.46467599  0.09190834  1
  O  O277  1  0.52933813  0.52349961  0.66870041  1
  O  O278  1  0.19333925  0.26651023  0.22025133  1
  O  O279  1  0.22863935  0.37201823  0.69402614  1
  O  O280  1  0.29448117  0.89198606  0.31810124  1
  O  O281  1  0.33386971  0.90838711  0.70732173  1
  O  O282  1  0.78332815  0.42685452  0.25422378  1
  O  O283  1  0.73823699  0.35925310  0.79383625  1
  O  O284  1  0.76976046  0.86734184  0.25137624  1
  O  O285  1  0.74149180  0.90848145  0.71394957  1
  O  O286  1  0.24159744  0.10984078  0.25378697  1
  O  O287  1  0.35148729  0.20796653  0.71167506  1
  O  O288  1  0.39786746  0.46833864  0.23775587  1
  O  O289  1  0.30174815  0.65750386  0.76345531  1
  O  O290  1  0.75056834  0.10424728  0.25661446  1
  O  O291  1  0.72169972  0.13072053  0.71086883  1
  O  O292  1  0.75966131  0.70472301  0.24911225  1
  O  O293  1  0.71496714  0.66640864  0.86616809  1
  O  O294  1  0.38816549  0.11409838  0.33034210  1
  O  O295  1  0.42771334  0.11201362  0.80920868  1
  O  O296  1  0.32916182  0.61073012  0.37838181  1
  O  O297  1  0.41434943  0.67935586  0.86903317  1
  O  O298  1  0.86064656  0.13703681  0.36633724  1
  O  O299  1  0.88188881  0.13130588  0.81070540  1
  O  O300  1  0.85435412  0.66465704  0.37360235  1
  O  O301  1  0.86848978  0.70209407  0.91966456  1
  O  O302  1  0.10685912  0.30947085  0.07644578  1
  O  O303  1  0.08043898  0.37666189  0.65303046  1
  O  O304  1  0.11792033  0.86353734  0.12217278  1
  O  O305  1  0.19541522  0.87896857  0.65633143  1
  O  O306  1  0.59964736  0.33408909  0.11572758  1
  O  O307  1  0.62306446  0.33535286  0.73791172  1
  O  O308  1  0.62107481  0.82122116  0.16843486  1
  O  O309  1  0.63413456  0.89826718  0.59957248  1
  O  O310  1  0.10959028  0.12374153  0.28354245  1
  O  O311  1  0.08647298  0.27317925  0.77025074  1
  O  O312  1  0.12720377  0.75951660  0.29184129  1
  O  O313  1  0.08935022  0.74768994  0.72456252  1
  O  O314  1  0.63339992  0.27024467  0.28178500  1
  O  O315  1  0.68644919  0.30823734  0.75355830  1
  O  O316  1  0.54874016  0.74281048  0.27103019  1
  O  O317  1  0.63597126  0.79556250  0.72548299  1
  O  O318  1  0.34164931  0.19480761  0.23362947  1
  O  O319  1  0.55342813  0.23881057  0.83953383  1
  O  O320  1  0.39318806  0.69751170  0.23614991  1
  O  O321  1  0.42311936  0.75635992  0.73824354  1
  O  O322  1  0.86794741  0.19453478  0.22001806  1
  O  O323  1  0.86821200  0.25247250  0.72505553  1
  O  O324  1  0.95575037  0.77109331  0.30340368  1
  O  O325  1  0.81952908  0.74449914  0.77437524  1
  O  O326  1  0.41941037  0.54060589  0.51296354  1
  O  O327  1  0.32033984  0.48669195  1.04139102  1
  O  O328  1  0.41315431  1.00691646  0.48797607  1
  O  O329  1  0.38981245  0.97786479  0.98621442  1
  O  O330  1  0.82505327  0.48892635  0.47163150  1
  O  O331  1  0.86625393  0.54524640  0.97390147  1
  O  O332  1  0.93154653  1.02825381  0.49012413  1
  O  O333  1  0.88673850  1.03799956  0.92452864  1
  O  O334  1  0.09921598  -0.02569630  0.02788746  1
  O  O335  1  0.07147105  -0.06590158  0.53400152  1
  O  O336  1  0.12713633  0.51044393  -0.02515601  1
  O  O337  1  0.17276936  0.47233147  0.57713833  1
  O  O338  1  0.51077331  -0.06075043  0.08349087  1
  O  O339  1  0.61940962  0.00919479  0.49043793  1
  O  O340  1  0.64940131  0.37738016  0.13792501  1
  O  O341  1  0.62538604  0.53902233  0.48266528  1
  O  O342  1  0.30802628  0.28173278  0.09859429  1
  O  O343  1  0.38480691  0.39177116  0.73762882  1
  O  O344  1  0.35741230  0.88317200  0.10251539  1
  O  O345  1  0.40706022  0.85468045  0.59987841  1
  O  O346  1  1.00327664  0.47479021  0.12432262  1
  O  O347  1  0.88986738  0.36026770  0.62421389  1
  O  O348  1  0.90129372  0.86825133  0.16137450  1
  O  O349  1  0.86338490  0.92498031  0.60433322  1
  O  O350  1  0.11165852  0.05784093  0.44998184  1
  O  O351  1  0.14516410  0.13102143  0.79935624  1
  O  O352  1  0.16881587  0.56712867  0.40038282  1
  O  O353  1  0.11071506  0.62259313  0.88923344  1
  O  O354  1  0.62792419  0.11539375  0.36614024  1
  O  O355  1  0.59732529  0.08908791  0.85905695  1
  O  O356  1  0.64605528  0.66159526  0.35863478  1
  O  O357  1  0.57810669  0.62471196  0.95080265  1
