# generated using pymatgen
data_V51Zn51O256
_symmetry_space_group_name_H-M   'P 1'
_cell_length_a   18.03343514
_cell_length_b   17.80578329
_cell_length_c   17.60023626
_cell_angle_alpha   90.47139493
_cell_angle_beta   89.29619917
_cell_angle_gamma   89.09469527
_symmetry_Int_Tables_number   1
_chemical_formula_structural   V51Zn51O256
_chemical_formula_sum   'V51 Zn51 O256'
_cell_volume   5650.09377834
_cell_formula_units_Z   1
loop_
 _symmetry_equiv_pos_site_id
 _symmetry_equiv_pos_as_xyz
  1  'x, y, z'
loop_
 _atom_site_type_symbol
 _atom_site_label
 _atom_site_symmetry_multiplicity
 _atom_site_fract_x
 _atom_site_fract_y
 _atom_site_fract_z
 _atom_site_occupancy
  V  V0  1  0.50258279  0.53376306  0.51701773  1
  V  V1  1  0.86558608  0.90644871  0.52243088  1
  V  V2  1  0.73380372  0.36293790  0.12016200  1
  V  V3  1  -0.08464468  -0.03017549  0.05796153  1
  V  V4  1  0.79199855  0.13464359  0.25384294  1
  V  V5  1  0.87512649  0.21378762  0.56938306  1
  V  V6  1  0.90460928  0.37636093  0.06960247  1
  V  V7  1  0.62130413  -0.01804556  0.63076369  1
  V  V8  1  -0.00244140  0.09292489  0.61672782  1
  V  V9  1  0.25212191  -0.03973337  0.78103728  1
  V  V10  1  0.57144635  0.24838161  0.71388161  1
  V  V11  1  0.90977113  0.69988548  0.64961725  1
  V  V12  1  0.01751885  0.86778326  0.38176507  1
  V  V13  1  0.41882735  0.15277598  0.68215467  1
  V  V14  1  0.00781813  0.51435639  0.48425911  1
  V  V15  1  0.34688379  0.47510324  0.68174000  1
  V  V16  1  0.09094716  0.13038010  0.87265450  1
  V  V17  1  0.89766887  0.47581676  0.34893919  1
  V  V18  1  0.50157689  0.50693374  0.06102833  1
  V  V19  1  0.49442152  -0.03532375  -0.04757816  1
  V  V20  1  0.66259062  0.39280865  0.79814216  1
  V  V21  1  0.81152329  -0.01742327  0.36800640  1
  V  V22  1  0.64927849  0.73284265  0.44259122  1
  V  V23  1  0.78171654  0.62969598  0.87650274  1
  V  V24  1  0.10163536  -0.03726170  0.14116740  1
  V  V25  1  0.24101962  0.86289544  0.10723189  1
  V  V26  1  0.24287071  0.64619814  0.33345921  1
  V  V27  1  0.24801971  0.14242501  -0.02698882  1
  V  V28  1  -0.01510984  0.03098915  0.43612664  1
  V  V29  1  0.90642861  0.68766948  0.10077712  1
  V  V30  1  0.14389802  -0.00366943  0.63144988  1
  V  V31  1  0.59177935  0.17037067  0.05307874  1
  V  V32  1  0.07561259  0.08509966  0.02532528  1
  V  V33  1  0.64251398  0.73612124  0.90722092  1
  V  V34  1  0.22161442  0.24319015  0.47334497  1
  V  V35  1  0.62245626  0.35880776  0.25660402  1
  V  V36  1  0.85807240  0.63729822  0.27373580  1
  V  V37  1  0.84429627  0.03320154  0.92730586  1
  V  V38  1  0.75386482  0.60641560  0.40042618  1
  V  V39  1  0.37076023  0.50515246  0.37140885  1
  V  V40  1  0.76299273  0.00104299  0.78688829  1
  V  V41  1  0.18251407  0.48192621  0.66177653  1
  V  V42  1  0.00303467  0.74643256  0.26238916  1
  V  V43  1  0.31400397  0.01368449  0.35142664  1
  V  V44  1  0.27172946  0.66286675  0.85943704  1
  V  V45  1  0.66421476  0.85634620  0.76381692  1
  V  V46  1  0.28186892  0.72020431  0.49023209  1
  V  V47  1  0.62577968  0.54646924  0.15697810  1
  V  V48  1  0.15679883  0.78872788  -0.02590915  1
  V  V49  1  0.58680863  -0.05139695  0.11487030  1
  V  V50  1  0.74427536  0.49812241  0.26096386  1
  Zn  Zn51  1  0.97026578  0.95790229  0.24268619  1
  Zn  Zn52  1  0.93370267  0.19084529  0.95608336  1
  Zn  Zn53  1  0.68126923  0.92120596  0.47636657  1
  Zn  Zn54  1  0.80021191  0.37845273  0.65390925  1
  Zn  Zn55  1  0.80539529  0.40737086  0.92305339  1
  Zn  Zn56  1  0.91341082  0.96279208  0.72843654  1
  Zn  Zn57  1  0.29240371  0.20864038  0.31085324  1
  Zn  Zn58  1  0.68066911  0.14237766  0.70553855  1
  Zn  Zn59  1  0.82055178  0.54436322  0.09280125  1
  Zn  Zn60  1  0.36944222  0.07501554  0.84809308  1
  Zn  Zn61  1  0.52001651  0.44906292  0.70492928  1
  Zn  Zn62  1  0.79761083  0.80015312  0.38112998  1
  Zn  Zn63  1  0.65055444  0.94981434  0.90550196  1
  Zn  Zn64  1  0.30650174  0.06487648  0.54896159  1
  Zn  Zn65  1  0.73731939  0.06404688  0.08494861  1
  Zn  Zn66  1  0.78564718  0.03864579  0.60038797  1
  Zn  Zn67  1  0.57309264  0.56567206  0.35629911  1
  Zn  Zn68  1  0.29701197  0.81289818  0.29902156  1
  Zn  Zn69  1  0.66310091  0.44034962  0.43037066  1
  Zn  Zn70  1  0.47668360  0.46879143  0.25405433  1
  Zn  Zn71  1  0.05416840  0.58493899  0.33042866  1
  Zn  Zn72  1  0.82740472  0.80217874  0.81957101  1
  Zn  Zn73  1  0.17620613  0.70704928  0.16219251  1
  Zn  Zn74  1  0.99194634  0.70775929  0.47576883  1
  Zn  Zn75  1  0.93468851  0.51625936  0.67211208  1
  Zn  Zn76  1  0.97276949  0.62996517  0.91577016  1
  Zn  Zn77  1  0.83254017  0.32673708  0.25828613  1
  Zn  Zn78  1  0.76657187  0.68956167  0.70424258  1
  Zn  Zn79  1  0.64212771  0.57779475  0.79630913  1
  Zn  Zn80  1  0.13982840  0.94095746  0.91732508  1
  Zn  Zn81  1  0.18906816  0.44679479  0.46020225  1
  Zn  Zn82  1  0.01084310  0.81311440  0.07861459  1
  Zn  Zn83  1  0.47668840  0.72869988  0.48630933  1
  Zn  Zn84  1  0.82929882  0.49507512  0.53121771  1
  Zn  Zn85  1  0.53990229  0.06179588  0.78452685  1
  Zn  Zn86  1  0.19154938  0.80074119  0.78953941  1
  Zn  Zn87  1  0.24905380  0.64684336  0.66912863  1
  Zn  Zn88  1  0.48515762  0.03452954  0.25727469  1
  Zn  Zn89  1  0.59988840  0.15933663  0.24576771  1
  Zn  Zn90  1  0.41295226  0.31787737  0.66267033  1
  Zn  Zn91  1  0.21466233  0.16618847  0.13382971  1
  Zn  Zn92  1  0.30805145  0.53448190  0.52287911  1
  Zn  Zn93  1  0.53347766  0.34496719  0.11848650  1
  Zn  Zn94  1  0.89980253  0.20530466  0.38054047  1
  Zn  Zn95  1  0.61505163  0.78692951  0.62752536  1
  Zn  Zn96  1  0.31486900  -0.03551989  -0.02348960  1
  Zn  Zn97  1  0.67503198  0.48034046  0.97950588  1
  Zn  Zn98  1  0.12922798  0.59329386  0.80166486  1
  Zn  Zn99  1  0.00877634  0.85407580  0.58518940  1
  Zn  Zn100  1  0.15833226  0.95754820  0.45537722  1
  Zn  Zn101  1  0.47188795  0.66772101  0.85101912  1
  O  O102  1  0.13444993  0.09867711  0.10001006  1
  O  O103  1  0.09686888  0.08438301  0.61634348  1
  O  O104  1  0.10026928  0.63525247  0.12142171  1
  O  O105  1  0.16488089  0.57710107  0.69947073  1
  O  O106  1  0.57248744  0.13331981  0.14071090  1
  O  O107  1  0.68165142  0.06098798  0.62866329  1
  O  O108  1  0.62518532  0.63654841  0.15974326  1
  O  O109  1  0.54435068  0.65422492  0.69044558  1
  O  O110  1  0.37924942  0.43476154  0.30656071  1
  O  O111  1  0.42901008  0.37881073  0.88442439  1
  O  O112  1  0.29964400  0.91587396  0.34753242  1
  O  O113  1  0.41992063  0.86763743  0.76032074  1
  O  O114  1  0.88182763  0.38123781  0.33937193  1
  O  O115  1  0.90136469  0.35370449  0.95887678  1
  O  O116  1  0.82052136  0.89389702  0.33112319  1
  O  O117  1  0.77939730  0.84019089  0.99900833  1
  O  O118  1  0.22378488  0.02955961  0.39790380  1
  O  O119  1  0.24192309  -0.03844432  0.88093245  1
  O  O120  1  0.28921223  0.47260182  0.42478909  1
  O  O121  1  0.23456125  0.57732503  0.85780626  1
  O  O122  1  0.72447877  -0.00697788  0.40177845  1
  O  O123  1  0.74946869  -0.00128545  0.90112364  1
  O  O124  1  0.73667835  0.49665112  0.36452000  1
  O  O125  1  0.76800071  0.53384243  0.93593475  1
  O  O126  1  0.13438733  0.46124456  0.14081203  1
  O  O127  1  0.32633629  0.56161925  0.63417145  1
  O  O128  1  0.20003268  0.95350705  0.13863390  1
  O  O129  1  0.21926220  1.00311312  0.57090390  1
  O  O130  1  0.73114421  0.52024635  0.15376282  1
  O  O131  1  0.85114002  0.46812014  0.63060248  1
  O  O132  1  0.67430842  0.98979597  0.12642490  1
  O  O133  1  0.81405817  0.99469070  0.69746672  1
  O  O134  1  0.09242035  0.30661628  0.19978899  1
  O  O135  1  -0.02580942  0.47043197  0.77366998  1
  O  O136  1  -0.01566605  0.84837634  0.27762816  1
  O  O137  1  -0.01856498  0.83432389  0.81159428  1
  O  O138  1  0.52635944  0.37402403  0.23164362  1
  O  O139  1  0.51243067  0.33493675  0.69602042  1
  O  O140  1  0.43007709  0.84704183  0.21157774  1
  O  O141  1  0.57250715  0.85695211  0.76314269  1
  O  O142  1  0.51327319  0.12572607  0.29580476  1
  O  O143  1  0.58473011  0.16530942  0.76923180  1
  O  O144  1  0.48308781  0.67983257  0.21480951  1
  O  O145  1  0.53657011  0.61387355  0.76298202  1
  O  O146  1  1.03952968  0.15407809  0.22846547  1
  O  O147  1  0.96891475  0.05326414  0.69784168  1
  O  O148  1  0.97228336  0.65041087  0.28048479  1
  O  O149  1  1.05931904  0.72971485  0.73337033  1
  O  O150  1  0.40506085  0.05666315  0.16248953  1
  O  O151  1  0.31239705  0.24678269  0.41755178  1
  O  O152  1  0.41014909  0.82812015  -0.18414556  1
  O  O153  1  0.37176986  0.74781589  0.48775552  1
  O  O154  1  0.88589426  0.28531974  0.00271538  1
  O  O155  1  0.88219306  0.24763346  0.47830228  1
  O  O156  1  0.94878505  0.64966607  0.02156223  1
  O  O157  1  0.85127064  0.82266803  0.48062653  1
  O  O158  1  0.13875729  0.20880746  0.50378617  1
  O  O159  1  0.14583283  0.16112680  0.95544267  1
  O  O160  1  0.19969593  0.80577995  0.48555356  1
  O  O161  1  0.07099853  0.76058828  1.00049906  1
  O  O162  1  0.55190809  0.21416451  0.49169908  1
  O  O163  1  0.57697809  0.26610711  1.05913771  1
  O  O164  1  0.64700901  0.72555081  0.53895550  1
  O  O165  1  0.64749545  0.74430806  0.99830214  1
  O  O166  1  0.42928087  0.26352945  0.14605281  1
  O  O167  1  0.64917772  0.24214305  0.65903291  1
  O  O168  1  0.47649333  0.76085524  0.07240049  1
  O  O169  1  0.53506630  0.72615861  0.69812940  1
  O  O170  1  0.98822184  0.18688675  0.19677755  1
  O  O171  1  0.96834990  0.18745947  0.60457460  1
  O  O172  1  0.96647898  0.74798828  0.16050032  1
  O  O173  1  0.97509282  0.74566483  0.57786082  1
  O  O174  1  0.01721809  0.26262890  0.34560090  1
  O  O175  1  0.00808536  0.17941858  0.87416922  1
  O  O176  1  0.00539043  0.76346111  0.38169305  1
  O  O177  1  -0.07617243  0.84514087  0.85990407  1
  O  O178  1  0.55455053  0.21506295  0.42206904  1
  O  O179  1  0.38556407  0.33353961  0.85735024  1
  O  O180  1  0.55914797  0.74422928  0.41577966  1
  O  O181  1  0.54904235  0.72768308  0.88427525  1
  O  O182  1  0.26034327  0.15789508  0.50992585  1
  O  O183  1  0.25661324  0.05424510  1.00766969  1
  O  O184  1  0.27562437  0.62680325  0.46435067  1
  O  O185  1  0.22541329  0.72200495  0.92947249  1
  O  O186  1  0.70971669  0.20545650  0.43788280  1
  O  O187  1  0.67948919  0.13841839  1.02800726  1
  O  O188  1  0.76562465  0.57007268  0.48824580  1
  O  O189  1  0.78330271  0.59602554  0.98834338  1
  O  O190  1  0.30451585  0.15209672  -0.10477876  1
  O  O191  1  0.18865808  0.33405358  0.44915094  1
  O  O192  1  0.17103771  0.88290298  0.01007105  1
  O  O193  1  0.22650753  0.87269106  0.49451384  1
  O  O194  1  0.74937648  0.40568278  0.02954140  1
  O  O195  1  0.73905239  0.41636283  0.50816078  1
  O  O196  1  0.72492330  0.87412978  0.02300830  1
  O  O197  1  0.77532340  0.93886888  0.54567246  1
  O  O198  1  0.12233756  0.52629597  0.24817964  1
  O  O199  1  0.25895593  0.44670401  0.72118359  1
  O  O200  1  0.07278108  1.00036390  0.22428914  1
  O  O201  1  0.17159243  0.99313143  0.72773944  1
  O  O202  1  0.63440669  0.51679876  0.26028104  1
  O  O203  1  0.61034930  0.47308503  0.76587961  1
  O  O204  1  0.54125939  0.96581612  0.20386508  1
  O  O205  1  0.66744580  0.97027731  0.77137333  1
  O  O206  1  0.27226602  0.02603164  0.26509571  1
  O  O207  1  0.32736854  0.01073300  0.76118444  1
  O  O208  1  0.41750240  0.66571318  0.20629122  1
  O  O209  1  0.41808332  0.47747316  0.74485999  1
  O  O210  1  0.83513946  0.05410692  0.30062888  1
  O  O211  1  0.86750215  0.00744926  0.83132611  1
  O  O212  1  0.84373459  0.49408236  0.25669730  1
  O  O213  1  0.86056517  0.43846297  0.82213237  1
  O  O214  1  0.18765356  0.38388994  0.27686321  1
  O  O215  1  0.20280809  0.29861943  0.80190875  1
  O  O216  1  0.10896247  0.88338688  0.38440214  1
  O  O217  1  -0.00811479  0.88775733  0.75703046  1
  O  O218  1  0.62401212  0.37623141  0.35304372  1
  O  O219  1  0.77645375  0.26372544  0.90727143  1
  O  O220  1  0.68713152  0.82467366  0.42254883  1
  O  O221  1  0.66254701  0.83592250  0.87113091  1
  O  O222  1  0.37212076  0.11842542  0.15582819  1
  O  O223  1  0.38111188  0.09308359  0.61599731  1
  O  O224  1  0.41014665  0.74920338  0.07895499  1
  O  O225  1  0.38199684  0.71342124  0.69190277  1
  O  O226  1  0.79883441  0.12213312  0.15938797  1
  O  O227  1  0.82331514  0.13388224  0.57098401  1
  O  O228  1  0.87068554  0.61660546  0.16765561  1
  O  O229  1  0.95205040  0.62246830  0.68722144  1
  O  O230  1  0.26760967  0.20242527  0.04740643  1
  O  O231  1  0.25559325  0.29362481  0.55011752  1
  O  O232  1  0.20372660  0.76959064  0.07597538  1
  O  O233  1  0.25579956  0.71511825  0.58570307  1
  O  O234  1  0.72592979  0.27392207  0.10649331  1
  O  O235  1  0.84170824  0.28160780  0.62953240  1
  O  O236  1  0.83299450  0.73400213  0.07487372  1
  O  O237  1  0.82996690  0.66748307  0.61044628  1
  O  O238  1  0.19562356  0.21441180  0.37497256  1
  O  O239  1  0.21160627  0.31399769  0.86934459  1
  O  O240  1  0.26110931  0.73937955  0.37401627  1
  O  O241  1  0.13694782  0.83309569  0.87994089  1
  O  O242  1  0.71400473  0.38287818  0.57131316  1
  O  O243  1  0.72072969  0.23072191  0.88665459  1
  O  O244  1  0.76344654  0.70307244  0.41743673  1
  O  O245  1  0.76758939  0.72881203  0.87991896  1
  O  O246  1  0.00473185  0.14719490  0.03219691  1
  O  O247  1  -0.03834033  0.11550696  0.39885350  1
  O  O248  1  0.06733148  0.61984411  -0.12108745  1
  O  O249  1  0.01441249  0.60622046  0.44524933  1
  O  O250  1  0.50831071  0.12094127  0.00067495  1
  O  O251  1  0.49962259  0.07061515  0.48715815  1
  O  O252  1  0.48202057  0.53174662  -0.11067687  1
  O  O253  1  0.50041901  0.62902963  0.52659360  1
  O  O254  1  0.47164833  0.33932551  0.41878883  1
  O  O255  1  0.47016273  0.41659095  1.06407218  1
  O  O256  1  0.51814847  0.80815227  0.55997383  1
  O  O257  1  0.48279701  0.87520740  0.93951003  1
  O  O258  1  1.08472804  0.46600118  0.45069136  1
  O  O259  1  0.98822828  0.36407038  1.10045427  1
  O  O260  1  0.98401113  0.89119505  0.47521880  1
  O  O261  1  0.92731318  0.87585779  1.04632122  1
  O  O262  1  0.47146130  0.54155990  0.33788577  1
  O  O263  1  0.52340778  0.49429027  0.93337986  1
  O  O264  1  0.40578044  0.99067674  0.32386107  1
  O  O265  1  0.54948334  0.99942650  0.87219008  1
  O  O266  1  0.98473707  0.49212479  0.32170867  1
  O  O267  1  0.93453639  0.44914886  0.83370572  1
  O  O268  1  0.97931963  0.96631300  0.35278307  1
  O  O269  1  0.93637298  1.00758569  0.96266484  1
  O  O270  1  -0.07913924  -0.00988802  0.15422268  1
  O  O271  1  -0.03727010  0.03981021  0.54252841  1
  O  O272  1  0.11763541  0.59405088  0.05669555  1
  O  O273  1  0.00600189  0.51674949  0.57922179  1
  O  O274  1  0.49376617  -0.02405901  0.05978704  1
  O  O275  1  0.54613581  0.01377454  0.68128808  1
  O  O276  1  0.52145937  0.52439066  0.16394789  1
  O  O277  1  0.51354164  0.49383857  0.60378594  1
  O  O278  1  0.24302981  0.34990123  0.25240238  1
  O  O279  1  0.36856630  0.40487935  0.61709547  1
  O  O280  1  0.26745772  0.83054391  0.19540210  1
  O  O281  1  0.26374549  0.86923189  0.74971257  1
  O  O282  1  0.73350872  0.39123096  0.24406288  1
  O  O283  1  0.69738949  0.41597462  0.88932970  1
  O  O284  1  0.73721645  0.82102601  0.18257590  1
  O  O285  1  0.77056333  0.88543378  0.78547176  1
  O  O286  1  0.22760772  0.17909829  0.23527212  1
  O  O287  1  0.36016275  0.23021855  0.69069045  1
  O  O288  1  0.23936648  0.66969409  0.23974202  1
  O  O289  1  0.39200525  0.77411242  0.66077963  1
  O  O290  1  0.70226524  0.13436312  0.27945972  1
  O  O291  1  0.74222404  0.09670004  0.77990263  1
  O  O292  1  0.75933165  0.60970933  0.27871883  1
  O  O293  1  0.75236641  0.60561381  0.77750963  1
  O  O294  1  0.34120695  0.11173988  0.34199762  1
  O  O295  1  0.43820838  0.11332814  0.77301224  1
  O  O296  1  0.32323221  0.58177678  0.32740673  1
  O  O297  1  0.36794225  0.66097951  0.85911250  1
  O  O298  1  0.70386603  0.26073962  0.47996895  1
  O  O299  1  0.84657037  0.12846411  0.93620954  1
  O  O300  1  0.86222483  0.58863637  0.36737695  1
  O  O301  1  0.87628401  0.62354910  0.86756754  1
  O  O302  1  0.09027884  0.48532711  0.19284768  1
  O  O303  1  0.11125861  0.42885344  0.67611487  1
  O  O304  1  0.07467891  0.87157011  0.14327295  1
  O  O305  1  0.09178751  0.92097529  0.60401957  1
  O  O306  1  0.63889324  0.39249830  0.14619006  1
  O  O307  1  0.73726554  0.37645481  0.74239203  1
  O  O308  1  0.60129508  0.85728696  0.11509602  1
  O  O309  1  0.65814697  0.88879340  0.64979027  1
  O  O310  1  0.13493373  0.28654187  0.14828533  1
  O  O311  1  0.13495299  0.13617208  0.79214191  1
  O  O312  1  0.09269415  0.73689897  0.24227163  1
  O  O313  1  0.09842512  0.78357567  0.71084903  1
  O  O314  1  0.63051950  0.26580673  0.24738811  1
  O  O315  1  0.60895877  0.31298990  0.79678821  1
  O  O316  1  0.45407223  0.82736413  0.27663747  1
  O  O317  1  0.68697571  0.76310670  0.71849145  1
  O  O318  1  0.38212429  0.25481244  0.26554479  1
  O  O319  1  0.50235486  0.19582126  0.65149354  1
  O  O320  1  0.40515120  0.79306462  0.32455215  1
  O  O321  1  0.46149916  0.90940653  0.62237645  1
  O  O322  1  0.84016047  0.21991854  0.28921798  1
  O  O323  1  0.89606367  0.27741878  0.79337495  1
  O  O324  1  0.84710387  0.72973702  0.28988508  1
  O  O325  1  0.87144431  0.75214859  0.72585647  1
  O  O326  1  0.41409441  0.51052885  0.47518908  1
  O  O327  1  0.43756862  0.56823080  1.03775473  1
  O  O328  1  0.33817074  1.01968391  0.45197998  1
  O  O329  1  0.40244952  1.00628664  0.92858702  1
  O  O330  1  0.91390404  0.47883957  0.45659948  1
  O  O331  1  0.89120250  0.47241286  1.05449526  1
  O  O332  1  0.87236984  0.98774169  0.44963900  1
  O  O333  1  0.82074009  1.00026663  1.03407096  1
  O  O334  1  0.03927806  -0.00255617  0.06184776  1
  O  O335  1  0.07816373  0.03043830  0.45004312  1
  O  O336  1  0.18576186  0.58561934  0.03981445  1
  O  O337  1  0.21064540  0.48180879  0.56509246  1
  O  O338  1  0.59484188  -0.03476336  0.00150339  1
  O  O339  1  0.60164707  -0.03419071  0.53631617  1
  O  O340  1  0.60737005  0.52320442  0.05062340  1
  O  O341  1  0.57806351  0.50446447  0.45665859  1
  O  O342  1  0.37415743  0.27690456  0.19068048  1
  O  O343  1  0.46415946  0.34242674  0.48828151  1
  O  O344  1  0.31702336  0.88827996  0.05533092  1
  O  O345  1  0.46038633  0.86781233  0.56507801  1
  O  O346  1  0.83968470  0.35649711  0.14981417  1
  O  O347  1  0.95469165  0.28854433  0.75965231  1
  O  O348  1  0.78799023  0.86488423  0.17470303  1
  O  O349  1  0.90999311  0.89965293  0.61050659  1
  O  O350  1  0.03270258  0.32877083  0.36163624  1
  O  O351  1  0.08685746  0.03752337  0.92262472  1
  O  O352  1  0.15757779  0.61320476  0.35764389  1
  O  O353  1  0.23824393  0.70164611  0.77074479  1
  O  O354  1  0.53274385  0.05697116  0.42706500  1
  O  O355  1  0.54417880  0.16131261  0.94849969  1
  O  O356  1  0.65225721  0.63145934  0.39309416  1
  O  O357  1  0.66453356  0.63304527  0.88965661  1
