# generated using pymatgen
data_V51Zn51O256
_symmetry_space_group_name_H-M   'P 1'
_cell_length_a   17.34070335
_cell_length_b   17.26955923
_cell_length_c   17.50474487
_cell_angle_alpha   89.81201179
_cell_angle_beta   89.03204525
_cell_angle_gamma   90.17064526
_symmetry_Int_Tables_number   1
_chemical_formula_structural   V51Zn51O256
_chemical_formula_sum   'V51 Zn51 O256'
_cell_volume   5241.28085670
_cell_formula_units_Z   1
loop_
 _symmetry_equiv_pos_site_id
 _symmetry_equiv_pos_as_xyz
  1  'x, y, z'
loop_
 _atom_site_type_symbol
 _atom_site_label
 _atom_site_symmetry_multiplicity
 _atom_site_fract_x
 _atom_site_fract_y
 _atom_site_fract_z
 _atom_site_occupancy
  V  V0  1  0.52664871  0.11055634  0.15207273  1
  V  V1  1  0.65501479  0.63305289  0.04151038  1
  V  V2  1  0.27474679  0.04733472  0.22575966  1
  V  V3  1  0.26372765  0.35091336  0.08323117  1
  V  V4  1  0.03833873  0.00359551  0.05743417  1
  V  V5  1  0.56553574  0.53822600  0.59458553  1
  V  V6  1  0.40866025  0.37760544  -0.02804139  1
  V  V7  1  0.86231974  0.73120280  0.17184675  1
  V  V8  1  0.14075177  0.01196204  0.62556297  1
  V  V9  1  0.42183414  0.27112729  0.12103351  1
  V  V10  1  0.14194491  0.86155233  0.73823423  1
  V  V11  1  0.13159381  0.33529355  0.22342569  1
  V  V12  1  0.13896322  0.60084632  -0.00374309  1
  V  V13  1  0.75597043  0.28257580  0.05709813  1
  V  V14  1  0.86607276  -0.08626347  0.36957580  1
  V  V15  1  0.00504283  0.76192885  0.76282781  1
  V  V16  1  0.38835377  0.64974513  0.75012330  1
  V  V17  1  0.90223732  0.52529664  0.32037890  1
  V  V18  1  0.01771816  0.64451474  0.11592401  1
  V  V19  1  0.27629943  0.12806794  0.37439480  1
  V  V20  1  0.60611178  0.76331078  0.90481723  1
  V  V21  1  0.12531187  0.91149560  0.24895342  1
  V  V22  1  0.40557439  0.50669791  0.86302437  1
  V  V23  1  0.49551283  0.58140096  0.12844446  1
  V  V24  1  0.87284516  0.64909490  0.78814641  1
  V  V25  1  0.38036519  0.25937433  0.62119441  1
  V  V26  1  0.43378787  0.74445865  0.18735578  1
  V  V27  1  0.89063310  0.31452808  0.55856750  1
  V  V28  1  0.74781777  0.88521273  0.15803584  1
  V  V29  1  0.72435545  0.10564635  0.39635584  1
  V  V30  1  0.00184779  0.62465630  0.62911878  1
  V  V31  1  0.31914527  0.46757405  0.35478962  1
  V  V32  1  0.24669993  0.86502789  0.58518259  1
  V  V33  1  0.12131141  0.08860547  0.45377603  1
  V  V34  1  0.24944469  0.62953537  0.86478604  1
  V  V35  1  0.76535027  0.90995635  0.63724663  1
  V  V36  1  0.23383267  0.49903497  0.74665895  1
  V  V37  1  0.86633877  0.74789211  0.62538916  1
  V  V38  1  0.66752405  0.12007405  0.00090227  1
  V  V39  1  0.73411043  0.49229557  0.78464270  1
  V  V40  1  0.49272139  0.01531107  0.53166014  1
  V  V41  1  0.26475544  -0.01128861  0.76924032  1
  V  V42  1  -0.01965497  -0.05273843  0.46466716  1
  V  V43  1  0.36566917  0.73781160  0.59102523  1
  V  V44  1  0.24205231  0.49204185  0.21096884  1
  V  V45  1  0.60082393  0.75504228  0.40578639  1
  V  V46  1  0.14124911  0.77379003  0.89574515  1
  V  V47  1  0.64436927  0.31093318  0.84740178  1
  V  V48  1  0.88937158  0.48371755  0.87716315  1
  V  V49  1  0.52134540  0.01434181  -0.00893800  1
  V  V50  1  0.00189763  0.49445183  -0.00254943  1
  Zn  Zn51  1  0.55585237  0.50617080  0.95928481  1
  Zn  Zn52  1  0.24264456  0.41039752  0.89235554  1
  Zn  Zn53  1  0.74123682  0.60419395  0.61852179  1
  Zn  Zn54  1  0.56083701  0.82890953  0.07881293  1
  Zn  Zn55  1  0.92657572  0.92461588  0.18374096  1
  Zn  Zn56  1  0.59327372  0.62324076  0.76034546  1
  Zn  Zn57  1  0.20542318  0.31944030  0.40464107  1
  Zn  Zn58  1  0.40480991  0.91665692  0.67701224  1
  Zn  Zn59  1  0.48921987  0.18853967  0.94134469  1
  Zn  Zn60  1  0.83630523  0.28363211  0.88870541  1
  Zn  Zn61  1  0.67218206  0.91438957  1.00062051  1
  Zn  Zn62  1  0.19007854  0.68619298  0.67420502  1
  Zn  Zn63  1  0.15943876  0.14689792  0.13716998  1
  Zn  Zn64  1  0.08674571  0.53964395  0.28417379  1
  Zn  Zn65  1  0.09173658  0.26983426  0.54101218  1
  Zn  Zn66  1  0.69356933  0.19364179  0.20307058  1
  Zn  Zn67  1  0.38351820  0.47238654  0.66003675  1
  Zn  Zn68  1  0.55391157  0.81935137  0.58470457  1
  Zn  Zn69  1  0.60201489  0.08276514  0.82334106  1
  Zn  Zn70  1  0.24637777  0.91955438  0.38136577  1
  Zn  Zn71  1  0.73127929  0.89511628  0.83067109  1
  Zn  Zn72  1  0.27892214  0.07583016  0.57144881  1
  Zn  Zn73  1  0.80989360  0.26156959  0.41174900  1
  Zn  Zn74  1  0.72084222  0.45020697  0.96795073  1
  Zn  Zn75  1  0.97554184  0.46042195  0.19436756  1
  Zn  Zn76  1  0.31849892  0.82198689  0.81291903  1
  Zn  Zn77  1  0.81923845  0.48594007  0.47257340  1
  Zn  Zn78  1  0.58241392  0.31670832  0.00302226  1
  Zn  Zn79  1  0.44685436  0.19393312  0.45058743  1
  Zn  Zn80  1  0.29943384  0.26321424  0.25831583  1
  Zn  Zn81  1  0.67541906  0.66247824  0.23538543  1
  Zn  Zn82  1  0.05669016  0.33881461  0.07426579  1
  Zn  Zn83  1  0.67609151  0.07970763  0.61479716  1
  Zn  Zn84  1  0.87935557  0.49325480  0.67078604  1
  Zn  Zn85  1  1.00258076  0.65347153  0.89368096  1
  Zn  Zn86  1  0.88203894  0.64146189  0.47473898  1
  Zn  Zn87  1  0.57861709  0.22438987  0.68243274  1
  Zn  Zn88  1  0.83278656  0.02350899  0.05818227  1
  Zn  Zn89  1  0.11541571  0.81687752  0.10126987  1
  Zn  Zn90  1  0.31303313  0.54843429  0.04412938  1
  Zn  Zn91  1  0.12771759  0.98599383  0.88586023  1
  Zn  Zn92  1  0.43916025  0.63575759  0.45313625  1
  Zn  Zn93  1  0.85591983  0.62291805  0.00392485  1
  Zn  Zn94  1  0.41828065  0.44953741  0.16701861  1
  Zn  Zn95  1  0.36216500  0.07487335  0.09005556  1
  Zn  Zn96  1  0.54155203  0.03703189  0.32545482  1
  Zn  Zn97  1  0.26352172  0.78732697  0.24918784  1
  Zn  Zn98  1  0.05878895  0.80425718  0.57842332  1
  Zn  Zn99  1  0.02039481  0.09019605  0.73967238  1
  Zn  Zn100  1  0.03458887  0.53348813  0.77064742  1
  Zn  Zn101  1  0.96356253  0.92671770  0.65669933  1
  O  O102  1  0.07785749  0.08548611  0.09800666  1
  O  O103  1  0.17656203  0.10169257  0.63337992  1
  O  O104  1  0.12976155  0.62570266  0.09018106  1
  O  O105  1  0.10103181  0.63600394  0.63013507  1
  O  O106  1  0.62592671  0.13136749  0.14412275  1
  O  O107  1  0.65036123  0.06724494  0.72308142  1
  O  O108  1  0.63218863  0.62957314  0.13841175  1
  O  O109  1  0.62721217  0.60018761  0.64820933  1
  O  O110  1  0.30817372  0.37293774  0.37779843  1
  O  O111  1  0.40699593  0.40119603  0.86724822  1
  O  O112  1  0.30791521  0.84902027  0.32613999  1
  O  O113  1  0.39276380  0.87272598  0.90738874  1
  O  O114  1  0.79294901  0.31425455  0.50926683  1
  O  O115  1  0.88938105  0.38687395  0.86459120  1
  O  O116  1  0.82162101  0.83201123  0.37585846  1
  O  O117  1  0.83019975  0.94927566  0.85072141  1
  O  O118  1  0.27554016  0.02438081  0.33550028  1
  O  O119  1  0.23776632  -0.00884550  0.86517476  1
  O  O120  1  0.22972525  0.50030234  0.33371217  1
  O  O121  1  0.23363057  0.52780350  0.86364310  1
  O  O122  1  0.76084541  0.01345573  0.38162353  1
  O  O123  1  0.82095975  0.02140641  0.88381371  1
  O  O124  1  0.83832340  0.46286407  0.36955000  1
  O  O125  1  0.78187986  0.49997196  0.88316689  1
  O  O126  1  0.26371336  0.46418296  0.11027069  1
  O  O127  1  0.27260224  0.49460701  0.65543096  1
  O  O128  1  0.25510511  1.09199211  0.12685915  1
  O  O129  1  0.25457459  0.97050275  0.62184183  1
  O  O130  1  0.61362424  0.53134837  0.30125495  1
  O  O131  1  0.76980440  0.51441516  0.68837453  1
  O  O132  1  0.76873662  0.98206584  0.14663654  1
  O  O133  1  0.76256247  1.00661568  0.61969791  1
  O  O134  1  0.03577865  0.36455300  0.18019868  1
  O  O135  1  0.10969364  0.33171650  0.69347905  1
  O  O136  1  0.02991266  0.91835222  0.22945157  1
  O  O137  1  0.02055021  0.86395930  0.73767643  1
  O  O138  1  0.56063006  0.36315425  0.29651850  1
  O  O139  1  0.50060337  0.44623661  0.70955527  1
  O  O140  1  0.45666418  0.80600461  0.25432896  1
  O  O141  1  0.51505466  0.87835875  0.69685072  1
  O  O142  1  0.50827060  0.10620047  0.25124251  1
  O  O143  1  0.55020533  0.13189364  0.73739971  1
  O  O144  1  0.48899590  0.65485192  0.20135341  1
  O  O145  1  0.48313984  0.63143871  0.73875338  1
  O  O146  1  0.93502981  0.15392397  0.15423000  1
  O  O147  1  0.99049864  0.20163983  0.72713834  1
  O  O148  1  1.03204370  0.61094350  0.20556896  1
  O  O149  1  1.00323256  0.64795273  0.77355940  1
  O  O150  1  0.42071541  0.27941349  -0.02429340  1
  O  O151  1  0.38985187  0.25991726  0.51685700  1
  O  O152  1  0.37508979  0.72160061  -0.00420449  1
  O  O153  1  0.36454452  0.70485491  0.49936846  1
  O  O154  1  0.83497107  0.26609105  -0.00217458  1
  O  O155  1  0.85329009  0.24853426  0.61892905  1
  O  O156  1  0.83243460  0.85147572  -0.02858799  1
  O  O157  1  0.88522461  0.74119037  0.53079290  1
  O  O158  1  0.08811127  0.16735831  0.50150593  1
  O  O159  1  0.07726751  0.35730440  0.84234700  1
  O  O160  1  0.09557400  0.75497345  0.47182925  1
  O  O161  1  0.14219372  0.79130597  0.98933697  1
  O  O162  1  0.68452979  0.39655748  0.59356106  1
  O  O163  1  0.66930473  0.23529626  1.02425767  1
  O  O164  1  0.60256867  0.75071486  0.50913569  1
  O  O165  1  0.61474386  0.72276626  1.00189877  1
  O  O166  1  0.51661187  0.29203658  0.10034536  1
  O  O167  1  0.48888645  0.25178370  0.62147276  1
  O  O168  1  0.46784319  0.78160508  0.09999722  1
  O  O169  1  0.46160180  0.75767895  0.60550606  1
  O  O170  1  0.94293069  0.22420923  0.16066958  1
  O  O171  1  1.11702245  0.26713032  0.66216631  1
  O  O172  1  1.03589726  0.74104120  0.11694324  1
  O  O173  1  0.99222266  0.74331103  0.64735107  1
  O  O174  1  -0.08940185  0.25631780  0.47014133  1
  O  O175  1  0.08521429  0.15015439  0.87485772  1
  O  O176  1  0.04312689  0.74637431  0.42446019  1
  O  O177  1  0.03389169  0.76369562  0.86590434  1
  O  O178  1  0.53597340  0.23016141  0.41266367  1
  O  O179  1  0.57052882  0.25738984  0.89998273  1
  O  O180  1  0.50877891  0.80103455  0.40909864  1
  O  O181  1  0.51729011  0.79020041  0.89314397  1
  O  O182  1  0.23618743  0.10229442  0.47158910  1
  O  O183  1  0.33738187  0.14579607  0.91407975  1
  O  O184  1  0.14481559  0.68111747  0.31479376  1
  O  O185  1  0.24378072  0.61216657  0.98324083  1
  O  O186  1  0.71558799  0.08598842  0.49429180  1
  O  O187  1  0.76164982  0.10671374  1.03072748  1
  O  O188  1  0.80543868  0.57377728  0.53076456  1
  O  O189  1  0.75186725  0.65152517  1.03316875  1
  O  O190  1  0.29217416  0.37323867  -0.01962817  1
  O  O191  1  0.16542937  0.33431741  0.50142432  1
  O  O192  1  0.36408221  0.88776437  -0.02962060  1
  O  O193  1  0.23998278  0.87995849  0.49108506  1
  O  O194  1  0.73702150  0.38084219  0.05273778  1
  O  O195  1  0.68985337  0.34283325  0.63971555  1
  O  O196  1  0.79045758  0.91804753  0.01272416  1
  O  O197  1  0.73478296  0.86352204  0.54442184  1
  O  O198  1  0.14269162  0.46078049  0.22059212  1
  O  O199  1  0.13600908  0.50439652  0.73978579  1
  O  O200  1  0.18329904  0.99176853  0.21762700  1
  O  O201  1  0.15752288  0.97188755  0.73550787  1
  O  O202  1  0.59696365  0.49609059  0.36273579  1
  O  O203  1  0.64664716  0.53194683  0.79725808  1
  O  O204  1  0.57057543  0.94479867  0.28796741  1
  O  O205  1  0.55701524  0.91971622  0.74039542  1
  O  O206  1  0.35611005  0.00619172  0.19384571  1
  O  O207  1  0.35297828  -0.07068904  0.77149206  1
  O  O208  1  0.34635575  0.47003390  0.25085409  1
  O  O209  1  0.36812355  0.52484311  0.76528288  1
  O  O210  1  0.87343622  -0.04867093  0.27942260  1
  O  O211  1  0.88595362  0.00030128  0.71681258  1
  O  O212  1  0.88193429  0.52075842  0.22348715  1
  O  O213  1  0.88750762  0.53233219  0.78410692  1
  O  O214  1  0.12741826  0.33147089  0.31853410  1
  O  O215  1  0.12365462  0.35622620  0.89574452  1
  O  O216  1  0.13928647  0.90357452  0.34498430  1
  O  O217  1  0.13612812  0.86985365  0.84909144  1
  O  O218  1  0.68137347  0.37602861  0.39715963  1
  O  O219  1  0.63677005  0.39008071  0.91867026  1
  O  O220  1  0.64081880  0.84342178  0.39523654  1
  O  O221  1  0.67124723  0.84961653  0.90596265  1
  O  O222  1  0.43207361  0.16374441  0.11874912  1
  O  O223  1  0.34934902  0.16101289  0.59785748  1
  O  O224  1  0.39729072  0.56332720  0.11302173  1
  O  O225  1  0.35312911  0.65176937  0.65316330  1
  O  O226  1  0.98912241  0.20425634  -0.01320020  1
  O  O227  1  0.81885690  0.15081366  0.68585393  1
  O  O228  1  0.90827365  0.66220803  0.09877974  1
  O  O229  1  0.89278030  0.64683333  0.67090395  1
  O  O230  1  0.30645925  0.25983887  0.09341380  1
  O  O231  1  0.28523401  0.28678058  0.63404687  1
  O  O232  1  0.25362243  0.91935839  0.06685994  1
  O  O233  1  0.24699509  0.75662580  0.60224537  1
  O  O234  1  0.77106994  0.25239281  0.15148256  1
  O  O235  1  0.64531152  0.18445341  0.60448460  1
  O  O236  1  0.77282107  0.70178863  0.20162573  1
  O  O237  1  0.77265548  0.71853562  0.63115408  1
  O  O238  1  0.25495214  0.23041541  0.36158675  1
  O  O239  1  0.27568455  0.17561800  0.89062976  1
  O  O240  1  0.20517921  0.71834192  0.33903957  1
  O  O241  1  0.24271702  0.75051933  0.86972861  1
  O  O242  1  0.70681890  0.20916979  0.42465061  1
  O  O243  1  0.73170631  0.26474842  0.85487401  1
  O  O244  1  0.68236261  0.69604626  0.42255423  1
  O  O245  1  0.66066583  0.76810511  0.70590426  1
  O  O246  1  0.05075509  0.22980407  0.01306217  1
  O  O247  1  0.02740344  0.03215707  0.43708701  1
  O  O248  1  0.02512262  0.62084187  -0.00281272  1
  O  O249  1  -0.02074652  0.61639444  0.53661934  1
  O  O250  1  0.54791956  0.12695249  0.01307952  1
  O  O251  1  0.49341347  0.11863122  0.52573630  1
  O  O252  1  0.53039202  0.59611561  0.03525658  1
  O  O253  1  0.47807429  0.59360272  0.55802938  1
  O  O254  1  0.54401627  0.38080882  0.48102562  1
  O  O255  1  0.50169575  0.41109688  0.99340213  1
  O  O256  1  0.50876477  0.91446593  0.53198587  1
  O  O257  1  0.53975556  0.91452222  1.00517621  1
  O  O258  1  0.98835802  0.29995555  0.57185952  1
  O  O259  1  1.00040013  0.39605954  0.99965002  1
  O  O260  1  0.99925339  0.89643491  0.55071342  1
  O  O261  1  0.90355741  0.85073650  0.97950111  1
  O  O262  1  0.48837695  0.39764051  0.44195195  1
  O  O263  1  0.49890884  0.53354951  0.86631738  1
  O  O264  1  0.50520980  1.01359194  0.43091336  1
  O  O265  1  0.53385490  1.02771998  0.89342129  1
  O  O266  1  0.99631824  0.48144686  0.31727018  1
  O  O267  1  0.99679307  0.51067585  0.88038695  1
  O  O268  1  0.97008047  0.88662401  0.38611871  1
  O  O269  1  0.90775725  1.05781727  0.75789121  1
  O  O270  1  -0.06253754  -0.00741595  0.09053070  1
  O  O271  1  0.03869438  0.02059072  0.65569147  1
  O  O272  1  -0.00386777  0.51790659  0.09475183  1
  O  O273  1  -0.01335720  0.52614226  0.66504315  1
  O  O274  1  0.51760351  0.01916362  0.12424929  1
  O  O275  1  0.46313528  0.01383563  0.62978027  1
  O  O276  1  0.52233171  0.49320645  0.16642448  1
  O  O277  1  0.45718431  0.51383033  0.57832655  1
  O  O278  1  0.23914765  0.34775239  0.20212720  1
  O  O279  1  0.24980489  0.40591011  0.78341777  1
  O  O280  1  0.30008051  0.88744098  0.10845306  1
  O  O281  1  0.23900493  0.84622685  0.73273025  1
  O  O282  1  0.73495770  0.34857796  0.35711207  1
  O  O283  1  0.71849223  0.39675697  0.78547812  1
  O  O284  1  0.72128243  0.87598480  0.24666822  1
  O  O285  1  0.72451188  0.89855187  0.72619440  1
  O  O286  1  0.28974533  0.14422078  0.26040386  1
  O  O287  1  0.29365201  0.07526937  0.74662804  1
  O  O288  1  0.23714850  0.58534528  0.20306129  1
  O  O289  1  0.23999828  0.62840457  0.76122214  1
  O  O290  1  0.72297568  0.13401607  0.29564356  1
  O  O291  1  0.78201707  0.20599179  0.70887551  1
  O  O292  1  0.68752781  0.56033671  0.29333456  1
  O  O293  1  0.77928157  0.64785399  0.78158848  1
  O  O294  1  0.37232319  0.13710775  0.39729393  1
  O  O295  1  0.40351008  0.15848751  0.87063312  1
  O  O296  1  0.40188247  0.53950540  0.39908364  1
  O  O297  1  0.35325929  0.62965089  0.86081443  1
  O  O298  1  0.82510824  0.14263681  0.39273516  1
  O  O299  1  0.91358493  0.20873601  0.83552589  1
  O  O300  1  0.89939326  0.61200629  0.37012468  1
  O  O301  1  0.88705863  0.64779086  0.89161259  1
  O  O302  1  0.16841939  0.33749099  0.06425988  1
  O  O303  1  0.10421408  0.46702130  0.55807193  1
  O  O304  1  0.08900016  0.92364520  0.08230809  1
  O  O305  1  0.14003548  0.86922626  0.62616097  1
  O  O306  1  0.60888905  0.32952340  0.25380094  1
  O  O307  1  0.55978470  0.44750272  0.66245108  1
  O  O308  1  0.66548389  0.85566787  0.10131729  1
  O  O309  1  0.67009824  0.87669290  0.58842749  1
  O  O310  1  0.13002358  0.23981245  0.18966249  1
  O  O311  1  0.11167997  0.21169039  0.84807620  1
  O  O312  1  0.16722739  0.82809084  0.20065012  1
  O  O313  1  0.11940514  0.75683731  0.74111584  1
  O  O314  1  0.60251445  0.25016650  0.25114752  1
  O  O315  1  0.60551786  0.29786396  0.75703696  1
  O  O316  1  0.61966514  0.73166368  0.30700111  1
  O  O317  1  0.60013828  0.74945945  0.67308811  1
  O  O318  1  0.40387324  0.28987057  0.21556681  1
  O  O319  1  0.39173540  0.22875406  0.71431261  1
  O  O320  1  0.33387493  0.73299908  0.18457702  1
  O  O321  1  0.38538715  0.74720403  0.76571101  1
  O  O322  1  0.86793473  0.29101374  0.31355500  1
  O  O323  1  0.94176601  0.24325622  0.77110860  1
  O  O324  1  0.91963473  0.73010896  0.24371979  1
  O  O325  1  0.90198571  0.75705580  0.77361937  1
  O  O326  1  0.34218604  0.51034013  0.45005016  1
  O  O327  1  0.37303594  0.50351991  0.95936131  1
  O  O328  1  0.39120840  1.01186408  0.51788187  1
  O  O329  1  0.42202543  1.03029462  1.00773533  1
  O  O330  1  0.89572164  0.40918929  0.50806330  1
  O  O331  1  0.89342694  0.51309666  0.98097107  1
  O  O332  1  0.88198959  0.96682671  0.46599538  1
  O  O333  1  0.87832103  1.04442520  0.92358320  1
  O  O334  1  0.04964171  0.00936821  -0.04078080  1
  O  O335  1  0.13440804  0.00167490  0.52664888  1
  O  O336  1  0.11570292  0.50328433  -0.01439393  1
  O  O337  1  0.07370985  0.48231720  0.49740903  1
  O  O338  1  0.63791753  0.02020274  0.01611433  1
  O  O339  1  0.59050944  0.02552715  0.55899925  1
  O  O340  1  0.65719554  0.54067470  -0.00690809  1
  O  O341  1  0.61517038  0.51143892  0.52017861  1
  O  O342  1  0.38665873  0.37714454  0.08790679  1
  O  O343  1  0.39680335  0.36109286  0.62665626  1
  O  O344  1  0.32257927  0.76100224  0.02125092  1
  O  O345  1  0.35132443  0.85242092  0.60258022  1
  O  O346  1  0.93742328  0.26956654  0.30723532  1
  O  O347  1  0.87992619  0.38431357  0.63410684  1
  O  O348  1  0.84812153  0.83659166  0.14966942  1
  O  O349  1  0.86072114  0.85942170  0.64172556  1
  O  O350  1  0.14435972  0.11108675  0.36281537  1
  O  O351  1  0.09502629  0.08218538  0.81927313  1
  O  O352  1  0.12376169  0.61895699  0.35783642  1
  O  O353  1  0.13820324  0.65721004  0.89899283  1
  O  O354  1  0.62667790  0.08764960  0.37789955  1
  O  O355  1  0.67237369  0.11946329  0.90365938  1
  O  O356  1  0.53023140  0.67194667  0.40103488  1
  O  O357  1  0.62695434  0.69636845  0.83624317  1
