# generated using pymatgen
data_V51Zn51O256
_symmetry_space_group_name_H-M   'P 1'
_cell_length_a   17.37608466
_cell_length_b   17.34812367
_cell_length_c   17.38397333
_cell_angle_alpha   90.26275030
_cell_angle_beta   90.15348373
_cell_angle_gamma   91.03243376
_symmetry_Int_Tables_number   1
_chemical_formula_structural   V51Zn51O256
_chemical_formula_sum   'V51 Zn51 O256'
_cell_volume   5239.34197761
_cell_formula_units_Z   1
loop_
 _symmetry_equiv_pos_site_id
 _symmetry_equiv_pos_as_xyz
  1  'x, y, z'
loop_
 _atom_site_type_symbol
 _atom_site_label
 _atom_site_symmetry_multiplicity
 _atom_site_fract_x
 _atom_site_fract_y
 _atom_site_fract_z
 _atom_site_occupancy
  V  V0  1  0.14353467  0.11988229  0.01387930  1
  V  V1  1  0.24682985  0.24073245  0.48943962  1
  V  V2  1  0.25317751  0.85173917  0.12880520  1
  V  V3  1  0.90987681  0.05854883  0.86588832  1
  V  V4  1  0.57571367  0.73966384  0.85926616  1
  V  V5  1  0.26093625  -0.00823786  0.75682712  1
  V  V6  1  0.71043572  0.86836088  0.06261190  1
  V  V7  1  0.25553578  0.15619032  0.87885873  1
  V  V8  1  0.39491506  0.25382827  0.59092311  1
  V  V9  1  0.58851524  -0.02372461  0.64900058  1
  V  V10  1  0.72668383  0.15625797  0.87623488  1
  V  V11  1  0.88856597  0.26042811  0.65537090  1
  V  V12  1  0.24373114  0.10677989  0.36837742  1
  V  V13  1  0.50387723  0.39526693  0.36830496  1
  V  V14  1  0.59201725  0.16142562  0.53050458  1
  V  V15  1  0.49200681  0.73905645  0.23421167  1
  V  V16  1  0.85914190  0.73834323  0.10126028  1
  V  V17  1  0.63165367  0.59956262  -0.01296460  1
  V  V18  1  0.63102661  0.39117733  0.25672907  1
  V  V19  1  -0.03117267  0.22513630  0.26095074  1
  V  V20  1  0.79095081  0.39826109  0.15593290  1
  V  V21  1  0.22420778  0.61637367  0.35735017  1
  V  V22  1  -0.02295094  0.73709021  0.21758699  1
  V  V23  1  0.50883097  0.00943268  0.01870852  1
  V  V24  1  0.39433236  -0.00428501  0.38392632  1
  V  V25  1  0.47243921  0.90335087  0.86837416  1
  V  V26  1  0.53981944  0.22050844  0.24673104  1
  V  V27  1  0.83837090  0.73912334  0.63605613  1
  V  V28  1  0.36856038  0.38800117  0.47920151  1
  V  V29  1  0.87262079  0.60002025  0.76015236  1
  V  V30  1  0.72923277  0.55661263  0.27548897  1
  V  V31  1  0.27419762  0.74140179  0.46876864  1
  V  V32  1  0.75133156  0.73655663  -0.06051887  1
  V  V33  1  0.10027875  0.90208104  0.22387708  1
  V  V34  1  0.36456333  0.86852416  0.00368190  1
  V  V35  1  0.93271424  0.91711790  -0.01980231  1
  V  V36  1  0.46566724  0.36255321  0.85085444  1
  V  V37  1  0.89867187  0.97009720  0.56837075  1
  V  V38  1  0.12433973  0.26399888  0.35687335  1
  V  V39  1  0.48501920  0.47417321  0.01104535  1
  V  V40  1  0.36415303  0.73082854  0.63573105  1
  V  V41  1  0.05061157  0.79285282  0.36938932  1
  V  V42  1  0.13974817  0.60532982  -0.02959696  1
  V  V43  1  0.63682937  0.51234689  0.62934486  1
  V  V44  1  0.38289814  0.12664807  0.23036510  1
  V  V45  1  0.26366728  -0.00476695  0.23058953  1
  V  V46  1  0.75987759  0.24041956  0.03995519  1
  V  V47  1  0.74630432  0.56270065  0.86215422  1
  V  V48  1  0.48348548  0.60796711  0.59158049  1
  V  V49  1  0.89593619  0.44032367  0.44117370  1
  V  V50  1  0.11251576  0.46248210  0.62286970  1
  Zn  Zn51  1  0.95502025  0.42700297  0.75704924  1
  Zn  Zn52  1  0.67666579  0.72136605  0.16292537  1
  Zn  Zn53  1  0.22533879  0.96716381  0.98659216  1
  Zn  Zn54  1  0.19579928  0.91101813  0.40261894  1
  Zn  Zn55  1  0.72008692  1.04455856  0.52224632  1
  Zn  Zn56  1  0.69461245  0.45664295  0.42075226  1
  Zn  Zn57  1  0.11260630  0.10621816  0.23990896  1
  Zn  Zn58  1  0.46078745  0.16917073  0.90162602  1
  Zn  Zn59  1  0.55623868  0.09833210  0.38830617  1
  Zn  Zn60  1  0.43821835  0.42771147  0.66433207  1
  Zn  Zn61  1  0.28091244  0.14980745  0.67762017  1
  Zn  Zn62  1  0.31974389  0.29679335  0.31722398  1
  Zn  Zn63  1  0.08137986  0.25692534  0.57635421  1
  Zn  Zn64  1  0.72549186  0.41816947  0.97748934  1
  Zn  Zn65  1  0.51769179  0.80713808  0.61531714  1
  Zn  Zn66  1  0.79969647  0.09113287  0.70475474  1
  Zn  Zn67  1  0.31951980  0.81624958  0.31144356  1
  Zn  Zn68  1  0.47485263  0.72085409  0.44476584  1
  Zn  Zn69  1  0.23093666  0.64649667  0.15908837  1
  Zn  Zn70  1  0.86211870  0.82440950  0.81216877  1
  Zn  Zn71  1  0.90636749  0.89881887  0.16945178  1
  Zn  Zn72  1  0.55904789  0.33451539  0.53389236  1
  Zn  Zn73  1  0.07204050  0.26001656  0.09352700  1
  Zn  Zn74  1  0.35230928  0.09266040  0.02234269  1
  Zn  Zn75  1  0.30203826  0.52308606  0.03658802  1
  Zn  Zn76  1  0.41177480  0.93391600  0.67731052  1
  Zn  Zn77  1  0.71036099  0.05086665  0.01989018  1
  Zn  Zn78  1  0.75284868  0.24584200  0.24551179  1
  Zn  Zn79  1  0.58346471  0.30328636  -0.03378459  1
  Zn  Zn80  1  0.93957059  0.14674575  1.00314035  1
  Zn  Zn81  1  0.43383012  0.93525388  0.18149241  1
  Zn  Zn82  1  0.88126905  0.27026394  0.87295492  1
  Zn  Zn83  1  0.73856050  0.57118101  0.10025492  1
  Zn  Zn84  1  0.42891771  0.18510416  0.41133996  1
  Zn  Zn85  1  0.43064407  0.07154117  0.56506087  1
  Zn  Zn86  1  0.94835887  0.24157549  0.45494454  1
  Zn  Zn87  1  0.91119705  0.48897403  0.27198545  1
  Zn  Zn88  1  0.58399096  0.06820330  0.81770362  1
  Zn  Zn89  1  0.07695626  0.46201186  0.40265516  1
  Zn  Zn90  1  0.08096567  0.62004397  0.29888585  1
  Zn  Zn91  1  0.84295707  0.53366973  0.61004397  1
  Zn  Zn92  1  0.14873498  0.46980298  0.82819556  1
  Zn  Zn93  1  0.50349397  0.36444183  0.13232511  1
  Zn  Zn94  1  0.34341249  0.81797477  0.79531289  1
  Zn  Zn95  1  0.67649573  0.67135763  0.69581376  1
  Zn  Zn96  1  -0.00709496  0.78917184  0.55894291  1
  Zn  Zn97  1  0.56364830  0.51173069  0.81420541  1
  Zn  Zn98  1  0.06573937  0.60791706  0.76214006  1
  Zn  Zn99  1  0.09113607  0.06755627  0.84276112  1
  Zn  Zn100  1  0.16644182  0.71223041  0.63354263  1
  Zn  Zn101  1  0.29317870  0.56765108  0.53704365  1
  O  O102  1  0.15956288  0.12748631  0.12801652  1
  O  O103  1  0.21180314  0.06738486  0.62204466  1
  O  O104  1  0.16905099  0.59773055  0.07304613  1
  O  O105  1  0.07453797  0.55580771  0.64628663  1
  O  O106  1  0.69945561  0.01196491  0.26328454  1
  O  O107  1  0.60103357  0.12465500  0.61875648  1
  O  O108  1  0.65262617  0.64891584  0.07658478  1
  O  O109  1  0.59752898  0.61036240  0.62776687  1
  O  O110  1  0.39217767  0.36161697  0.37387611  1
  O  O111  1  0.37470581  0.36527441  0.87204605  1
  O  O112  1  0.37313084  0.89805375  0.36843918  1
  O  O113  1  0.36900893  0.87224711  0.89215738  1
  O  O114  1  0.96499100  0.47961608  0.36946425  1
  O  O115  1  0.95159081  0.29013839  0.97707200  1
  O  O116  1  0.96840747  1.03246356  0.60254440  1
  O  O117  1  0.89370199  0.88410210  0.89375887  1
  O  O118  1  0.25233944  0.00187743  0.36827231  1
  O  O119  1  0.23353473  -0.00530006  0.86734767  1
  O  O120  1  0.13767845  0.55057041  0.37055097  1
  O  O121  1  0.25143516  0.49450628  0.82469642  1
  O  O122  1  0.73321764  -0.01054680  0.38519181  1
  O  O123  1  0.76385555  0.07782298  0.92393525  1
  O  O124  1  0.70309480  0.55892004  0.37137295  1
  O  O125  1  0.75021688  0.46555678  0.87812608  1
  O  O126  1  0.24993824  0.43421123  0.09838580  1
  O  O127  1  0.19986452  0.50759423  0.58767963  1
  O  O128  1  0.25896591  0.99439674  0.13628990  1
  O  O129  1  0.19644244  1.00653495  0.66394585  1
  O  O130  1  0.74758625  0.49014435  0.17506510  1
  O  O131  1  0.73288501  0.52753348  0.62569618  1
  O  O132  1  0.74546123  0.96235448  0.07449632  1
  O  O133  1  0.71118850  0.87289799  0.74553102  1
  O  O134  1  0.00509979  0.32443408  0.23050356  1
  O  O135  1  0.07421270  0.32594003  0.80775240  1
  O  O136  1  0.01018661  0.93122154  0.20631028  1
  O  O137  1  0.02628481  0.79244305  0.84210701  1
  O  O138  1  0.52851993  0.33807253  0.27657591  1
  O  O139  1  0.47387935  0.37149590  0.75149571  1
  O  O140  1  0.48191115  0.84542137  0.23307185  1
  O  O141  1  0.44339997  0.88301065  0.77261333  1
  O  O142  1  0.48648243  0.12412223  0.23574129  1
  O  O143  1  0.48739886  0.13094376  0.78912777  1
  O  O144  1  0.49838881  0.63907754  0.22835467  1
  O  O145  1  0.47672136  0.56653616  0.75319079  1
  O  O146  1  1.00739907  0.13946640  0.23017487  1
  O  O147  1  1.09623156  0.17050878  0.72704479  1
  O  O148  1  0.98944854  0.64098189  0.24272822  1
  O  O149  1  0.96266850  0.64092042  0.76933133  1
  O  O150  1  0.33206640  0.29058400  0.04558266  1
  O  O151  1  0.37535506  0.24581344  0.48934420  1
  O  O152  1  0.37833008  0.77561509  0.00538400  1
  O  O153  1  0.37270867  0.74883530  0.47775154  1
  O  O154  1  0.85119191  0.20282040  0.04011443  1
  O  O155  1  0.88438924  0.24582697  0.55489428  1
  O  O156  1  0.83588822  0.74029817  -0.00228365  1
  O  O157  1  0.92899122  0.96382315  0.47372453  1
  O  O158  1  0.14569601  0.25066331  0.48199106  1
  O  O159  1  0.17233217  0.20375383  1.10329151  1
  O  O160  1  0.03250886  0.82232949  0.46047537  1
  O  O161  1  0.15793157  0.70244375  0.96403579  1
  O  O162  1  0.62878942  0.25391268  0.52142597  1
  O  O163  1  0.68486038  0.31569046  1.00162387  1
  O  O164  1  0.54171623  0.79659998  0.50184656  1
  O  O165  1  0.63772821  0.70934163  0.93938970  1
  O  O166  1  0.50871155  0.25282073  0.15905758  1
  O  O167  1  0.49035799  0.26506856  0.60093227  1
  O  O168  1  0.47977668  0.73617161  0.13497121  1
  O  O169  1  0.47589528  0.70575448  0.63855142  1
  O  O170  1  0.98542632  0.28199709  0.16320542  1
  O  O171  1  0.99106789  0.27322031  0.63942720  1
  O  O172  1  0.95807057  0.71811030  0.10877623  1
  O  O173  1  0.88872386  0.74627356  0.55045024  1
  O  O174  1  0.01525603  0.23490579  0.35927663  1
  O  O175  1  0.01574505  0.32583288  0.95127830  1
  O  O176  1  -0.03741181  0.77709187  0.32171755  1
  O  O177  1  0.05233104  0.76326965  0.78347226  1
  O  O178  1  0.52346214  0.20420496  0.35487917  1
  O  O179  1  0.50739071  0.27192318  0.89039476  1
  O  O180  1  0.49730574  0.73244425  0.33840514  1
  O  O181  1  0.49584776  0.68995756  0.86184918  1
  O  O182  1  0.25774773  0.13495093  0.46655286  1
  O  O183  1  0.24703429  0.13455708  0.99382030  1
  O  O184  1  0.23552351  0.63927745  0.47089616  1
  O  O185  1  0.24177172  0.57697901  0.95837401  1
  O  O186  1  0.74649495  0.11402197  0.60881397  1
  O  O187  1  0.70302313  0.16266821  1.05443635  1
  O  O188  1  0.68188333  0.66601627  0.48264539  1
  O  O189  1  0.74837057  0.62454739  0.95085957  1
  O  O190  1  0.18559419  0.39614839  0.07650300  1
  O  O191  1  0.27394451  0.34561856  0.47367206  1
  O  O192  1  0.24993293  0.86012903  0.02301031  1
  O  O193  1  0.22563482  0.82837509  0.46798282  1
  O  O194  1  0.80610639  0.41153241  0.05940920  1
  O  O195  1  0.80262596  0.42481258  0.41268659  1
  O  O196  1  0.72144894  0.83269801  -0.03617593  1
  O  O197  1  0.83135564  1.03091056  0.51476966  1
  O  O198  1  0.02876636  0.48162899  0.17444623  1
  O  O199  1  0.16633110  0.45061938  0.70916703  1
  O  O200  1  0.14847717  0.99509656  0.24212418  1
  O  O201  1  0.16391017  0.98300575  0.82120648  1
  O  O202  1  0.63565712  0.48968615  0.26219393  1
  O  O203  1  0.61384776  0.47966711  0.71938671  1
  O  O204  1  0.68028990  1.00906917  0.33367930  1
  O  O205  1  0.62799913  1.01621466  0.73221597  1
  O  O206  1  0.37167143  0.00481064  0.24894919  1
  O  O207  1  0.34689877  0.02129371  0.71542064  1
  O  O208  1  0.30215484  0.45204008  0.24063408  1
  O  O209  1  0.36569018  0.50399814  0.72628429  1
  O  O210  1  0.84568606  -0.02500347  0.23111166  1
  O  O211  1  0.84164943  0.03785013  0.79798668  1
  O  O212  1  0.82892117  0.55806927  0.28228841  1
  O  O213  1  0.88725690  0.50877743  0.71919801  1
  O  O214  1  0.11582609  0.36052612  0.37084972  1
  O  O215  1  0.13697140  0.35185950  0.83527150  1
  O  O216  1  0.11376363  0.87281939  0.32937605  1
  O  O217  1  0.17746457  0.83230249  0.86963450  1
  O  O218  1  0.61170595  0.39023113  0.37803747  1
  O  O219  1  0.57405671  0.22429498  0.74903645  1
  O  O220  1  0.61628506  0.85940182  0.41006951  1
  O  O221  1  0.55085310  0.84064517  0.87504982  1
  O  O222  1  0.36494668  0.12259863  0.13506710  1
  O  O223  1  0.38182360  0.15644545  0.62552137  1
  O  O224  1  0.31343106  0.59275198  0.11906038  1
  O  O225  1  0.37393070  0.62035018  0.59878208  1
  O  O226  1  0.85719415  0.04546384  0.19811280  1
  O  O227  1  0.89255322  0.15896003  0.67664482  1
  O  O228  1  0.81946851  0.65082360  0.12057781  1
  O  O229  1  0.85384642  0.64036450  0.65855327  1
  O  O230  1  0.34602899  0.29670759  0.11702261  1
  O  O231  1  0.26005251  0.23381730  0.58816325  1
  O  O232  1  0.25000997  0.75684252  0.14412000  1
  O  O233  1  0.26724325  0.73056667  0.58921407  1
  O  O234  1  0.76687140  0.28866597  0.13671214  1
  O  O235  1  0.79006954  0.26618942  0.64625475  1
  O  O236  1  0.75328138  0.79418497  0.12310161  1
  O  O237  1  0.73966049  0.74101837  0.63175648  1
  O  O238  1  0.23854209  0.23900483  0.36961636  1
  O  O239  1  0.25191492  0.24835116  0.86697509  1
  O  O240  1  0.26994924  0.72604959  0.36279238  1
  O  O241  1  0.21444133  0.78196112  0.83662050  1
  O  O242  1  0.79445153  0.22117743  0.40852801  1
  O  O243  1  0.77553506  0.24198905  0.91568602  1
  O  O244  1  0.73822725  0.79886389  0.31948462  1
  O  O245  1  0.78338508  0.74660034  0.84943551  1
  O  O246  1  0.04685298  0.16256227  0.03013618  1
  O  O247  1  0.01596819  0.18596296  0.52176238  1
  O  O248  1  0.05185728  0.59473008  0.01094999  1
  O  O249  1  -0.15570456  0.64066102  0.43292556  1
  O  O250  1  0.46686562  0.10003337  -0.00532515  1
  O  O251  1  0.49563404  0.13689835  0.49565037  1
  O  O252  1  0.53570349  0.57209751  -0.00966086  1
  O  O253  1  0.49859633  0.62623381  0.49708315  1
  O  O254  1  0.48401443  0.38752291  0.47459392  1
  O  O255  1  0.51140408  0.37162335  1.01733074  1
  O  O256  1  0.56965737  0.86946800  0.46330933  1
  O  O257  1  0.46831917  0.91232030  0.98725892  1
  O  O258  1  0.93835295  0.35382535  0.45924321  1
  O  O259  1  1.07528142  0.32915179  0.99845091  1
  O  O260  1  0.96392289  0.89425184  0.59758967  1
  O  O261  1  1.02454331  0.90003171  0.97631805  1
  O  O262  1  0.48948659  0.48249955  0.34216023  1
  O  O263  1  0.51624939  0.44611821  0.89148031  1
  O  O264  1  0.49229295  1.00854753  0.36663440  1
  O  O265  1  0.50617948  0.99659182  0.86740947  1
  O  O266  1  1.09059063  0.50309210  0.20448411  1
  O  O267  1  1.04709541  0.49750047  0.79592483  1
  O  O268  1  1.11628287  1.04089338  0.49270684  1
  O  O269  1  0.99306899  1.03387814  0.81746708  1
  O  O270  1  -0.10300016  0.04427659  0.13587800  1
  O  O271  1  0.11464038  -0.12513690  0.70240266  1
  O  O272  1  -0.05443267  0.46802125  0.02164294  1
  O  O273  1  0.02257220  0.43100226  0.66149021  1
  O  O274  1  0.49611531  -0.00232495  0.11480787  1
  O  O275  1  0.48883867  -0.00142069  0.62477902  1
  O  O276  1  0.48782301  0.48271449  0.10826178  1
  O  O277  1  0.48837415  0.50792912  0.60438736  1
  O  O278  1  0.25931713  0.39784583  0.25976175  1
  O  O279  1  0.30528303  0.33644042  0.73101908  1
  O  O280  1  0.26326992  0.88539797  0.24085895  1
  O  O281  1  0.27283650  0.89481691  0.74896308  1
  O  O282  1  0.72961265  0.36175933  0.25852602  1
  O  O283  1  0.91305225  0.37418507  0.84035302  1
  O  O284  1  0.71600815  0.85897073  0.29101929  1
  O  O285  1  0.75535515  0.90178797  0.79400356  1
  O  O286  1  0.26284332  0.10174115  0.25584715  1
  O  O287  1  0.24630738  0.11510762  0.77814785  1
  O  O288  1  0.19005795  0.63664747  0.25837671  1
  O  O289  1  0.15916802  0.64737046  0.72218678  1
  O  O290  1  0.73987871  0.20065246  0.35991082  1
  O  O291  1  0.74234123  0.15043290  0.77939917  1
  O  O292  1  0.70385674  0.64176847  0.23540475  1
  O  O293  1  0.74941876  0.60261407  0.76695594  1
  O  O294  1  0.36558022  0.10574319  0.35698956  1
  O  O295  1  0.35344144  0.13797960  0.89839126  1
  O  O296  1  0.29883337  0.56340456  0.34612552  1
  O  O297  1  0.40225210  0.55246731  0.77222558  1
  O  O298  1  0.85834615  0.17760510  0.40924273  1
  O  O299  1  0.91881668  0.15778966  0.88507171  1
  O  O300  1  0.82818388  0.69367730  0.39050579  1
  O  O301  1  0.85402447  0.58001752  0.85915293  1
  O  O302  1  0.14816840  0.36062889  0.13169268  1
  O  O303  1  0.13254529  0.36203054  0.60383420  1
  O  O304  1  0.14948253  0.87973219  0.13874316  1
  O  O305  1  0.15361906  0.84641360  0.65047924  1
  O  O306  1  0.61374430  0.37807987  0.16093050  1
  O  O307  1  0.63232876  0.41633687  0.57181656  1
  O  O308  1  0.61872785  0.86311871  0.08246462  1
  O  O309  1  0.57476144  0.87961242  0.67155399  1
  O  O310  1  0.13380931  0.25118584  0.26248492  1
  O  O311  1  0.13286262  0.19704177  0.66943485  1
  O  O312  1  0.06426715  0.78383855  0.21307457  1
  O  O313  1  0.06399607  0.72351951  0.60372245  1
  O  O314  1  0.63717537  0.21066274  0.24100252  1
  O  O315  1  0.50800834  0.19672185  0.74047033  1
  O  O316  1  0.59187901  0.76054651  0.23402912  1
  O  O317  1  0.62126214  0.72701431  0.77286463  1
  O  O318  1  0.37141029  0.22278079  0.25557071  1
  O  O319  1  0.33985436  0.27581906  0.71513434  1
  O  O320  1  0.38890925  0.74468286  0.25206759  1
  O  O321  1  0.33968453  0.72698583  0.72976149  1
  O  O322  1  0.87111632  0.22203280  0.26129600  1
  O  O323  1  0.89751972  0.25748451  0.75947365  1
  O  O324  1  0.88214164  0.78865606  0.20049552  1
  O  O325  1  0.87960028  0.78780457  0.71398590  1
  O  O326  1  0.34645748  0.48144108  0.48789021  1
  O  O327  1  0.39050540  0.48588771  0.98780199  1
  O  O328  1  0.38331288  1.01007178  0.48063656  1
  O  O329  1  0.33486807  0.98308053  0.99911746  1
  O  O330  1  0.89455605  0.49639783  0.52363099  1
  O  O331  1  0.94104040  0.47584208  0.95173326  1
  O  O332  1  0.84542888  1.00073216  0.65422980  1
  O  O333  1  0.91932127  1.02378461  0.96781860  1
  O  O334  1  0.13319984  0.02241465  0.01311772  1
  O  O335  1  0.12861756  -0.02963135  0.49553066  1
  O  O336  1  0.13350354  0.50046784  -0.06408679  1
  O  O337  1  0.08055842  0.46624422  0.52456935  1
  O  O338  1  0.60366930  0.01793312  -0.00002113  1
  O  O339  1  0.65246801  -0.02703745  0.57323991  1
  O  O340  1  0.67458173  0.51233264  0.01923804  1
  O  O341  1  0.62814534  0.48041550  0.51779276  1
  O  O342  1  0.38037677  0.36348681  0.14135914  1
  O  O343  1  0.37764201  0.36346971  0.58794054  1
  O  O344  1  0.35895331  0.87707608  0.11722548  1
  O  O345  1  0.39666136  0.82881996  0.62359784  1
  O  O346  1  0.87889684  0.41024092  0.19815301  1
  O  O347  1  0.88897546  0.36290116  0.66914486  1
  O  O348  1  0.89128169  0.87060425  0.06273608  1
  O  O349  1  0.83564655  0.88611780  0.58053561  1
  O  O350  1  0.14635187  0.12052896  0.35253092  1
  O  O351  1  0.14126251  0.14061216  0.90570835  1
  O  O352  1  0.09725726  0.70839480  0.37493268  1
  O  O353  1  0.10714891  0.62466210  0.87363307  1
  O  O354  1  0.64554544  0.10418699  0.46261313  1
  O  O355  1  0.62640232  0.14821830  0.88746374  1
  O  O356  1  0.69146632  0.73090905  0.45711125  1
  O  O357  1  0.63821174  0.57248232  0.87469937  1
