# generated using pymatgen
data_V51Zn51O256
_symmetry_space_group_name_H-M   'P 1'
_cell_length_a   17.41606165
_cell_length_b   17.28948442
_cell_length_c   17.45957136
_cell_angle_alpha   90.38741986
_cell_angle_beta   89.25035622
_cell_angle_gamma   90.96551029
_symmetry_Int_Tables_number   1
_chemical_formula_structural   V51Zn51O256
_chemical_formula_sum   'V51 Zn51 O256'
_cell_volume   5256.02520118
_cell_formula_units_Z   1
loop_
 _symmetry_equiv_pos_site_id
 _symmetry_equiv_pos_as_xyz
  1  'x, y, z'
loop_
 _atom_site_type_symbol
 _atom_site_label
 _atom_site_symmetry_multiplicity
 _atom_site_fract_x
 _atom_site_fract_y
 _atom_site_fract_z
 _atom_site_occupancy
  V  V0  1  0.76017464  0.33422635  0.65682038  1
  V  V1  1  0.84030338  0.26162301  0.15621308  1
  V  V2  1  0.63482591  0.13481934  0.02703363  1
  V  V3  1  0.52578464  0.63796486  0.14015281  1
  V  V4  1  0.26070338  0.36323333  0.57755391  1
  V  V5  1  0.25257783  0.20296224  0.47383655  1
  V  V6  1  0.23646188  0.48919091  0.78641595  1
  V  V7  1  0.14663482  0.37765371  0.27013673  1
  V  V8  1  0.37167089  0.74657867  0.08212313  1
  V  V9  1  -0.01917409  0.38006442  0.38259236  1
  V  V10  1  0.08518034  -0.02979721  0.66859591  1
  V  V11  1  0.10017495  0.23650783  0.37392971  1
  V  V12  1  0.75582761  0.58701820  0.84969300  1
  V  V13  1  0.48854267  0.12072947  0.13607580  1
  V  V14  1  0.12880581  0.47970609  0.61825352  1
  V  V15  1  0.24370081  0.25384141  0.00679137  1
  V  V16  1  0.38192231  0.25481640  0.13617131  1
  V  V17  1  0.75818939  0.87731923  0.15360883  1
  V  V18  1  0.12415789  0.24286096  0.84004636  1
  V  V19  1  -0.02767631  0.36672809  0.83130928  1
  V  V20  1  0.24280595  0.02669627  0.18007001  1
  V  V21  1  0.03268146  0.10107285  0.12606606  1
  V  V22  1  0.56673516  0.45745395  0.65384230  1
  V  V23  1  0.62369520  0.77375659  0.80385953  1
  V  V24  1  0.51325802  -0.01122576  0.00602768  1
  V  V25  1  -0.01186629  0.50329021  0.49689578  1
  V  V26  1  0.38895794  0.37430781  -0.00652079  1
  V  V27  1  0.46491605  0.87428568  0.36377069  1
  V  V28  1  0.10735667  0.46593115  0.14367951  1
  V  V29  1  0.74344449  0.73695646  -0.03411377  1
  V  V30  1  0.10558879  0.74058105  0.85994030  1
  V  V31  1  0.37866798  0.23347416  0.59528619  1
  V  V32  1  0.36069077  0.50721014  0.32818352  1
  V  V33  1  0.63678149  0.13661982  0.50221750  1
  V  V34  1  0.23400926  0.74054739  0.52198224  1
  V  V35  1  0.61715899  0.60383994  0.48960860  1
  V  V36  1  0.39881063  0.02881304  0.87687492  1
  V  V37  1  0.87941854  -0.00695113  0.93376442  1
  V  V38  1  0.62105079  0.23037786  0.87238666  1
  V  V39  1  0.24021350  0.12459094  0.87122290  1
  V  V40  1  0.01889971  0.74980915  0.24194498  1
  V  V41  1  0.89792732  0.86037174  0.47714673  1
  V  V42  1  0.88480457  0.13551292  0.79672349  1
  V  V43  1  0.23181453  0.63851820  0.37728308  1
  V  V44  1  0.91984009  0.21419575  0.61984398  1
  V  V45  1  0.61695873  0.26485937  0.37582792  1
  V  V46  1  0.72738752  0.01635891  0.77403396  1
  V  V47  1  0.75562584  0.11323885  0.36568794  1
  V  V48  1  0.70628796  0.62111967  0.33834017  1
  V  V49  1  0.53904309  0.48916126  -0.03478515  1
  V  V50  1  0.13764486  -0.02315687  0.06277060  1
  Zn  Zn51  1  0.80068667  0.57234065  0.49104891  1
  Zn  Zn52  1  0.79101687  0.30965627  0.36381551  1
  Zn  Zn53  1  0.81692169  0.84078965  0.84131812  1
  Zn  Zn54  1  0.20137543  0.92596986  0.91761931  1
  Zn  Zn55  1  0.45645629  0.18687968  0.95550164  1
  Zn  Zn56  1  0.05066011  0.81355096  0.54032276  1
  Zn  Zn57  1  0.18690324  0.20636590  0.18955469  1
  Zn  Zn58  1  0.57375737  0.74811364  0.61302014  1
  Zn  Zn59  1  0.25192543  0.85399706  0.37520274  1
  Zn  Zn60  1  0.40006834  0.57930477  0.03792996  1
  Zn  Zn61  1  0.49845842  0.69275073  0.95421223  1
  Zn  Zn62  1  0.79814983  0.31745679  0.84861528  1
  Zn  Zn63  1  0.24228571  0.47372733  0.99063042  1
  Zn  Zn64  1  0.05312116  0.04805362  0.88245095  1
  Zn  Zn65  1  0.89440937  0.91102394  0.67917639  1
  Zn  Zn66  1  0.07717087  0.31478237  0.54203780  1
  Zn  Zn67  1  0.70822723  0.93895878  0.98065303  1
  Zn  Zn68  1  0.01542932  0.06758399  0.32031119  1
  Zn  Zn69  1  0.42077677  0.76940964  0.49986820  1
  Zn  Zn70  1  0.65399974  0.41280827  0.82019739  1
  Zn  Zn71  1  0.91344416  0.67756450  0.90274113  1
  Zn  Zn72  1  0.32701927  0.06506771  0.70464711  1
  Zn  Zn73  1  0.23376742  1.00419158  0.52732523  1
  Zn  Zn74  1  0.06193875  0.53923362  0.78848582  1
  Zn  Zn75  1  0.50335581  0.65675288  0.33930065  1
  Zn  Zn76  1  0.65708066  0.18305521  0.21292374  1
  Zn  Zn77  1  0.30246314  0.33327292  0.85066336  1
  Zn  Zn78  1  0.94047079  0.91416489  0.11876592  1
  Zn  Zn79  1  0.06194987  0.55237728  0.31963368  1
  Zn  Zn80  1  0.58540019  -0.02828747  0.82425741  1
  Zn  Zn81  1  0.25112431  0.55919119  0.56396252  1
  Zn  Zn82  1  0.32905643  0.07698278  0.03250303  1
  Zn  Zn83  1  0.67175730  0.15734232  0.69976228  1
  Zn  Zn84  1  0.20206306  0.44624684  0.42427016  1
  Zn  Zn85  1  0.59770893  0.80962279  0.06152476  1
  Zn  Zn86  1  0.40370613  0.46553146  0.14684551  1
  Zn  Zn87  1  0.00328834  0.74829153  0.03912625  1
  Zn  Zn88  1  0.58525389  0.29078184  0.58920253  1
  Zn  Zn89  1  0.86370049  0.96492576  0.28356664  1
  Zn  Zn90  1  0.66855897  0.41693032  0.48369250  1
  Zn  Zn91  1  0.10369381  0.67423188  0.66246764  1
  Zn  Zn92  1  0.41772329  0.92773642  0.16480686  1
  Zn  Zn93  1  0.32641923  0.31837062  0.31909820  1
  Zn  Zn94  1  0.80911970  0.05611493  0.10870678  1
  Zn  Zn95  1  0.70344840  0.69818327  0.15387211  1
  Zn  Zn96  1  0.23323488  0.74865945  0.21318858  1
  Zn  Zn97  1  0.68267493  0.63534737  0.66685126  1
  Zn  Zn98  1  0.91817440  0.17686297  0.42978367  1
  Zn  Zn99  1  0.54333319  0.29935479  0.03856554  1
  Zn  Zn100  1  0.47521183  0.19392195  0.46771505  1
  Zn  Zn101  1  0.37319751  0.43229397  0.68689520  1
  O  O102  1  0.12293713  0.14192963  0.12309593  1
  O  O103  1  0.09885149  0.06990530  0.66050175  1
  O  O104  1  0.14530852  0.58059088  0.12834729  1
  O  O105  1  0.15767560  0.57720120  0.63524114  1
  O  O106  1  0.59760804  0.12764957  0.13503782  1
  O  O107  1  0.64972565  0.11956653  0.59790504  1
  O  O108  1  0.62260677  0.61897802  0.14011678  1
  O  O109  1  0.61898789  0.54081191  0.66013925  1
  O  O110  1  0.38175237  0.41277891  0.35073844  1
  O  O111  1  0.39754571  0.38331399  0.89793097  1
  O  O112  1  0.36058160  0.87999461  0.35610900  1
  O  O113  1  0.42233141  0.82913839  0.87620712  1
  O  O114  1  0.88326054  0.36699371  0.38887241  1
  O  O115  1  0.88732911  0.36938181  0.88459454  1
  O  O116  1  0.88981022  0.88316997  0.38180374  1
  O  O117  1  0.81536670  0.91330072  0.93291560  1
  O  O118  1  0.34477780  0.07760277  0.34588071  1
  O  O119  1  0.27196711  0.02943795  0.89086498  1
  O  O120  1  0.26921496  0.53102479  0.37867767  1
  O  O121  1  0.22727058  0.50043240  0.88428398  1
  O  O122  1  0.81862377  0.03982119  0.35170166  1
  O  O123  1  0.69649473  -0.01449589  0.86631073  1
  O  O124  1  0.70334914  0.52700000  0.32002754  1
  O  O125  1  0.72727161  0.49218687  0.85608881  1
  O  O126  1  0.22158699  0.59121602  0.11664703  1
  O  O127  1  0.28465529  0.46129845  0.61343610  1
  O  O128  1  0.23656276  1.02791936  0.07423096  1
  O  O129  1  0.17219546  0.94193086  0.70665377  1
  O  O130  1  0.72342033  0.51236354  0.14582624  1
  O  O131  1  0.75674024  0.43473547  0.61674898  1
  O  O132  1  0.61687148  0.94723219  0.21901345  1
  O  O133  1  0.79218952  0.96399993  0.68836469  1
  O  O134  1  0.00942633  0.37170064  0.29069400  1
  O  O135  1  -0.04610979  0.35486240  0.74015683  1
  O  O136  1  -0.00136294  0.83971020  0.19765572  1
  O  O137  1  -0.10252889  0.85434975  0.76761100  1
  O  O138  1  0.60554678  0.40613197  0.18732959  1
  O  O139  1  0.46569687  0.29645265  0.76241399  1
  O  O140  1  0.45652021  0.88541526  0.26445253  1
  O  O141  1  0.40042174  0.89443217  0.66627945  1
  O  O142  1  0.47845711  0.10842220  0.22787743  1
  O  O143  1  0.46341868  0.01874874  0.61026046  1
  O  O144  1  0.51552503  0.67506027  0.23146617  1
  O  O145  1  0.44232214  0.64857139  0.76913356  1
  O  O146  1  0.99988952  0.10975497  0.22187770  1
  O  O147  1  0.97360136  0.11757394  0.83237213  1
  O  O148  1  1.02316135  0.65089505  0.27406015  1
  O  O149  1  1.02816905  0.61612391  0.72107370  1
  O  O150  1  0.39319156  0.26887159  0.00533914  1
  O  O151  1  0.36568788  0.19201107  0.49906155  1
  O  O152  1  0.39106458  0.72848037  -0.01594877  1
  O  O153  1  0.32277299  0.78154676  0.54172826  1
  O  O154  1  0.84260237  0.24625872  0.05790630  1
  O  O155  1  0.89196269  0.17109295  0.53823230  1
  O  O156  1  0.83543232  0.75687149  -0.07396929  1
  O  O157  1  0.96094773  0.77207103  0.47540479  1
  O  O158  1  0.14739398  0.24472134  0.46722091  1
  O  O159  1  0.15076737  0.25515675  1.00447704  1
  O  O160  1  0.15260204  0.80884167  0.50290105  1
  O  O161  1  0.08536846  0.74714363  0.96312601  1
  O  O162  1  0.63667301  0.24020275  0.50189600  1
  O  O163  1  0.63325583  0.23660080  1.03531581  1
  O  O164  1  0.64754890  0.67091448  0.56106074  1
  O  O165  1  0.68272078  0.81971023  0.98304576  1
  O  O166  1  0.48716628  0.23850609  0.12633216  1
  O  O167  1  0.47831343  0.24947955  0.58310910  1
  O  O168  1  0.53671169  0.71446981  0.06360881  1
  O  O169  1  0.52050115  0.84990652  0.65473699  1
  O  O170  1  0.93146738  0.24699110  0.18718085  1
  O  O171  1  1.00963008  0.25132783  0.60424172  1
  O  O172  1  1.00915953  0.71471610  0.14104374  1
  O  O173  1  1.03056460  0.72837073  0.60545069  1
  O  O174  1  0.00276925  0.25968152  0.39656571  1
  O  O175  1  0.03256635  0.28074657  0.86004897  1
  O  O176  1  0.05550452  0.79814482  0.32140597  1
  O  O177  1  -0.00162371  0.74122589  0.85648187  1
  O  O178  1  0.52134944  0.27191232  0.40252296  1
  O  O179  1  0.53465155  0.26115680  0.91534998  1
  O  O180  1  0.44753930  0.76116501  0.37903042  1
  O  O181  1  0.56483380  0.72453956  0.86864264  1
  O  O182  1  0.23209992  0.10652194  0.47835599  1
  O  O183  1  0.27630671  0.15792803  0.97113316  1
  O  O184  1  0.25602317  0.63994020  0.49059458  1
  O  O185  1  0.24504847  0.59393382  1.04456730  1
  O  O186  1  0.71310554  0.07881341  0.45678464  1
  O  O187  1  0.72484707  0.10753057  1.04947418  1
  O  O188  1  0.68884367  0.52958152  0.48913403  1
  O  O189  1  0.70831867  0.64888991  0.92120360  1
  O  O190  1  0.27593189  0.35315134  -0.01869788  1
  O  O191  1  0.27256013  0.37602318  0.48289388  1
  O  O192  1  0.28010520  0.85964083  -0.08992533  1
  O  O193  1  0.24232548  0.91584364  0.46420028  1
  O  O194  1  0.78410916  0.47487323  0.02208807  1
  O  O195  1  0.76127121  0.38351001  0.55312640  1
  O  O196  1  0.73855260  0.95790245  0.09555993  1
  O  O197  1  0.82311233  0.79678230  0.47000596  1
  O  O198  1  0.12393109  0.48449410  0.25284081  1
  O  O199  1  0.14453508  0.47384870  0.73567801  1
  O  O200  1  0.15386230  0.97968693  0.17981207  1
  O  O201  1  0.05936372  0.97555048  0.76771077  1
  O  O202  1  0.74697424  0.48047045  0.20227545  1
  O  O203  1  0.59516942  0.39780272  0.72571749  1
  O  O204  1  0.63843869  0.97782367  0.27878471  1
  O  O205  1  0.63588976  1.03168534  0.73857765  1
  O  O206  1  0.32580284  -0.02266484  0.19566414  1
  O  O207  1  0.37878068  0.00197285  0.78403340  1
  O  O208  1  0.34971321  0.51094798  0.23106469  1
  O  O209  1  0.27969321  0.56644335  0.75163033  1
  O  O210  1  0.88173779  -0.00869980  0.17331077  1
  O  O211  1  0.84477044  0.02201483  0.81951835  1
  O  O212  1  0.88008664  0.54935319  0.18872668  1
  O  O213  1  0.85506882  0.50808041  0.72560506  1
  O  O214  1  0.12928917  0.37636179  0.37431665  1
  O  O215  1  0.15402999  0.36294655  0.86300561  1
  O  O216  1  0.15095217  1.00855023  0.34772801  1
  O  O217  1  0.12645692  0.84169536  0.86307706  1
  O  O218  1  0.55077627  0.44710343  0.32132134  1
  O  O219  1  0.68810620  0.31030675  0.87345218  1
  O  O220  1  0.55540907  0.83607705  0.35683235  1
  O  O221  1  0.58553755  0.86367061  0.79634764  1
  O  O222  1  0.38472704  0.14238016  0.10685572  1
  O  O223  1  0.36978893  0.16322062  0.66014772  1
  O  O224  1  0.40296754  0.65790056  0.12154514  1
  O  O225  1  0.30473431  0.79431490  0.74881779  1
  O  O226  1  0.83346272  0.15381443  0.16554049  1
  O  O227  1  0.91366040  0.14443165  0.69485112  1
  O  O228  1  0.91956653  0.50433527  0.00244072  1
  O  O229  1  0.91218328  0.51894560  0.68613520  1
  O  O230  1  0.26812673  0.24649192  0.10762164  1
  O  O231  1  0.25901030  0.24893700  0.56954780  1
  O  O232  1  0.27571569  0.75246165  0.11193303  1
  O  O233  1  0.19398710  0.71997389  0.61048423  1
  O  O234  1  0.73493236  0.25475143  0.16281379  1
  O  O235  1  0.68067434  0.27171060  0.65231417  1
  O  O236  1  0.76029238  0.70301233  0.05485013  1
  O  O237  1  0.78723292  0.62845409  0.59519669  1
  O  O238  1  0.27789891  0.23784672  0.38402620  1
  O  O239  1  0.23360791  0.24663293  0.87258003  1
  O  O240  1  0.23325599  0.74446979  0.40844246  1
  O  O241  1  0.19943385  0.71564180  0.87649560  1
  O  O242  1  0.68864380  0.34421044  0.39727183  1
  O  O243  1  0.75762608  0.41518758  0.99530580  1
  O  O244  1  0.66625872  0.78803490  0.38534717  1
  O  O245  1  0.71762386  0.78558133  0.83345803  1
  O  O246  1  -0.01533796  0.14742385  0.06032934  1
  O  O247  1  -0.03617667  0.07891626  0.41409745  1
  O  O248  1  -0.04270422  0.66024452  -0.00069136  1
  O  O249  1  0.02780787  0.58960478  0.50168791  1
  O  O250  1  0.51852186  0.11617327  0.01519861  1
  O  O251  1  0.54295355  0.10821502  0.48344831  1
  O  O252  1  0.48252408  0.57677068  -0.04093967  1
  O  O253  1  0.51292884  0.73025606  0.52618827  1
  O  O254  1  0.54403416  0.44853733  0.39096207  1
  O  O255  1  0.49409820  0.39925792  1.01607821  1
  O  O256  1  0.44874043  0.87774666  0.46893631  1
  O  O257  1  0.52747009  0.89273062  1.01660815  1
  O  O258  1  1.01648512  0.39085944  0.48584721  1
  O  O259  1  1.12466340  0.38784167  0.92403441  1
  O  O260  1  1.00157289  0.89899519  0.48062658  1
  O  O261  1  0.98154821  0.85161679  1.03949950  1
  O  O262  1  0.43006155  0.57357791  0.35704322  1
  O  O263  1  0.56478869  0.45678119  0.87700981  1
  O  O264  1  0.49791339  0.96577830  0.37921865  1
  O  O265  1  0.50051457  0.99756625  0.89029601  1
  O  O266  1  0.99305271  0.49181565  0.38704642  1
  O  O267  1  1.01616905  0.45881601  0.84357526  1
  O  O268  1  0.97314802  0.97173876  0.29042231  1
  O  O269  1  0.97207357  0.97314978  0.90835910  1
  O  O270  1  0.03757909  -0.00107953  0.09194769  1
  O  O271  1  -0.01920077  -0.01862679  0.65207449  1
  O  O272  1  0.01834940  0.48676678  0.12759078  1
  O  O273  1  0.03323043  0.47782138  0.60580098  1
  O  O274  1  0.47983248  0.00909519  0.10813964  1
  O  O275  1  0.52919869  -0.00456950  0.61109477  1
  O  O276  1  0.48840738  0.54004626  0.12404055  1
  O  O277  1  0.46895497  0.47567766  0.66628445  1
  O  O278  1  0.24370520  0.37737467  0.26394054  1
  O  O279  1  0.30045472  0.40840464  0.76978429  1
  O  O280  1  0.21459970  0.99215187  0.32104391  1
  O  O281  1  0.42855262  0.84111938  0.80802242  1
  O  O282  1  0.86589469  0.57986665  0.12751028  1
  O  O283  1  0.76374906  0.36583890  0.74992791  1
  O  O284  1  0.77908153  0.90061396  0.24941657  1
  O  O285  1  0.74519271  0.91402183  0.73426700  1
  O  O286  1  0.24542050  0.11681858  0.22272415  1
  O  O287  1  0.26769884  0.12893357  0.77868393  1
  O  O288  1  0.26065933  0.66432126  0.28602422  1
  O  O289  1  0.31488907  0.73999598  0.70524541  1
  O  O290  1  0.71816185  0.11299431  0.27163689  1
  O  O291  1  0.76352523  0.11278533  0.75293074  1
  O  O292  1  0.72845869  0.67216120  0.25643810  1
  O  O293  1  0.85837936  0.65674247  0.62451074  1
  O  O294  1  0.39178765  0.13095175  0.34726082  1
  O  O295  1  0.40491866  0.12718743  0.87574354  1
  O  O296  1  0.41703812  0.62413857  0.58826596  1
  O  O297  1  0.40744114  0.65987243  0.83317427  1
  O  O298  1  0.81600930  0.19756552  0.38418334  1
  O  O299  1  0.83342700  0.07835398  0.88374250  1
  O  O300  1  0.77584158  0.63901466  0.40774785  1
  O  O301  1  0.85543414  0.59534816  0.86130321  1
  O  O302  1  0.11333025  0.36284739  0.17422812  1
  O  O303  1  0.16000870  0.36656234  0.60684050  1
  O  O304  1  0.15373575  0.88406203  0.05722465  1
  O  O305  1  0.05619000  0.86989891  0.64459911  1
  O  O306  1  0.62529543  0.39371857  0.12075867  1
  O  O307  1  0.58924389  0.40194265  0.56652096  1
  O  O308  1  0.67604448  0.81123073  0.14820718  1
  O  O309  1  0.65117416  0.86206447  0.54053761  1
  O  O310  1  0.13802474  0.26173544  0.27857481  1
  O  O311  1  0.13514832  0.24509366  0.74895861  1
  O  O312  1  0.12158328  0.74074986  0.21637008  1
  O  O313  1  0.10983298  0.74834387  0.75856116  1
  O  O314  1  0.61654688  0.26608246  0.27711350  1
  O  O315  1  0.60484226  0.20240060  0.78023120  1
  O  O316  1  0.67260890  0.81253040  0.32051524  1
  O  O317  1  0.62317681  0.73019875  0.70889422  1
  O  O318  1  0.36583707  0.25403942  0.23162897  1
  O  O319  1  0.41147028  0.25845642  0.78945497  1
  O  O320  1  0.23509904  0.84242739  0.27086061  1
  O  O321  1  0.45640248  0.70845449  0.72629690  1
  O  O322  1  0.81578094  0.29548749  0.25288286  1
  O  O323  1  0.85654850  0.22310460  0.82506753  1
  O  O324  1  0.92380214  0.73929138  0.27360090  1
  O  O325  1  0.85260708  0.70236319  0.68097617  1
  O  O326  1  0.35794714  0.61377901  0.62669588  1
  O  O327  1  0.35360673  0.47372549  1.02966279  1
  O  O328  1  0.29039736  1.01161051  0.61771156  1
  O  O329  1  0.39464727  1.00093818  0.98061128  1
  O  O330  1  0.89092084  0.51420773  0.50975537  1
  O  O331  1  0.97123473  0.45992336  0.99032461  1
  O  O332  1  0.85524585  0.94686366  0.50076394  1
  O  O333  1  0.87779502  1.03152491  1.02277752  1
  O  O334  1  0.12781022  -0.00418044  -0.04324560  1
  O  O335  1  0.12556453  -0.02598672  0.57205444  1
  O  O336  1  0.16128520  0.45220049  0.06093521  1
  O  O337  1  0.16230065  0.48931071  0.51984317  1
  O  O338  1  0.61329242  0.01311042  0.00297485  1
  O  O339  1  0.65560287  -0.07198383  0.51243336  1
  O  O340  1  0.61885904  0.50784199  0.01011363  1
  O  O341  1  0.53615838  0.56109586  0.51229497  1
  O  O342  1  0.38717406  0.35704222  0.12043591  1
  O  O343  1  0.35145480  0.33218786  0.62911608  1
  O  O344  1  0.41778608  0.82850513  0.11801449  1
  O  O345  1  0.44433490  0.84275095  0.63944987  1
  O  O346  1  0.85204639  0.35615458  0.12625701  1
  O  O347  1  0.84592550  0.28412981  0.64122339  1
  O  O348  1  0.84086941  0.83900632  0.11861045  1
  O  O349  1  0.89243726  0.85442299  0.58407766  1
  O  O350  1  0.09408105  0.14123811  0.35909742  1
  O  O351  1  0.13433850  0.13358419  0.86715111  1
  O  O352  1  0.13818891  0.61306475  0.37597713  1
  O  O353  1  0.09175678  0.63384077  0.85492131  1
  O  O354  1  0.65141399  0.16993300  0.38203615  1
  O  O355  1  0.64991586  0.14615806  0.91757252  1
  O  O356  1  0.60749246  0.64021353  0.38846531  1
  O  O357  1  0.73675002  0.62098874  0.76111405  1
