# generated using pymatgen
data_V51Zn51O256
_symmetry_space_group_name_H-M   'P 1'
_cell_length_a   17.19445042
_cell_length_b   17.70355684
_cell_length_c   17.60222624
_cell_angle_alpha   89.34183830
_cell_angle_beta   90.01842718
_cell_angle_gamma   90.64833676
_symmetry_Int_Tables_number   1
_chemical_formula_structural   V51Zn51O256
_chemical_formula_sum   'V51 Zn51 O256'
_cell_volume   5357.47262813
_cell_formula_units_Z   1
loop_
 _symmetry_equiv_pos_site_id
 _symmetry_equiv_pos_as_xyz
  1  'x, y, z'
loop_
 _atom_site_type_symbol
 _atom_site_label
 _atom_site_symmetry_multiplicity
 _atom_site_fract_x
 _atom_site_fract_y
 _atom_site_fract_z
 _atom_site_occupancy
  V  V0  1  0.49954703  0.00750465  0.04522362  1
  V  V1  1  0.90872718  0.43798418  0.28138566  1
  V  V2  1  0.35054052  0.06000204  0.72165202  1
  V  V3  1  0.00142288  0.63576029  0.10835231  1
  V  V4  1  0.68169092  0.71433476  0.38351240  1
  V  V5  1  0.41321970  0.61412794  0.28123502  1
  V  V6  1  0.61654327  0.49762260  0.12032011  1
  V  V7  1  0.23192154  0.59988365  0.37682532  1
  V  V8  1  0.29206784  0.72533141  0.48923033  1
  V  V9  1  0.11147520  0.59446854  -0.05977403  1
  V  V10  1  0.12772203  0.53810697  0.14875146  1
  V  V11  1  0.42139071  -0.00304393  0.41980109  1
  V  V12  1  0.50935719  0.23176280  0.25498588  1
  V  V13  1  0.10736237  0.92054790  0.78785448  1
  V  V14  1  0.53673247  0.74764625  0.77058008  1
  V  V15  1  0.46405050  0.49122990  0.39039434  1
  V  V16  1  0.22681779  0.02571485  0.21099872  1
  V  V17  1  -0.00482420  0.13194147  0.60949578  1
  V  V18  1  0.87421512  0.11748198  0.21854405  1
  V  V19  1  0.63482004  0.23893094  0.37533805  1
  V  V20  1  0.14728319  0.25239419  0.39720977  1
  V  V21  1  0.87883876  0.61599887  0.78762828  1
  V  V22  1  0.11474121  0.51200346  0.62010678  1
  V  V23  1  0.33622061  0.38416566  -0.01406533  1
  V  V24  1  -0.02125951  0.25966730  0.23164592  1
  V  V25  1  0.64808194  0.56521615  0.68813092  1
  V  V26  1  0.85777594  0.25726673  0.09656378  1
  V  V27  1  0.74483163  0.11485490  0.36915056  1
  V  V28  1  0.77948441  0.48954955  0.20277165  1
  V  V29  1  0.13406211  0.75551421  0.37128361  1
  V  V30  1  0.49631292  0.64811408  0.62523992  1
  V  V31  1  -0.00670177  0.74200457  0.23601705  1
  V  V32  1  0.89947731  0.00994924  0.36687528  1
  V  V33  1  0.72064300  0.24105591  0.00564016  1
  V  V34  1  0.07078473  -0.01255751  0.10390753  1
  V  V35  1  0.25483967  0.72098637  0.00924800  1
  V  V36  1  0.17552353  0.15459081  0.95426677  1
  V  V37  1  0.90634546  0.78400097  0.63351093  1
  V  V38  1  0.37574571  0.41324771  0.50928557  1
  V  V39  1  0.35991550  0.87729510  0.03533673  1
  V  V40  1  0.75346124  -0.01997765  0.24023894  1
  V  V41  1  0.48098491  0.48635554  0.00328659  1
  V  V42  1  0.37332521  0.29520967  0.14068305  1
  V  V43  1  -0.06114196  0.60854525  0.59108345  1
  V  V44  1  0.28139809  0.24190452  0.50217956  1
  V  V45  1  0.54556590  0.73867561  0.26319645  1
  V  V46  1  0.86014083  0.03376670  0.85369593  1
  V  V47  1  0.63655872  0.01003951  0.13997752  1
  V  V48  1  0.49365247  0.63796982  0.12325668  1
  V  V49  1  0.90998246  0.88633583  0.48361797  1
  V  V50  1  0.74410760  0.88877002  0.59226457  1
  Zn  Zn51  1  0.92721477  0.03973350  1.05061132  1
  Zn  Zn52  1  0.75652612  0.70043838  0.57103226  1
  Zn  Zn53  1  0.74398702  0.89755619  0.39118024  1
  Zn  Zn54  1  0.80999237  0.49198486  0.67798393  1
  Zn  Zn55  1  0.79719140  0.30263514  0.28552477  1
  Zn  Zn56  1  0.94563778  0.93216576  0.19892314  1
  Zn  Zn57  1  0.47851904  0.69272725  0.43174145  1
  Zn  Zn58  1  0.60907820  0.55997281  0.30863809  1
  Zn  Zn59  1  0.26775581  0.04285212  0.53277459  1
  Zn  Zn60  1  0.49541395  0.27696741  0.60453287  1
  Zn  Zn61  1  0.69268550  0.17623833  0.19165221  1
  Zn  Zn62  1  0.96623489  0.41688577  0.11556350  1
  Zn  Zn63  1  0.54246576  0.32547619  0.07645152  1
  Zn  Zn64  1  0.79511059  0.23132734  0.81774815  1
  Zn  Zn65  1  0.45737523  0.17231943  0.44520445  1
  Zn  Zn66  1  0.96898253  0.17374723  0.40105499  1
  Zn  Zn67  1  0.81698580  0.05360692  0.54315347  1
  Zn  Zn68  1  0.06980528  0.26334980  0.08477925  1
  Zn  Zn69  1  0.95133022  0.70797784  0.42895763  1
  Zn  Zn70  1  0.18468192  0.95279035  0.97533313  1
  Zn  Zn71  1  0.06856224  0.08154768  0.27841456  1
  Zn  Zn72  1  0.27524524  0.82768959  0.87831757  1
  Zn  Zn73  1  0.13534724  0.42366958  1.01804532  1
  Zn  Zn74  1  0.43307623  0.72856215  0.94611087  1
  Zn  Zn75  1  0.63944904  0.38130452  0.24948571  1
  Zn  Zn76  1  0.25895087  0.22535952  0.69641822  1
  Zn  Zn77  1  0.34142446  0.31416702  0.36367970  1
  Zn  Zn78  1  0.65882054  1.10054180  0.88090733  1
  Zn  Zn79  1  0.43051107  1.04881878  0.21805302  1
  Zn  Zn80  1  0.32567890  0.26068630  0.86468945  1
  Zn  Zn81  1  0.18790806  0.41112392  0.44266292  1
  Zn  Zn82  1  0.22382440  -0.06410490  0.37459885  1
  Zn  Zn83  1  0.47284082  0.88544920  0.18366879  1
  Zn  Zn84  1  0.68747389  0.64978751  0.18810710  1
  Zn  Zn85  1  0.07079160  0.81045455  0.53106781  1
  Zn  Zn86  1  0.06747001  0.80385550  0.03534004  1
  Zn  Zn87  1  0.92294672  0.95231782  0.67962874  1
  Zn  Zn88  1  0.45841652  0.44479038  0.19566273  1
  Zn  Zn89  1  0.30412583  0.58452723  0.58100907  1
  Zn  Zn90  1  0.53098382  0.59961307  0.83633914  1
  Zn  Zn91  1  0.27781848  0.54931834  0.03296659  1
  Zn  Zn92  1  0.96530270  0.69698146  0.93169957  1
  Zn  Zn93  1  0.85309829  0.81041689  0.30664663  1
  Zn  Zn94  1  0.63989276  0.23158975  0.71966420  1
  Zn  Zn95  1  0.11741992  0.28908105  0.59467624  1
  Zn  Zn96  1  0.68516850  0.40819259  1.00044314  1
  Zn  Zn97  1  0.54067830  0.85659358  0.64594023  1
  Zn  Zn98  1  0.05447019  0.57201186  0.29731333  1
  Zn  Zn99  1  0.73083600  0.73352432  0.72523503  1
  Zn  Zn100  1  0.50800340  0.14745322  0.76235387  1
  Zn  Zn101  1  0.04704516  0.58344445  0.76284339  1
  O  O102  1  0.17857790  0.09246072  0.26318291  1
  O  O103  1  0.08987257  0.10534235  0.60445887  1
  O  O104  1  0.13505624  0.63194583  0.14132298  1
  O  O105  1  0.04166003  0.57999660  0.59575670  1
  O  O106  1  0.62474961  0.10342739  0.13887446  1
  O  O107  1  0.63993288  0.00620188  0.71902642  1
  O  O108  1  0.60400587  0.60148974  0.11945804  1
  O  O109  1  0.70176821  0.64596848  0.65544510  1
  O  O110  1  0.39241470  0.41121437  0.39531908  1
  O  O111  1  0.35825503  0.36182902  0.89567428  1
  O  O112  1  0.49091975  0.93115836  0.43499839  1
  O  O113  1  0.28307707  0.90242119  0.95896698  1
  O  O114  1  0.87124755  0.37142321  0.34174251  1
  O  O115  1  0.89496895  0.43329911  0.89359339  1
  O  O116  1  0.88349655  0.89958005  0.37525257  1
  O  O117  1  0.86031194  0.93573626  0.86240377  1
  O  O118  1  0.34268963  -0.06162327  0.38389061  1
  O  O119  1  0.19717940  0.05916295  0.97120333  1
  O  O120  1  0.21358881  0.50687265  0.39140311  1
  O  O121  1  0.25868268  0.46246309  0.78464976  1
  O  O122  1  0.75870562  0.00166664  0.34924803  1
  O  O123  1  0.75472607  0.03588247  0.86685798  1
  O  O124  1  0.81614725  0.49855213  0.29482443  1
  O  O125  1  0.73977000  0.50864330  0.91979805  1
  O  O126  1  0.19720843  0.49271847  0.09088046  1
  O  O127  1  0.19974697  0.55928070  0.62079771  1
  O  O128  1  0.32390081  1.04876377  0.19802599  1
  O  O129  1  0.20436156  0.98382581  0.59058536  1
  O  O130  1  0.71092643  0.46998083  0.09536347  1
  O  O131  1  0.70130766  0.48557173  0.66540810  1
  O  O132  1  0.74172508  1.00029719  0.13673733  1
  O  O133  1  0.65012697  1.15740667  0.60097896  1
  O  O134  1  -0.03779867  0.36390195  0.22119642  1
  O  O135  1  0.02809363  0.34973105  0.72906372  1
  O  O136  1  -0.06481722  0.82519406  0.22120208  1
  O  O137  1  0.01428637  0.93755718  0.74190522  1
  O  O138  1  0.47165362  0.33414478  0.27291297  1
  O  O139  1  0.44542023  0.38124730  0.73710431  1
  O  O140  1  0.52283709  0.83353663  0.26116320  1
  O  O141  1  0.51083510  0.84107102  0.75916857  1
  O  O142  1  0.47278812  0.14639418  0.23308584  1
  O  O143  1  0.45597065  0.05056168  0.71560731  1
  O  O144  1  0.53181027  0.62353402  0.25468671  1
  O  O145  1  0.49836774  0.65053024  0.74069673  1
  O  O146  1  0.97346817  0.13795380  0.23722922  1
  O  O147  1  0.99282138  0.15415222  0.70548742  1
  O  O148  1  0.99220646  0.63817056  0.22117244  1
  O  O149  1  0.95453166  0.62415459  0.71528412  1
  O  O150  1  0.35135002  0.29699386  0.04191038  1
  O  O151  1  0.37395003  0.24457791  0.44796495  1
  O  O152  1  0.31571795  0.73517806  -0.07631005  1
  O  O153  1  0.38500320  0.74884456  0.46725423  1
  O  O154  1  0.83342530  0.22309709  0.00503180  1
  O  O155  1  0.81002688  0.26203146  0.50676467  1
  O  O156  1  0.82172790  0.75944885  -0.03671228  1
  O  O157  1  0.89292991  0.78933936  0.48153698  1
  O  O158  1  0.16528132  0.25575864  0.49983078  1
  O  O159  1  -0.04357519  0.26139287  0.88181854  1
  O  O160  1  0.18342048  0.82485954  0.55858984  1
  O  O161  1  0.15927407  0.74813525  0.99428525  1
  O  O162  1  0.63718348  0.23837170  0.46750659  1
  O  O163  1  0.63833238  0.30507648  1.02384061  1
  O  O164  1  0.70264573  0.69964514  0.47717273  1
  O  O165  1  0.65621267  0.71194960  0.98562307  1
  O  O166  1  0.47287672  0.26481730  0.13969287  1
  O  O167  1  0.53085533  0.23667932  0.70189768  1
  O  O168  1  0.51319344  0.72843902  0.15716713  1
  O  O169  1  0.52235005  0.74809863  0.65404839  1
  O  O170  1  0.95824178  0.23783296  0.11236949  1
  O  O171  1  1.00999899  0.23183415  0.59795227  1
  O  O172  1  1.02037752  0.73991642  0.12824688  1
  O  O173  1  1.00399024  0.76838259  0.60917632  1
  O  O174  1  -0.03638949  0.25593776  0.32766699  1
  O  O175  1  -0.10095272  0.28504824  0.84501031  1
  O  O176  1  0.06590239  0.73965134  0.44429128  1
  O  O177  1  -0.01433974  0.79328083  0.96305723  1
  O  O178  1  0.52533362  0.21335238  0.35829015  1
  O  O179  1  0.48805825  0.17188965  0.88524181  1
  O  O180  1  0.57647171  0.72957879  0.37251097  1
  O  O181  1  0.50641698  0.71237884  0.86615793  1
  O  O182  1  0.26584815  0.14548864  0.49967238  1
  O  O183  1  0.13981807  0.20397571  1.03143817  1
  O  O184  1  0.27993104  0.61843069  0.46640006  1
  O  O185  1  0.21056735  0.60644971  0.95404356  1
  O  O186  1  0.76079518  0.10759877  0.46502668  1
  O  O187  1  0.68378879  0.15831641  0.97188201  1
  O  O188  1  0.73097672  0.52310575  0.46316730  1
  O  O189  1  0.78641709  0.78927621  0.90511065  1
  O  O190  1  0.23793900  0.38930702  -0.01459840  1
  O  O191  1  0.28247945  0.35883666  0.47810638  1
  O  O192  1  0.28826187  0.79925378  0.06082145  1
  O  O193  1  0.24065840  0.82630267  0.50941090  1
  O  O194  1  0.76438624  0.34009344  -0.05013114  1
  O  O195  1  0.80323303  0.40650745  0.51228166  1
  O  O196  1  0.81087796  0.85360059  0.03757532  1
  O  O197  1  0.76711299  0.88457230  0.49673181  1
  O  O198  1  0.13150566  0.51180965  0.24219446  1
  O  O199  1  0.09040087  0.49768692  0.71491163  1
  O  O200  1  0.22528462  0.94459995  0.26708669  1
  O  O201  1  0.12446529  1.01700414  0.77354009  1
  O  O202  1  0.65545959  0.50034982  0.22508638  1
  O  O203  1  0.62740631  0.56545660  0.78371287  1
  O  O204  1  0.64753449  0.97466388  0.23949983  1
  O  O205  1  0.64138174  0.94661333  0.75575504  1
  O  O206  1  0.45491506  0.00147709  0.32271068  1
  O  O207  1  0.33355331  -0.03345276  0.70254589  1
  O  O208  1  0.43221146  0.50811514  0.28052665  1
  O  O209  1  0.44400718  0.43756747  0.77683073  1
  O  O210  1  0.87571057  0.00905057  0.25092058  1
  O  O211  1  0.86408195  0.01228984  0.75437887  1
  O  O212  1  0.87852216  0.46875664  0.17462350  1
  O  O213  1  0.83969547  0.52636728  0.77604099  1
  O  O214  1  0.11568673  0.34296106  0.38437823  1
  O  O215  1  0.16072977  0.32034505  0.82567341  1
  O  O216  1  0.15418112  0.84833848  0.38219053  1
  O  O217  1  0.10491171  0.95001864  0.88874775  1
  O  O218  1  0.63486338  0.33327244  0.34832545  1
  O  O219  1  0.43443796  0.21112797  0.91258761  1
  O  O220  1  0.61311532  0.89938361  0.41964749  1
  O  O221  1  0.56010426  1.02466442  0.88462852  1
  O  O222  1  0.31052026  0.20022917  0.16002104  1
  O  O223  1  0.33926743  0.08087193  0.62024786  1
  O  O224  1  0.40464351  0.62138039  0.17891098  1
  O  O225  1  0.40285465  0.61633657  0.62497256  1
  O  O226  1  0.87120036  0.09996328  0.12428294  1
  O  O227  1  0.88621335  0.12819604  0.60296755  1
  O  O228  1  0.91006458  0.63539949  0.08619872  1
  O  O229  1  0.86685923  0.68606958  0.60958769  1
  O  O230  1  0.18761532  0.36725835  0.23252580  1
  O  O231  1  0.29899959  0.25341738  0.59601094  1
  O  O232  1  0.28819346  0.65100061  0.06964686  1
  O  O233  1  0.28131340  0.70264766  0.58145982  1
  O  O234  1  0.74455434  0.23377700  0.10991619  1
  O  O235  1  0.61237554  0.32465009  0.62020796  1
  O  O236  1  0.70901510  0.70156313  0.03150609  1
  O  O237  1  0.77639326  0.79719511  0.63709580  1
  O  O238  1  0.24130835  0.25067312  0.36277261  1
  O  O239  1  0.25981485  0.19846334  0.91949573  1
  O  O240  1  0.23110228  0.72508787  0.39435507  1
  O  O241  1  0.21581765  0.71366041  0.79541571  1
  O  O242  1  0.74466561  0.22203335  0.34723508  1
  O  O243  1  0.73169052  0.28341743  0.89997104  1
  O  O244  1  0.74564447  0.78990443  0.35429094  1
  O  O245  1  0.72013676  0.82233303  0.91558904  1
  O  O246  1  0.04111892  0.06416642  0.05131929  1
  O  O247  1  -0.01536348  0.13816605  0.50624155  1
  O  O248  1  0.04221455  0.63777700  0.00669377  1
  O  O249  1  -0.06233667  0.62241516  0.49476868  1
  O  O250  1  0.50239191  0.09731223  0.02937265  1
  O  O251  1  0.48997006  0.18806151  0.54563407  1
  O  O252  1  0.46619470  0.65823281  0.03303739  1
  O  O253  1  0.51762934  0.66834979  0.53188790  1
  O  O254  1  0.42590243  0.35348036  0.56728009  1
  O  O255  1  0.47385350  0.38851222  1.00161218  1
  O  O256  1  0.57874847  0.85332865  0.46069885  1
  O  O257  1  0.43215338  0.82816598  0.99396625  1
  O  O258  1  0.86788690  0.26448718  0.46525990  1
  O  O259  1  1.10801303  0.31934244  0.87231057  1
  O  O260  1  1.00787775  0.89431834  0.48802669  1
  O  O261  1  1.10685374  0.90741054  1.04636771  1
  O  O262  1  0.56066497  0.47982052  0.36958051  1
  O  O263  1  0.49235890  0.53543542  0.91926829  1
  O  O264  1  0.48981917  1.05987814  0.46760901  1
  O  O265  1  0.52742636  0.97567724  0.92792735  1
  O  O266  1  0.97790214  0.49321145  0.32267182  1
  O  O267  1  0.99571486  0.38406829  0.77984686  1
  O  O268  1  0.99571480  1.02082978  0.35601784  1
  O  O269  1  0.95834023  1.05811952  0.85839765  1
  O  O270  1  0.04734687  -0.00851233  0.20417272  1
  O  O271  1  -0.02485855  0.03190782  0.62033694  1
  O  O272  1  0.02626366  0.52770089  0.11725593  1
  O  O273  1  -0.11645166  0.52945992  0.60298629  1
  O  O274  1  0.50401699  -0.00873567  0.15503163  1
  O  O275  1  0.49282787  -0.06295310  0.60118771  1
  O  O276  1  0.48712765  0.52076145  0.10294054  1
  O  O277  1  0.56113911  0.56356553  0.63621339  1
  O  O278  1  0.24364671  0.39673527  0.26341543  1
  O  O279  1  0.32846738  0.27236446  0.76045357  1
  O  O280  1  0.29100730  0.76733513  0.22529655  1
  O  O281  1  0.20277625  0.88708884  0.81825636  1
  O  O282  1  0.75031039  0.38279924  0.22132058  1
  O  O283  1  0.59472942  0.38984510  0.83408839  1
  O  O284  1  0.78170724  0.88976889  0.24336221  1
  O  O285  1  0.77476548  0.98033092  0.61745556  1
  O  O286  1  0.27442630  0.26082836  0.18589192  1
  O  O287  1  0.25925790  0.11229747  0.71709234  1
  O  O288  1  0.30759647  0.60922607  0.30756039  1
  O  O289  1  0.27087562  0.42394355  0.72857759  1
  O  O290  1  0.76564085  0.10578074  0.24862625  1
  O  O291  1  0.74509338  0.24212428  0.72662099  1
  O  O292  1  0.77076331  0.58480074  0.17472082  1
  O  O293  1  0.80838538  0.68206519  0.78284177  1
  O  O294  1  0.38348279  0.09128739  0.39323800  1
  O  O295  1  0.33020627  0.03329722  0.81542008  1
  O  O296  1  0.44346002  0.59208059  0.38923691  1
  O  O297  1  0.19939798  0.71045287  0.72718647  1
  O  O298  1  0.87370282  0.11102446  0.36013010  1
  O  O299  1  0.83834694  0.13141080  0.82929950  1
  O  O300  1  0.79263810  0.55443096  0.44689861  1
  O  O301  1  0.92099124  0.61866444  0.87699627  1
  O  O302  1  0.05270032  0.37017655  0.06541451  1
  O  O303  1  0.12339291  0.40323159  0.59800806  1
  O  O304  1  0.23811884  0.80722158  0.20358883  1
  O  O305  1  0.14626931  0.88742413  0.70458965  1
  O  O306  1  0.56619630  0.40786536  0.15892254  1
  O  O307  1  0.66343726  0.35538429  0.56870557  1
  O  O308  1  0.74723857  0.87803834  0.02027626  1
  O  O309  1  0.64687857  0.87987495  0.60653905  1
  O  O310  1  0.07337031  0.25528093  0.20846468  1
  O  O311  1  0.15473880  0.24527222  0.68503931  1
  O  O312  1  0.08309555  0.76165837  0.27745918  1
  O  O313  1  0.05354066  0.84218262  0.82093039  1
  O  O314  1  0.60825416  0.23985730  0.23022944  1
  O  O315  1  0.57385857  0.32306921  0.83432962  1
  O  O316  1  0.64396660  0.73440568  0.23549116  1
  O  O317  1  0.63646065  0.74991088  0.77726188  1
  O  O318  1  0.40191156  0.28683592  0.26443147  1
  O  O319  1  0.39631466  0.15423712  0.75478322  1
  O  O320  1  0.43761957  0.71023335  0.30473504  1
  O  O321  1  0.35239085  0.81984343  0.78309825  1
  O  O322  1  0.85687050  0.22772898  0.21269830  1
  O  O323  1  0.86634181  0.31962681  0.69500427  1
  O  O324  1  0.93105078  0.72546382  0.32234031  1
  O  O325  1  0.90723152  0.79649616  0.72514384  1
  O  O326  1  0.45950640  0.48330059  0.48990607  1
  O  O327  1  0.36516126  0.48455660  1.00515371  1
  O  O328  1  0.36253282  0.98380894  0.50373895  1
  O  O329  1  0.40655438  0.97463939  1.01955339  1
  O  O330  1  0.86922789  0.42195219  0.49073073  1
  O  O331  1  0.94964553  0.41544527  0.93425544  1
  O  O332  1  0.88476372  0.99741664  0.47101016  1
  O  O333  1  0.86779152  1.04196616  0.95455546  1
  O  O334  1  0.17539243  0.01269674  0.12424683  1
  O  O335  1  0.20528452  0.00808407  0.44834831  1
  O  O336  1  0.09658026  0.49950562  -0.05683864  1
  O  O337  1  0.11163959  0.44880617  0.52806271  1
  O  O338  1  0.60360920  -0.02886006  0.05249116  1
  O  O339  1  0.65791747  0.08996963  0.58864493  1
  O  O340  1  0.59323878  0.47663471  0.01754104  1
  O  O341  1  0.63598536  0.38962742  0.51153101  1
  O  O342  1  0.36840578  0.39073023  0.15488979  1
  O  O343  1  0.32653135  0.47718867  0.56101559  1
  O  O344  1  0.37757656  0.88322917  0.13366801  1
  O  O345  1  0.33894666  0.80347602  0.71548613  1
  O  O346  1  0.86157408  0.35086465  0.08348363  1
  O  O347  1  0.86761013  0.37726720  0.65359260  1
  O  O348  1  0.96216318  0.94425764  0.09028945  1
  O  O349  1  0.89632839  0.88661750  0.59715475  1
  O  O350  1  0.08389207  0.17626719  0.37537509  1
  O  O351  1  0.11251490  0.15906309  0.88221539  1
  O  O352  1  0.13442929  0.63339203  0.35018176  1
  O  O353  1  0.08719319  0.62874864  0.85061924  1
  O  O354  1  0.64645527  0.11926382  0.36112289  1
  O  O355  1  0.61412562  0.14136753  0.79091146  1
  O  O356  1  0.69559691  0.62957402  0.33918439  1
  O  O357  1  0.73520692  0.57507944  0.94006581  1
