# generated using pymatgen
data_V51Zn51O256
_symmetry_space_group_name_H-M   'P 1'
_cell_length_a   17.61901192
_cell_length_b   17.64932755
_cell_length_c   17.82086004
_cell_angle_alpha   90.88587938
_cell_angle_beta   89.85863560
_cell_angle_gamma   89.78650900
_symmetry_Int_Tables_number   1
_chemical_formula_structural   V51Zn51O256
_chemical_formula_sum   'V51 Zn51 O256'
_cell_volume   5540.92229087
_cell_formula_units_Z   1
loop_
 _symmetry_equiv_pos_site_id
 _symmetry_equiv_pos_as_xyz
  1  'x, y, z'
loop_
 _atom_site_type_symbol
 _atom_site_label
 _atom_site_symmetry_multiplicity
 _atom_site_fract_x
 _atom_site_fract_y
 _atom_site_fract_z
 _atom_site_occupancy
  V  V0  1  0.30969194  0.53262901  0.42086846  1
  V  V1  1  0.63626281  0.14416024  0.52011954  1
  V  V2  1  0.51673299  0.12964000  0.18768495  1
  V  V3  1  0.88292881  0.40946908  0.01665058  1
  V  V4  1  0.83803185  0.01845546  0.84585320  1
  V  V5  1  0.59540885  -0.00975062  0.61163251  1
  V  V6  1  0.22675731  0.06932792  0.91008216  1
  V  V7  1  0.36313521  0.25342184  0.08761405  1
  V  V8  1  0.38927019  0.00762591  0.40958588  1
  V  V9  1  0.88799681  0.59828762  0.71388960  1
  V  V10  1  0.86306398  0.49426890  0.87567400  1
  V  V11  1  0.74163280  -0.01054383  0.20912985  1
  V  V12  1  0.67487500  0.82948213  0.28209057  1
  V  V13  1  -0.04026784  0.93861452  0.42523247  1
  V  V14  1  0.50945547  0.56200379  0.65985912  1
  V  V15  1  0.58858836  0.11789817  -0.06533579  1
  V  V16  1  0.72003925  0.86561599  0.07684049  1
  V  V17  1  0.01040442  0.49616731  0.48217647  1
  V  V18  1  0.23897903  0.38825446  0.57581376  1
  V  V19  1  0.04443558  0.43425464  0.92506090  1
  V  V20  1  0.63207051  0.73043215  0.43323624  1
  V  V21  1  0.89151826  0.35915144  0.45739041  1
  V  V22  1  0.63231114  0.67041136  -0.02160114  1
  V  V23  1  0.77768504  0.66699628  0.85305978  1
  V  V24  1  0.85065074  0.22365280  0.12649081  1
  V  V25  1  0.55618624  0.48941411  0.43900087  1
  V  V26  1  0.48739514  -0.02229531  -0.04658422  1
  V  V27  1  0.03645219  0.05732902  0.10603479  1
  V  V28  1  0.70477984  0.01151469  0.73068142  1
  V  V29  1  0.04316766  0.75362028  0.31428064  1
  V  V30  1  0.51161602  0.75955248  0.24571921  1
  V  V31  1  0.09858885  0.72515232  0.93046597  1
  V  V32  1  0.06906371  0.20202781  0.20162762  1
  V  V33  1  0.09504276  0.84401876  0.79806316  1
  V  V34  1  0.89532239  0.52497843  0.35741872  1
  V  V35  1  0.87485270  0.06444099  0.34417505  1
  V  V36  1  0.31006122  0.11066468  0.76035527  1
  V  V37  1  0.10311123  0.21870566  0.37768573  1
  V  V38  1  0.91753585  0.76438601  0.62491882  1
  V  V39  1  0.74823339  0.38606772  0.65488372  1
  V  V40  1  0.20188785  -0.06191747  0.19371132  1
  V  V41  1  0.52335049  0.44111352  -0.01359382  1
  V  V42  1  0.09781185  0.21649985  0.89950546  1
  V  V43  1  0.62019776  0.77418340  0.80777921  1
  V  V44  1  0.74650978  0.27698346  0.45324930  1
  V  V45  1  0.28369591  0.68643903  0.90465339  1
  V  V46  1  0.13413762  0.42331953  0.22339041  1
  V  V47  1  0.88441864  0.29332051  0.66776616  1
  V  V48  1  0.06066645  0.07718193  0.59537707  1
  V  V49  1  0.23143661  0.52032504  0.79856464  1
  V  V50  1  0.77686064  0.62505181  0.40561122  1
  Zn  Zn51  1  0.94198508  0.67077497  0.47998477  1
  Zn  Zn52  1  0.41497145  1.07162649  0.64715999  1
  Zn  Zn53  1  0.52634970  0.94952346  0.24484727  1
  Zn  Zn54  1  0.66215279  0.63027181  0.72327363  1
  Zn  Zn55  1  0.95436555  0.31384808  0.84811739  1
  Zn  Zn56  1  0.51270548  0.04079513  0.79431767  1
  Zn  Zn57  1  0.12049391  0.55733047  0.34200955  1
  Zn  Zn58  1  0.50926824  0.16992658  0.37472552  1
  Zn  Zn59  1  0.22014647  0.51267537  0.98904033  1
  Zn  Zn60  1  0.75076193  0.48700325  0.51373537  1
  Zn  Zn61  1  0.23649147  0.37035911  0.37596220  1
  Zn  Zn62  1  0.82016162  0.60670624  0.00632951  1
  Zn  Zn63  1  0.21761576  0.12376401  0.11331897  1
  Zn  Zn64  1  0.94928156  0.18385299  0.46726687  1
  Zn  Zn65  1  0.78834672  0.86119419  0.80974253  1
  Zn  Zn66  1  0.13909298  0.13489771  0.74702795  1
  Zn  Zn67  1  0.41704633  0.43930452  0.54415330  1
  Zn  Zn68  1  0.53389964  0.55148901  0.85059136  1
  Zn  Zn69  1  0.06281346  0.67807584  0.68777532  1
  Zn  Zn70  1  0.38172951  0.11211551  0.97383863  1
  Zn  Zn71  1  0.30809324  0.56004741  0.62305267  1
  Zn  Zn72  1  0.94877037  0.94611628  0.70476872  1
  Zn  Zn73  1  0.08298321  0.33289834  0.06164656  1
  Zn  Zn74  1  0.46580091  0.64404734  0.38645636  1
  Zn  Zn75  1  0.85257599  0.78990989  0.34135091  1
  Zn  Zn76  1  0.69629219  0.70016652  0.14034864  1
  Zn  Zn77  1  0.51554267  0.24426309  0.04276830  1
  Zn  Zn78  1  0.37950120  0.43372222  0.07040600  1
  Zn  Zn79  1  0.54088736  0.81710048  0.06135827  1
  Zn  Zn80  1  0.37781076  0.54684745  -0.06691121  1
  Zn  Zn81  1  0.67901382  0.94858866  0.91040860  1
  Zn  Zn82  1  0.24886299  0.06353071  0.56422115  1
  Zn  Zn83  1  0.92534326  0.16117890  0.96963106  1
  Zn  Zn84  1  0.71236420  0.40868496  0.94350599  1
  Zn  Zn85  1  0.86312506  0.25133379  0.30967500  1
  Zn  Zn86  1  0.91035769  0.39206702  0.21454220  1
  Zn  Zn87  1  0.23466037  0.87248826  0.87118357  1
  Zn  Zn88  1  0.60273654  0.37751145  0.53516011  1
  Zn  Zn89  1  0.36444252  0.87421360  0.25958721  1
  Zn  Zn90  1  0.06653352  0.04653106  0.30125602  1
  Zn  Zn91  1  0.62824916  0.79632553  0.61368736  1
  Zn  Zn92  1  0.40138205  -0.00334539  0.11606823  1
  Zn  Zn93  1  0.03987548  0.58546463  0.82882678  1
  Zn  Zn94  1  0.21206580  0.29324885  0.75033294  1
  Zn  Zn95  1  0.18083288  0.95497271  1.03546952  1
  Zn  Zn96  1  0.70618158  0.19819976  0.68249229  1
  Zn  Zn97  1  0.67911513  0.14209560  0.08681822  1
  Zn  Zn98  1  0.47209635  0.70739806  0.90324509  1
  Zn  Zn99  1  0.04603895  0.30608045  0.55517418  1
  Zn  Zn100  1  0.12164898  0.77371657  0.12091680  1
  Zn  Zn101  1  0.60227004  0.59224938  0.30843037  1
  O  O102  1  0.13681191  0.04643670  0.08494307  1
  O  O103  1  0.08838246  0.15037175  0.65857013  1
  O  O104  1  0.19791631  0.68494147  0.14796095  1
  O  O105  1  0.16262541  0.63843893  0.64168163  1
  O  O106  1  0.57602627  0.17225051  0.11712423  1
  O  O107  1  0.62366323  0.17666315  0.61023786  1
  O  O108  1  0.63185652  0.64294388  0.06954113  1
  O  O109  1  0.61949241  0.59799486  0.62037842  1
  O  O110  1  0.32544466  0.44426560  0.38251496  1
  O  O111  1  0.45251010  0.25459550  0.79112694  1
  O  O112  1  0.36168052  0.91713193  0.36829794  1
  O  O113  1  0.34347587  0.86435779  0.98246113  1
  O  O114  1  0.90831700  0.34226897  0.36476244  1
  O  O115  1  0.89295461  0.39761036  0.89708132  1
  O  O116  1  0.89054405  0.87446703  0.39414524  1
  O  O117  1  0.85101696  0.92676553  0.87585346  1
  O  O118  1  0.30739600  0.03803529  0.35859028  1
  O  O119  1  0.21466325  -0.03178400  0.93082041  1
  O  O120  1  0.21479107  0.55589252  0.40114580  1
  O  O121  1  0.26442666  0.56050140  0.88659007  1
  O  O122  1  0.79127241  0.07197021  0.27010189  1
  O  O123  1  0.73197632  0.01741474  0.84047282  1
  O  O124  1  0.79012319  0.54234134  0.34455435  1
  O  O125  1  0.76722985  0.48278888  0.87957126  1
  O  O126  1  0.21661302  0.62324444  0.10864216  1
  O  O127  1  0.23056206  0.47639129  0.61457187  1
  O  O128  1  0.27872699  0.97827029  0.12001372  1
  O  O129  1  0.27148089  0.83777399  0.65586168  1
  O  O130  1  0.61246345  0.50827331  0.16476764  1
  O  O131  1  0.74199534  0.47734776  0.62093124  1
  O  O132  1  0.77738681  0.92065424  0.14506098  1
  O  O133  1  0.69618420  1.00695607  0.62786896  1
  O  O134  1  0.02905783  0.38302317  0.22937594  1
  O  O135  1  0.05296712  0.36725506  0.85416415  1
  O  O136  1  0.01872929  0.85090054  0.31369647  1
  O  O137  1  0.01576300  0.89396461  0.77886636  1
  O  O138  1  0.44861237  0.37000374  0.28324238  1
  O  O139  1  0.54544826  0.36193475  0.75084043  1
  O  O140  1  0.55746678  0.84810421  0.27544908  1
  O  O141  1  0.42774245  0.83164939  0.71759862  1
  O  O142  1  0.50818715  0.18259585  0.27261709  1
  O  O143  1  0.41182243  0.08869174  0.75825177  1
  O  O144  1  0.52227857  0.66526528  0.28822974  1
  O  O145  1  0.55944531  0.57414082  0.75173554  1
  O  O146  1  1.03163436  0.10464672  0.20191191  1
  O  O147  1  0.86726268  0.08485558  0.62618306  1
  O  O148  1  1.07010636  0.65563973  0.30639545  1
  O  O149  1  0.98937327  0.60811113  0.73250526  1
  O  O150  1  0.39034176  0.21774194  -0.00246985  1
  O  O151  1  0.29610519  0.21355060  0.48916180  1
  O  O152  1  0.44894567  0.74727834  0.00873338  1
  O  O153  1  0.30303781  0.73932587  0.45216989  1
  O  O154  1  0.88972304  0.24248752  0.03675848  1
  O  O155  1  0.87005432  0.26338661  0.48439302  1
  O  O156  1  0.96321256  0.80332389  0.09477027  1
  O  O157  1  0.88459853  0.74742292  0.53441249  1
  O  O158  1  0.04894254  0.24621959  0.45837354  1
  O  O159  1  0.12660381  0.26942810  0.97369983  1
  O  O160  1  0.21531570  0.69444025  0.64480304  1
  O  O161  1  0.09269123  0.73291724  1.02636269  1
  O  O162  1  0.65744638  0.31100303  0.45650817  1
  O  O163  1  0.56899558  0.21223979  0.95391106  1
  O  O164  1  0.65882727  0.74613736  0.52399407  1
  O  O165  1  0.61222189  0.76406014  0.98201977  1
  O  O166  1  0.45036090  0.25982989  0.13354782  1
  O  O167  1  0.41799181  0.23282942  0.55828530  1
  O  O168  1  0.51377774  0.75726416  0.15072092  1
  O  O169  1  0.55269582  0.63924970  0.60279610  1
  O  O170  1  1.03909935  0.25450326  0.12795372  1
  O  O171  1  0.96339535  0.26563232  0.61558107  1
  O  O172  1  1.07021732  0.75756693  0.21850969  1
  O  O173  1  1.01229229  0.74191413  0.61604973  1
  O  O174  1  0.05000889  0.24271628  0.29282258  1
  O  O175  1  -0.00213385  0.21733456  0.89693402  1
  O  O176  1  0.00600530  0.73007862  0.40536706  1
  O  O177  1  0.02388489  0.67785051  0.89294089  1
  O  O178  1  0.42336087  0.26143332  0.40209038  1
  O  O179  1  0.45260959  0.24955548  0.72254838  1
  O  O180  1  0.53699056  0.72605519  0.42991368  1
  O  O181  1  0.52721083  0.77176521  0.83474416  1
  O  O182  1  0.24791624  0.18212521  0.52957136  1
  O  O183  1  0.24870877  0.10250672  0.99714638  1
  O  O184  1  0.27910871  0.67824495  0.60950559  1
  O  O185  1  0.28556124  0.69669263  0.99551022  1
  O  O186  1  0.72749783  0.18102781  0.49006100  1
  O  O187  1  0.67479760  0.10748924  0.98319183  1
  O  O188  1  0.77666393  0.59339626  0.49469738  1
  O  O189  1  0.73250233  0.64830120  0.95192217  1
  O  O190  1  0.28751664  0.31563987  -0.08951038  1
  O  O191  1  0.21768045  0.37999219  0.48212880  1
  O  O192  1  0.30939564  0.84823571  0.04054633  1
  O  O193  1  0.20691686  0.88487537  0.44996632  1
  O  O194  1  0.79273516  0.37373821  0.00943107  1
  O  O195  1  0.78974254  0.37699591  0.48031588  1
  O  O196  1  0.73371482  0.90094864  -0.01076014  1
  O  O197  1  0.76207334  0.91195913  0.49568637  1
  O  O198  1  0.13703380  0.51967670  0.23891331  1
  O  O199  1  0.13589359  0.53912795  0.79667687  1
  O  O200  1  0.13147859  0.97324387  0.25112149  1
  O  O201  1  0.17610842  0.89644800  0.78214388  1
  O  O202  1  0.71121942  0.39364523  0.17512780  1
  O  O203  1  0.58420428  0.41768675  0.76374739  1
  O  O204  1  0.67323090  0.93695736  0.25995770  1
  O  O205  1  0.59956630  0.99911359  0.72383333  1
  O  O206  1  0.46413166  -0.00080470  0.34084907  1
  O  O207  1  0.29078064  -0.09558128  0.65588194  1
  O  O208  1  0.32452736  0.56754797  0.20652082  1
  O  O209  1  0.29438136  0.42964487  0.78878662  1
  O  O210  1  0.84344141  0.00560726  0.25353615  1
  O  O211  1  0.88665565  0.02134748  0.76249145  1
  O  O212  1  0.91110467  0.48686699  0.26999536  1
  O  O213  1  0.87980114  0.51428667  0.78208600  1
  O  O214  1  0.05804025  0.39733115  0.29972284  1
  O  O215  1  0.13251825  0.46042506  0.95621318  1
  O  O216  1  0.04599409  0.90531006  0.44926817  1
  O  O217  1  0.10624626  0.82285046  0.89948286  1
  O  O218  1  0.73352876  0.42319579  0.23387678  1
  O  O219  1  0.65801475  0.32148442  0.88363088  1
  O  O220  1  0.65933051  0.81182100  0.37949635  1
  O  O221  1  0.66823180  0.85450597  0.83743724  1
  O  O222  1  0.43160140  0.09813920  0.15155202  1
  O  O223  1  0.30530251  0.07794050  0.65821623  1
  O  O224  1  0.43178342  0.62604731  0.04762122  1
  O  O225  1  0.41813266  0.58978546  0.66458284  1
  O  O226  1  0.88326757  0.14010338  0.15223497  1
  O  O227  1  0.82916434  0.08435261  0.56941882  1
  O  O228  1  0.78486117  0.61953827  0.12254285  1
  O  O229  1  0.88035992  0.55409559  0.63530072  1
  O  O230  1  0.29918914  0.19264924  0.12618665  1
  O  O231  1  0.20135424  0.30250444  0.63827488  1
  O  O232  1  0.41626939  0.69508764  0.05913922  1
  O  O233  1  0.24794913  0.86369224  0.50137961  1
  O  O234  1  0.75335030  0.21468202  0.11869635  1
  O  O235  1  0.78980156  0.26009426  0.64843901  1
  O  O236  1  0.75253295  0.77361196  0.08205480  1
  O  O237  1  0.78917328  0.90127225  0.55729858  1
  O  O238  1  0.18802807  0.26155927  0.37707833  1
  O  O239  1  0.34693713  0.34826584  0.89604612  1
  O  O240  1  0.28198715  0.74683222  0.38718502  1
  O  O241  1  0.28711991  0.77863121  0.86893417  1
  O  O242  1  0.76235123  0.26316321  0.36035854  1
  O  O243  1  0.69371748  0.27607592  0.83450138  1
  O  O244  1  0.79035685  0.72132250  0.39778405  1
  O  O245  1  0.80848987  0.75627248  0.84005980  1
  O  O246  1  -0.00434550  0.10341638  0.03305633  1
  O  O247  1  -0.00157738  0.11164843  0.52848040  1
  O  O248  1  -0.10066229  0.65509207  0.07946650  1
  O  O249  1  0.15911570  0.73656528  0.50468287  1
  O  O250  1  0.49383183  0.08772570  -0.03074473  1
  O  O251  1  0.44949838  0.17418337  0.58087490  1
  O  O252  1  0.55431204  0.62722598  -0.07065397  1
  O  O253  1  0.51141530  0.57190006  0.46122817  1
  O  O254  1  0.50501043  0.40914220  0.47762197  1
  O  O255  1  0.50595346  0.34756660  0.98970266  1
  O  O256  1  0.43563931  0.79679199  0.52320341  1
  O  O257  1  0.49403148  0.89433603  1.00212585  1
  O  O258  1  0.97689488  0.38882270  0.50753684  1
  O  O259  1  0.99731797  0.38686668  1.00208699  1
  O  O260  1  0.92994902  0.96772538  0.50861747  1
  O  O261  1  0.97834489  0.89832669  0.96199639  1
  O  O262  1  0.56978834  0.49333304  0.34269825  1
  O  O263  1  0.47092718  0.48538128  0.90682938  1
  O  O264  1  0.43044674  0.95732380  0.48133110  1
  O  O265  1  0.46248153  0.96586699  0.86030481  1
  O  O266  1  1.01723808  0.52337975  0.38374696  1
  O  O267  1  0.99051052  0.51188992  0.89430274  1
  O  O268  1  0.96827743  1.01576506  0.35140375  1
  O  O269  1  0.87462987  0.97732544  1.03345164  1
  O  O270  1  0.00095769  -0.02740894  0.11228108  1
  O  O271  1  0.01894962  0.00722598  0.64652667  1
  O  O272  1  -0.14289998  0.65029580  0.14041539  1
  O  O273  1  -0.01390719  0.58187722  0.52511900  1
  O  O274  1  0.55961984  0.04755981  0.21755811  1
  O  O275  1  0.50107626  0.02214979  0.61605126  1
  O  O276  1  0.48106954  0.47645945  0.06799411  1
  O  O277  1  0.50335985  0.47300166  0.62007285  1
  O  O278  1  0.20814122  0.38419194  0.27299761  1
  O  O279  1  0.21944652  0.40115442  0.79327935  1
  O  O280  1  0.25597988  0.87749687  0.24408565  1
  O  O281  1  0.14707889  0.83136620  0.61194241  1
  O  O282  1  0.60436072  0.31970473  0.22519344  1
  O  O283  1  0.73429422  0.39366054  0.74566763  1
  O  O284  1  0.77111996  0.82629822  0.27617604  1
  O  O285  1  0.75699120  0.92605681  0.72745005  1
  O  O286  1  0.25757657  0.02947438  0.18176429  1
  O  O287  1  0.21620678  0.07187359  0.78895859  1
  O  O288  1  0.34431192  0.63384415  0.20473419  1
  O  O289  1  0.27398246  0.57236849  0.73256508  1
  O  O290  1  0.69952560  0.04972421  0.15191187  1
  O  O291  1  0.73978931  0.10350170  0.72669481  1
  O  O292  1  0.65095931  0.55193204  0.20537757  1
  O  O293  1  0.76853863  0.62068642  0.76295168  1
  O  O294  1  0.43147917  0.09819888  0.41603308  1
  O  O295  1  0.31864012  0.09397911  0.87290057  1
  O  O296  1  0.36799450  0.59998167  0.37874793  1
  O  O297  1  0.38197121  0.64794508  0.88412782  1
  O  O298  1  0.90261345  0.16063735  0.36013217  1
  O  O299  1  0.87208531  0.08575311  0.90891748  1
  O  O300  1  0.89235224  0.62155806  0.38980481  1
  O  O301  1  0.85583809  0.61361632  0.88854845  1
  O  O302  1  0.13897413  0.39926704  0.12779777  1
  O  O303  1  0.13549539  0.34752036  0.61428465  1
  O  O304  1  0.16018230  0.88015465  0.11657631  1
  O  O305  1  0.12336890  0.89497499  0.60065387  1
  O  O306  1  0.46071828  0.41632274  0.23436929  1
  O  O307  1  0.66267750  0.34486520  0.61667414  1
  O  O308  1  0.62866593  0.87175665  0.10749521  1
  O  O309  1  0.59116876  0.89485081  0.59312133  1
  O  O310  1  0.16199138  0.18692349  0.19199599  1
  O  O311  1  0.13767672  0.23536353  0.80796264  1
  O  O312  1  0.12648623  0.77918887  0.35471882  1
  O  O313  1  0.10193153  0.75851588  0.75271941  1
  O  O314  1  0.60982718  0.33564116  0.29194834  1
  O  O315  1  0.65015220  0.25184378  0.77944527  1
  O  O316  1  0.65342038  0.74450477  0.23197350  1
  O  O317  1  0.63320181  0.75100651  0.70903933  1
  O  O318  1  0.36589852  0.25640490  0.36172060  1
  O  O319  1  0.29043803  0.20497572  0.75348165  1
  O  O320  1  0.42026511  0.78072854  0.27196072  1
  O  O321  1  0.40955919  0.76547122  0.70647471  1
  O  O322  1  0.87197594  0.28901172  0.20923089  1
  O  O323  1  0.90153268  0.28441224  0.76185974  1
  O  O324  1  0.94064201  0.73892476  0.29091327  1
  O  O325  1  0.87488044  0.69776584  0.68920396  1
  O  O326  1  0.34350415  0.52701232  0.51785098  1
  O  O327  1  0.32272957  0.50574202  1.01552667  1
  O  O328  1  0.32466179  1.03197734  0.48785344  1
  O  O329  1  0.39457365  1.00531832  1.00732934  1
  O  O330  1  0.88996146  0.47227181  0.44030807  1
  O  O331  1  0.86902708  0.50715566  0.99174457  1
  O  O332  1  0.82983991  1.03649077  0.41770404  1
  O  O333  1  0.83045786  1.02905009  1.04497214  1
  O  O334  1  0.00799579  -0.04264055  -0.05724510  1
  O  O335  1  0.14635440  0.04103179  0.55680361  1
  O  O336  1  0.16495165  0.59030654  0.06600034  1
  O  O337  1  0.09748468  0.47971744  0.50785255  1
  O  O338  1  0.58805825  -0.00406599  -0.05667168  1
  O  O339  1  0.61771154  0.04555974  0.52180244  1
  O  O340  1  0.61981413  0.45815315  -0.02440306  1
  O  O341  1  0.64354371  0.47689159  0.48405279  1
  O  O342  1  0.32498292  0.34502673  0.08367962  1
  O  O343  1  0.33729838  0.37128856  0.58066206  1
  O  O344  1  0.42985663  0.93043783  0.19463859  1
  O  O345  1  0.38474294  0.82369928  0.56281626  1
  O  O346  1  0.89821013  0.41606651  0.10965059  1
  O  O347  1  0.86104656  0.38594800  0.64707833  1
  O  O348  1  0.90818422  0.82845536  0.12971519  1
  O  O349  1  0.90453531  0.85593801  0.65800610  1
  O  O350  1  0.11206766  0.12222519  0.36798199  1
  O  O351  1  0.13358378  0.12087555  0.90605001  1
  O  O352  1  0.15247045  0.66885301  0.49029147  1
  O  O353  1  0.17701088  0.67628894  0.89447087  1
  O  O354  1  0.56903843  0.18004136  0.46073945  1
  O  O355  1  0.58693747  0.11098988  0.83673405  1
  O  O356  1  0.66696909  0.64120028  0.38757324  1
  O  O357  1  0.66424305  0.69131211  0.84123163  1
