# generated using pymatgen
data_V51Zn51O256
_symmetry_space_group_name_H-M   'P 1'
_cell_length_a   17.37554419
_cell_length_b   17.59592515
_cell_length_c   17.41236975
_cell_angle_alpha   89.94900305
_cell_angle_beta   91.18280241
_cell_angle_gamma   92.24264860
_symmetry_Int_Tables_number   1
_chemical_formula_structural   V51Zn51O256
_chemical_formula_sum   'V51 Zn51 O256'
_cell_volume   5318.42555396
_cell_formula_units_Z   1
loop_
 _symmetry_equiv_pos_site_id
 _symmetry_equiv_pos_as_xyz
  1  'x, y, z'
loop_
 _atom_site_type_symbol
 _atom_site_label
 _atom_site_symmetry_multiplicity
 _atom_site_fract_x
 _atom_site_fract_y
 _atom_site_fract_z
 _atom_site_occupancy
  V  V0  1  0.76616074  0.22460792  0.50019435  1
  V  V1  1  0.13284086  0.00315519  0.60006901  1
  V  V2  1  0.78411414  0.49182689  0.71311820  1
  V  V3  1  0.77931454  0.79765734  0.25044710  1
  V  V4  1  0.88940854  0.63719229  0.73381880  1
  V  V5  1  0.62210142  0.11676483  0.54023076  1
  V  V6  1  0.10510616  0.19770253  0.33276039  1
  V  V7  1  0.66583645  0.63758034  0.47937713  1
  V  V8  1  0.62871134  0.37006115  0.71109768  1
  V  V9  1  0.12634963  0.39929406  0.79669978  1
  V  V10  1  0.22772814  -0.01403809  0.74476512  1
  V  V11  1  0.39579341  0.56327335  0.84928492  1
  V  V12  1  0.87704005  0.48248218  0.86371146  1
  V  V13  1  0.85449575  0.90595490  -0.00057537  1
  V  V14  1  0.42252961  0.32302114  0.32253892  1
  V  V15  1  -0.01594713  0.86028472  0.37757059  1
  V  V16  1  0.48351996  0.14731029  0.10280829  1
  V  V17  1  0.38046878  0.49715548  0.39196119  1
  V  V18  1  -0.02557030  0.04153426  0.50076087  1
  V  V19  1  0.78322188  0.36276310  0.59444813  1
  V  V20  1  0.64632673  0.49631117  0.59693743  1
  V  V21  1  0.74612396  0.45867015  0.23017217  1
  V  V22  1  0.50760542  0.65657307  0.60167735  1
  V  V23  1  0.37969093  0.58614773  0.24526829  1
  V  V24  1  0.18351237  0.14580128  0.51002116  1
  V  V25  1  0.26370987  0.89239000  0.56407199  1
  V  V26  1  0.15840471  0.47024234  0.12006580  1
  V  V27  1  0.12060246  0.35071733  0.24541412  1
  V  V28  1  0.22081574  0.57431553  0.34479498  1
  V  V29  1  0.03555614  0.26800000  0.72861389  1
  V  V30  1  0.51153383  0.40395963  0.84237974  1
  V  V31  1  0.22205606  0.63884229  0.90229007  1
  V  V32  1  0.25077627  0.38264839  0.65626524  1
  V  V33  1  0.25272217  0.70938570  0.49181240  1
  V  V34  1  0.27698709  0.15761223  0.87761051  1
  V  V35  1  0.52118524  0.80979601  0.34834379  1
  V  V36  1  0.23875416  0.54672984  0.76086243  1
  V  V37  1  0.85089164  0.25552797  0.10906301  1
  V  V38  1  0.41121268  0.43168538  -0.01379120  1
  V  V39  1  0.51769291  0.47223945  0.49227838  1
  V  V40  1  0.04013477  0.76838855  0.74521051  1
  V  V41  1  0.76164894  0.68612367  -0.01866009  1
  V  V42  1  0.84529105  0.85976536  0.49993640  1
  V  V43  1  0.48190347  0.91524150  0.93193105  1
  V  V44  1  0.01247695  0.64726144  0.60678165  1
  V  V45  1  0.12612362  0.51235093  0.60373879  1
  V  V46  1  0.64141842  0.23874625  0.36146904  1
  V  V47  1  0.53357862  0.62415444  0.15487120  1
  V  V48  1  0.15676494  0.87105178  0.30558005  1
  V  V49  1  0.35836576  0.74709001  0.14382285  1
  V  V50  1  0.62286092  0.24698289  0.83772415  1
  Zn  Zn51  1  0.11086872  0.17080249  0.13718753  1
  Zn  Zn52  1  0.95367938  0.45657541  0.26888998  1
  Zn  Zn53  1  0.55207236  0.09558425  0.27921010  1
  Zn  Zn54  1  0.32468953  0.36436775  0.83703364  1
  Zn  Zn55  1  0.42159055  0.75506738  0.48984324  1
  Zn  Zn56  1  0.76354757  0.01740567  0.48960416  1
  Zn  Zn57  1  0.54292054  0.05897249  0.80250401  1
  Zn  Zn58  1  0.94549364  0.73063299  0.47183297  1
  Zn  Zn59  1  0.64535613  0.69227570  0.29224210  1
  Zn  Zn60  1  0.59031185  0.97975225  0.40764539  1
  Zn  Zn61  1  0.87745194  0.08899939  0.05199560  1
  Zn  Zn62  1  0.40096359  0.92446370  0.76229070  1
  Zn  Zn63  1  0.78500332  0.31837266  0.79992220  1
  Zn  Zn64  1  0.82191326  0.57501002  0.56017010  1
  Zn  Zn65  1  0.06692852  0.49332764  0.42178292  1
  Zn  Zn66  1  0.60045552  0.72532680  0.76635939  1
  Zn  Zn67  1  0.96651167  0.22936771  0.45885372  1
  Zn  Zn68  1  -0.11285884  0.75965506  0.11740613  1
  Zn  Zn69  1  0.22777254  0.45212308  0.94916553  1
  Zn  Zn70  1  0.53215936  0.47363313  0.27705924  1
  Zn  Zn71  1  0.09930947  0.32158194  0.55808930  1
  Zn  Zn72  1  0.18235148  0.20092149  0.69143366  1
  Zn  Zn73  1  0.32009594  0.06998194  0.59201330  1
  Zn  Zn74  1  0.96361725  0.41019691  0.67112608  1
  Zn  Zn75  1  0.69747846  0.20067715  0.68561008  1
  Zn  Zn76  1  0.69287106  0.40842053  0.42779768  1
  Zn  Zn77  1  0.35272657  0.59823337  0.03522580  1
  Zn  Zn78  1  0.67488423  0.83069655  0.93107218  1
  Zn  Zn79  1  0.40594990  0.94910320  0.11847040  1
  Zn  Zn80  1  0.33764699  0.54138834  0.58948239  1
  Zn  Zn81  1  0.68446439  0.45507721  0.87473359  1
  Zn  Zn82  1  0.12156351  0.02224160  0.38794405  1
  Zn  Zn83  1  0.59262113  0.31438660  0.52149045  1
  Zn  Zn84  1  0.24009443  0.79916425  0.79657702  1
  Zn  Zn85  1  0.48339292  0.16786390  0.43688550  1
  Zn  Zn86  1  0.68994112  0.81908468  0.42501925  1
  Zn  Zn87  1  0.51081255  0.62154897  0.39477176  1
  Zn  Zn88  1  0.34076479  0.78062361  0.32215687  1
  Zn  Zn89  1  0.65497014  0.26829000  0.15949757  1
  Zn  Zn90  1  0.90937484  0.90842564  0.20149457  1
  Zn  Zn91  1  0.75826487  0.49934060  0.01883112  1
  Zn  Zn92  1  0.05491125  0.31097390  0.06596014  1
  Zn  Zn93  1  0.65192835  0.73778206  0.11119011  1
  Zn  Zn94  1  0.05113551  0.57541521  0.81542774  1
  Zn  Zn95  1  0.89388514  0.77171291  0.86039446  1
  Zn  Zn96  1  0.20536353  0.64233519  0.15486342  1
  Zn  Zn97  1  0.60280914  0.35343991  -0.00340299  1
  Zn  Zn98  1  0.10663805  0.82209035  0.50206847  1
  Zn  Zn99  1  0.35260214  0.74367427  0.94006371  1
  Zn  Zn100  1  0.98443188  0.87596458  0.60933088  1
  Zn  Zn101  1  0.28328839  0.08433979  0.07693803  1
  O  O102  1  0.17508834  -0.05850823  0.10313078  1
  O  O103  1  0.16568004  0.11805799  0.61041671  1
  O  O104  1  0.13286911  0.56360913  0.13933536  1
  O  O105  1  0.10540995  0.61082448  0.62546993  1
  O  O106  1  0.58636268  0.17084182  0.11436500  1
  O  O107  1  0.64052482  0.11305984  0.63729575  1
  O  O108  1  0.63059753  0.64947275  0.18570250  1
  O  O109  1  0.66925720  0.59117306  0.58318172  1
  O  O110  1  0.38080199  0.39830354  0.38206716  1
  O  O111  1  0.41667617  0.44112447  0.83745823  1
  O  O112  1  0.43572007  0.84928053  0.32387490  1
  O  O113  1  0.39685202  0.96423341  0.91697714  1
  O  O114  1  0.97785144  0.34721924  0.45214275  1
  O  O115  1  0.85973825  0.38390120  0.85001481  1
  O  O116  1  0.89487947  0.89431648  0.41606877  1
  O  O117  1  0.90326981  0.85887593  0.93162629  1
  O  O118  1  0.31098629  0.01724741  0.24353708  1
  O  O119  1  0.22764445  0.07067058  0.84713528  1
  O  O120  1  0.27817449  0.51029143  0.39960426  1
  O  O121  1  0.24938949  0.53438739  0.87215623  1
  O  O122  1  0.76298967  0.01146188  0.35808119  1
  O  O123  1  0.68727121  -0.04069249  0.82883491  1
  O  O124  1  0.74373136  0.42721039  0.32867335  1
  O  O125  1  0.76914084  0.49610347  0.81454871  1
  O  O126  1  0.23307879  0.47242696  0.05813644  1
  O  O127  1  0.22589971  0.52953260  0.65569859  1
  O  O128  1  0.17702622  0.88772582  0.05880856  1
  O  O129  1  0.24722187  0.98708044  0.62900237  1
  O  O130  1  0.75380389  0.48517134  0.13193480  1
  O  O131  1  0.76595673  0.47408141  0.59250267  1
  O  O132  1  0.79760944  1.03454521  0.13413799  1
  O  O133  1  0.79869647  0.98401098  0.70905294  1
  O  O134  1  0.03410479  0.38896828  0.26786145  1
  O  O135  1  0.02813910  0.38457380  0.77105506  1
  O  O136  1  -0.01632571  0.89819911  0.28579128  1
  O  O137  1  0.01579299  0.85849233  0.71396666  1
  O  O138  1  0.50039088  0.36887207  0.27683845  1
  O  O139  1  0.53939871  0.40278376  0.73323037  1
  O  O140  1  0.62320248  0.93340239  0.18224762  1
  O  O141  1  0.48297595  0.87813196  0.83351438  1
  O  O142  1  0.49420391  0.15617389  0.20894913  1
  O  O143  1  0.48249977  -0.00597246  0.74031501  1
  O  O144  1  0.49697634  0.57879348  0.24437735  1
  O  O145  1  0.56824538  0.67185988  0.68259838  1
  O  O146  1  0.91325825  0.08828381  0.30832384  1
  O  O147  1  1.06867959  0.18093952  0.71094207  1
  O  O148  1  0.92365050  0.59411466  0.18237779  1
  O  O149  1  1.00110208  0.64461121  0.73720418  1
  O  O150  1  0.49807536  0.38579236  -0.04360575  1
  O  O151  1  0.41683759  0.19432274  0.61537693  1
  O  O152  1  0.37132500  0.71306416  0.04615471  1
  O  O153  1  0.32881929  0.75657218  0.43417014  1
  O  O154  1  0.82442234  0.33737315  0.06210332  1
  O  O155  1  0.86168926  0.22945990  0.48779443  1
  O  O156  1  0.82840178  0.68891091  0.05527822  1
  O  O157  1  0.84180499  0.76238148  0.49617132  1
  O  O158  1  0.15014235  0.23752637  0.51359804  1
  O  O159  1  0.06481047  0.20668183  1.04466844  1
  O  O160  1  0.15775918  0.72946213  0.50117640  1
  O  O161  1  0.02662826  0.77228315  1.04090757  1
  O  O162  1  0.63815338  0.21662846  0.51309192  1
  O  O163  1  0.64036155  0.26195490  0.93289644  1
  O  O164  1  0.67129878  0.73195346  0.49494063  1
  O  O165  1  0.68042769  0.74398773  1.00511884  1
  O  O166  1  0.46010289  0.23869547  0.07958314  1
  O  O167  1  0.48087388  0.22481116  0.63701021  1
  O  O168  1  0.48095192  0.72060688  0.15207832  1
  O  O169  1  0.47676970  0.74721643  0.58053683  1
  O  O170  1  0.94298010  0.29938677  0.09864733  1
  O  O171  1  1.01912291  0.30871596  0.63625080  1
  O  O172  1  0.85433295  0.74287752  0.22246353  1
  O  O173  1  1.02128661  0.74219205  0.63029429  1
  O  O174  1  0.01530376  0.21600433  0.36200903  1
  O  O175  1  -0.02889579  0.24114635  0.81650184  1
  O  O176  1  -0.03652225  0.76658232  0.36457277  1
  O  O177  1  0.00140818  0.76259378  0.83562723  1
  O  O178  1  0.43897361  0.24428095  0.38165605  1
  O  O179  1  0.53070733  0.30479683  0.84095680  1
  O  O180  1  0.49447698  0.73251216  0.40790325  1
  O  O181  1  0.43396784  0.82219870  0.94095267  1
  O  O182  1  0.28208689  0.14216687  0.51413173  1
  O  O183  1  0.28333418  0.12299955  0.97307397  1
  O  O184  1  0.28453261  0.63244877  0.53899371  1
  O  O185  1  0.24361936  0.62073923  0.99753487  1
  O  O186  1  0.74728735  0.12813048  0.52137578  1
  O  O187  1  0.70244124  0.10298269  0.93940860  1
  O  O188  1  0.75974444  0.60905874  0.47278832  1
  O  O189  1  0.72554152  0.59344417  0.97641524  1
  O  O190  1  0.32085069  0.38974783  -0.05292444  1
  O  O191  1  0.32048159  0.42910100  0.60500164  1
  O  O192  1  0.00114918  0.73656316  0.10793530  1
  O  O193  1  0.27266268  0.91993420  0.47566516  1
  O  O194  1  0.69021206  0.42042763  -0.02120019  1
  O  O195  1  0.75642541  0.34526548  0.49362209  1
  O  O196  1  0.75781845  0.89367671  -0.02336889  1
  O  O197  1  0.75204161  0.89683891  0.48435616  1
  O  O198  1  0.18496324  0.42370565  0.21088971  1
  O  O199  1  0.13201701  0.50146066  0.76939115  1
  O  O200  1  0.16119309  0.96917609  0.30207686  1
  O  O201  1  0.13048689  1.00998618  0.70251458  1
  O  O202  1  0.64391140  0.47083884  0.23620637  1
  O  O203  1  0.66599390  0.48559247  0.69911358  1
  O  O204  1  0.67132179  1.08074520  0.23598391  1
  O  O205  1  0.65362443  1.00480508  0.78567486  1
  O  O206  1  0.36534746  -0.02605539  0.23458202  1
  O  O207  1  0.32518388  0.00462527  0.75197133  1
  O  O208  1  0.37230372  0.49250237  0.27138266  1
  O  O209  1  0.34140045  0.54376251  0.75726629  1
  O  O210  1  0.82927547  0.01828794  0.19756109  1
  O  O211  1  0.98524218  0.01843598  0.84690413  1
  O  O212  1  0.84663523  0.44229486  0.23611626  1
  O  O213  1  0.88096671  0.47205413  0.71853435  1
  O  O214  1  0.15413622  0.29050707  0.32141381  1
  O  O215  1  0.14103544  0.39801446  0.89321296  1
  O  O216  1  0.09655054  0.86102544  0.39112578  1
  O  O217  1  0.09280564  0.75560831  1.01955175  1
  O  O218  1  0.61547034  0.32536032  0.40177460  1
  O  O219  1  0.66947527  0.35963721  0.81021968  1
  O  O220  1  0.53273906  1.00117794  0.31895066  1
  O  O221  1  0.57752135  0.88313695  0.95259659  1
  O  O222  1  0.38037727  0.13432247  0.10780473  1
  O  O223  1  0.39359798  0.12998999  0.65698396  1
  O  O224  1  0.38062656  0.58963943  0.14553937  1
  O  O225  1  0.42757460  0.60357632  0.62261613  1
  O  O226  1  0.84658391  0.19572024  0.02052687  1
  O  O227  1  0.93855708  0.07190865  0.69084802  1
  O  O228  1  0.96530069  0.60604611  0.01657512  1
  O  O229  1  0.91226796  0.61233411  0.62279597  1
  O  O230  1  0.19622105  0.11109074  0.11998169  1
  O  O231  1  0.24941063  0.28554929  0.64904956  1
  O  O232  1  0.25732487  0.73525378  0.14603814  1
  O  O233  1  0.27605560  0.79473681  0.56779370  1
  O  O234  1  0.75013658  0.22607405  0.11865021  1
  O  O235  1  0.76231618  0.25656131  0.60697557  1
  O  O236  1  0.71397961  0.80233448  0.17457951  1
  O  O237  1  0.73259017  0.82389123  0.69297701  1
  O  O238  1  0.30202992  0.15448729  0.30942161  1
  O  O239  1  0.31583416  0.25347381  0.87935946  1
  O  O240  1  0.22172959  0.65791023  0.39398233  1
  O  O241  1  0.24726797  0.74220387  0.89483728  1
  O  O242  1  0.73619955  0.22320014  0.39499806  1
  O  O243  1  0.72271049  0.22395445  0.79456066  1
  O  O244  1  0.59050977  0.86814975  0.40452431  1
  O  O245  1  0.80201289  0.72188882  0.89886652  1
  O  O246  1  0.09722021  0.01362380  -0.01595889  1
  O  O247  1  -0.00004729  0.13568311  0.50922181  1
  O  O248  1  0.00043941  0.54830404  0.02729274  1
  O  O249  1  0.00231795  0.64620597  0.50790354  1
  O  O250  1  0.50184341  0.11541369  0.01273792  1
  O  O251  1  0.52287228  0.11171700  0.52141029  1
  O  O252  1  0.53042840  0.71743812  0.08895505  1
  O  O253  1  0.54574261  0.62078083  0.51090878  1
  O  O254  1  0.50307008  0.37797335  0.49872611  1
  O  O255  1  0.57590931  0.47569927  0.86252058  1
  O  O256  1  0.53093548  0.90456089  0.55746938  1
  O  O257  1  0.47451495  0.92486765  1.03287354  1
  O  O258  1  1.04874932  0.37910216  0.46602883  1
  O  O259  1  1.00414043  0.32888466  0.94751247  1
  O  O260  1  0.99812980  0.83493600  0.50210715  1
  O  O261  1  0.88455924  0.87243039  1.09605786  1
  O  O262  1  0.50723559  0.49926502  0.38812242  1
  O  O263  1  0.47865867  0.59356243  0.81872271  1
  O  O264  1  0.41077918  0.99917342  0.39445702  1
  O  O265  1  0.53160880  1.00095287  0.90452023  1
  O  O266  1  0.96715917  0.50794183  0.36832895  1
  O  O267  1  0.97610195  0.50349392  0.86029433  1
  O  O268  1  1.01198831  1.00655644  0.41695665  1
  O  O269  1  1.10571406  0.95624440  0.94519329  1
  O  O270  1  0.01158085  -0.00670292  0.14319336  1
  O  O271  1  0.02757927  -0.00871755  0.58188534  1
  O  O272  1  -0.02980651  0.54108482  0.18505117  1
  O  O273  1  0.03284726  0.48132089  0.61877282  1
  O  O274  1  0.48087371  0.04316788  0.13178646  1
  O  O275  1  0.55395677  -0.06605365  0.61780358  1
  O  O276  1  0.53676117  0.55952447  0.08832343  1
  O  O277  1  0.54279756  0.49480084  0.59439276  1
  O  O278  1  0.10574605  0.28842147  0.17127803  1
  O  O279  1  0.24608872  0.40486443  0.76143437  1
  O  O280  1  0.24580576  0.83771369  0.31639728  1
  O  O281  1  0.20691786  0.91130065  0.79973504  1
  O  O282  1  0.71827202  0.36278422  0.19607579  1
  O  O283  1  0.75836887  0.37582937  0.69928298  1
  O  O284  1  0.70684764  0.97115600  0.33305112  1
  O  O285  1  0.83139223  0.95549528  0.76445370  1
  O  O286  1  0.27149287  0.17766228  0.25053866  1
  O  O287  1  0.25631920  0.17334341  0.77634700  1
  O  O288  1  0.26342839  0.59320395  0.25337252  1
  O  O289  1  0.22577198  0.63905816  0.77424093  1
  O  O290  1  0.73019053  0.11387300  0.26379214  1
  O  O291  1  0.89109489  0.11316405  0.71843836  1
  O  O292  1  0.75885032  0.55379088  0.25822789  1
  O  O293  1  0.79245984  0.59015852  0.69057189  1
  O  O294  1  0.38921033  0.06371886  0.40952956  1
  O  O295  1  0.37293172  0.13334170  0.86839219  1
  O  O296  1  0.39963903  0.59900777  0.35914058  1
  O  O297  1  0.35610947  0.64842918  0.87979685  1
  O  O298  1  0.86900635  0.13233496  0.33714087  1
  O  O299  1  0.99849034  0.08641721  0.85871874  1
  O  O300  1  0.89767824  0.53193998  0.41046521  1
  O  O301  1  0.87731080  0.59519716  0.82064863  1
  O  O302  1  0.08242155  0.41741018  0.08009969  1
  O  O303  1  0.15906679  0.40307380  0.61251985  1
  O  O304  1  0.12324881  0.84411276  0.20214089  1
  O  O305  1  0.15194412  0.89942710  0.57639403  1
  O  O306  1  0.59264920  0.32938417  0.10117799  1
  O  O307  1  0.64303496  0.37886040  0.60162047  1
  O  O308  1  0.66221626  0.95229818  0.12658600  1
  O  O309  1  0.69057353  0.87217466  0.66655248  1
  O  O310  1  0.09379819  0.15182994  0.24774528  1
  O  O311  1  0.13560080  0.30055005  0.76190762  1
  O  O312  1  0.10024384  0.78650091  0.24806952  1
  O  O313  1  0.13698811  0.76964138  0.75596368  1
  O  O314  1  0.64328682  0.24641038  0.26427900  1
  O  O315  1  0.61075464  0.27327683  0.70358907  1
  O  O316  1  0.56599350  0.77106772  0.27314773  1
  O  O317  1  0.64103718  0.79279548  0.83357206  1
  O  O318  1  0.35821907  0.29882945  0.25636860  1
  O  O319  1  0.39691818  0.30454062  0.75446215  1
  O  O320  1  0.37458185  0.70646886  0.24309604  1
  O  O321  1  0.33676234  0.83696740  0.75532709  1
  O  O322  1  0.89845641  0.16383872  0.13285047  1
  O  O323  1  0.92549864  0.25416916  0.75434083  1
  O  O324  1  0.72896981  0.76371819  0.33411121  1
  O  O325  1  0.86970557  0.72907610  0.74584019  1
  O  O326  1  0.41198066  0.50663399  0.49234122  1
  O  O327  1  0.40486046  0.53357391  0.96066904  1
  O  O328  1  0.39781466  0.98544206  0.57592889  1
  O  O329  1  0.32243183  0.98983343  1.06430432  1
  O  O330  1  0.89163758  0.50249823  0.47735350  1
  O  O331  1  0.85187752  0.49655450  0.95665364  1
  O  O332  1  0.87613097  1.02991931  0.50073118  1
  O  O333  1  0.88171305  1.00340871  0.99340847  1
  O  O334  1  0.00427787  0.05571308  0.10932700  1
  O  O335  1  0.15386316  0.03702425  0.50102289  1
  O  O336  1  -0.02959218  0.38875671  -0.04246406  1
  O  O337  1  0.13534840  0.51591483  0.50719984  1
  O  O338  1  0.71624430  0.05954147  -0.00602245  1
  O  O339  1  0.64723649  0.02751044  0.49069298  1
  O  O340  1  0.55194757  0.65045341  -0.04651419  1
  O  O341  1  0.62976186  0.47899921  0.48288364  1
  O  O342  1  0.40856468  0.42743102  0.07847370  1
  O  O343  1  0.39280786  0.33258941  0.68894586  1
  O  O344  1  0.37899631  0.84247356  0.14444760  1
  O  O345  1  0.37310523  0.91696351  0.59856443  1
  O  O346  1  0.84806605  0.27325038  0.20551815  1
  O  O347  1  0.87905807  0.37005775  0.59710313  1
  O  O348  1  0.81785023  0.88822812  0.26289509  1
  O  O349  1  0.87526334  0.89060625  0.58948101  1
  O  O350  1  0.15376148  0.13488111  0.39846749  1
  O  O351  1  0.19322527  0.20317936  0.91265707  1
  O  O352  1  0.12987735  0.53422771  0.33798376  1
  O  O353  1  0.12472651  0.62668654  0.88979685  1
  O  O354  1  0.57801166  0.15703376  0.37106687  1
  O  O355  1  0.57899177  0.15739127  0.82420156  1
  O  O356  1  0.62686378  0.62711167  0.38136390  1
  O  O357  1  0.59143102  0.64296893  0.89685225  1
