# generated using pymatgen
data_V51Zn51O256
_symmetry_space_group_name_H-M   'P 1'
_cell_length_a   17.56681436
_cell_length_b   17.41466147
_cell_length_c   17.25168052
_cell_angle_alpha   89.64972170
_cell_angle_beta   89.98402489
_cell_angle_gamma   91.28249880
_symmetry_Int_Tables_number   1
_chemical_formula_structural   V51Zn51O256
_chemical_formula_sum   'V51 Zn51 O256'
_cell_volume   5276.21512226
_cell_formula_units_Z   1
loop_
 _symmetry_equiv_pos_site_id
 _symmetry_equiv_pos_as_xyz
  1  'x, y, z'
loop_
 _atom_site_type_symbol
 _atom_site_label
 _atom_site_symmetry_multiplicity
 _atom_site_fract_x
 _atom_site_fract_y
 _atom_site_fract_z
 _atom_site_occupancy
  V  V0  1  0.75491230  0.51105809  0.74660289  1
  V  V1  1  0.82254173  0.29628649  0.16825919  1
  V  V2  1  0.48077818  0.35075799  0.41471819  1
  V  V3  1  0.89016101  0.11520191  0.26607370  1
  V  V4  1  0.51150936  0.12588848  0.63042095  1
  V  V5  1  -0.00005477  0.25603335  0.22075637  1
  V  V6  1  0.60565594  -0.02805316  0.67028278  1
  V  V7  1  0.64584616  0.61696827  0.01951718  1
  V  V8  1  0.60683321  0.21139532  0.87903671  1
  V  V9  1  0.69808121  0.19172430  0.42221984  1
  V  V10  1  0.24087855  0.14800677  0.38340416  1
  V  V11  1  0.13353785  0.01670531  0.13597436  1
  V  V12  1  0.23964914  0.85786136  0.63272626  1
  V  V13  1  0.38993479  0.39885896  0.06389900  1
  V  V14  1  0.40929497  0.21439530  0.08963502  1
  V  V15  1  0.89134482  0.54820852  0.37211957  1
  V  V16  1  0.11127286  -0.02116459  0.62934176  1
  V  V17  1  0.34721102  0.21631766  0.62075571  1
  V  V18  1  0.37370274  0.15921208  0.27287269  1
  V  V19  1  0.85652541  0.68888468  0.78605042  1
  V  V20  1  0.34591432  0.48743122  0.85726621  1
  V  V21  1  0.46502437  0.22980683  0.76400505  1
  V  V22  1  0.75394971  0.91437135  0.60816167  1
  V  V23  1  0.12918666  0.11256040  -0.01904875  1
  V  V24  1  0.52012572  0.54515881  0.53820800  1
  V  V25  1  0.70583986  -0.02852318  0.25230584  1
  V  V26  1  0.00717389  0.29085737  0.72299482  1
  V  V27  1  0.36513290  -0.01454441  0.36621027  1
  V  V28  1  0.86569668  0.16373663  0.67107710  1
  V  V29  1  0.08358793  0.49414065  0.12770784  1
  V  V30  1  0.74797499  0.78465649  0.47186152  1
  V  V31  1  -0.00277407  0.11571275  0.11674255  1
  V  V32  1  0.19411214  0.83391591  0.12642080  1
  V  V33  1  0.48971234  0.37122244  0.88604929  1
  V  V34  1  0.13159091  0.27353569  0.86866397  1
  V  V35  1  0.88264110  0.37034152  -0.01359291  1
  V  V36  1  0.29812732  0.38693689  0.66637818  1
  V  V37  1  0.74672070  0.22191970  0.00736234  1
  V  V38  1  0.36519085  -0.03994814  0.87877770  1
  V  V39  1  0.26425404  -0.02212364  0.23043879  1
  V  V40  1  0.15501645  0.36794920  0.22603837  1
  V  V41  1  0.25324230  0.24221806  0.00472462  1
  V  V42  1  0.63865449  0.67237739  0.55250391  1
  V  V43  1  0.37026404  0.86927118  0.50960354  1
  V  V44  1  0.85030039  0.74569877  0.15255136  1
  V  V45  1  -0.02507151  0.65853195  0.63261203  1
  V  V46  1  0.09940100  0.26074110  0.36323879  1
  V  V47  1  0.87944737  0.48187487  0.85821932  1
  V  V48  1  0.41564651  0.75577502  0.09529104  1
  V  V49  1  0.76750365  0.42282534  0.60525489  1
  V  V50  1  0.49764820  0.01018937  0.47738733  1
  Zn  Zn51  1  0.55577020  0.08516455  0.30181344  1
  Zn  Zn52  1  0.36792280  0.35419557  0.25069044  1
  Zn  Zn53  1  0.86645037  0.93917321  0.20235481  1
  Zn  Zn54  1  0.70723146  0.99986624  0.44362400  1
  Zn  Zn55  1  0.59238815  0.63164156  0.22927824  1
  Zn  Zn56  1  0.70489601  0.53216664  0.44321538  1
  Zn  Zn57  1  0.06586463  0.33572222  0.55079021  1
  Zn  Zn58  1  0.78745348  0.08914963  0.11923143  1
  Zn  Zn59  1  0.79598134  0.74558503  0.95492646  1
  Zn  Zn60  1  0.74617775  0.84749914  0.79917594  1
  Zn  Zn61  1  0.08362623  0.79614572  0.56352314  1
  Zn  Zn62  1  0.19747297  0.19015974  0.19131702  1
  Zn  Zn63  1  0.44857195  0.13386226  0.93426447  1
  Zn  Zn64  1  0.42440220  0.67730840  0.52750841  1
  Zn  Zn65  1  0.59280026  0.54578346  0.83404323  1
  Zn  Zn66  1  0.70696192  0.12202299  0.59032262  1
  Zn  Zn67  1  0.77349344  0.72692415  0.65718852  1
  Zn  Zn68  1  0.56852716  0.31051854  0.03671180  1
  Zn  Zn69  1  0.53867573  0.05320601  0.81583443  1
  Zn  Zn70  1  0.42406383  0.17453484  0.44639922  1
  Zn  Zn71  1  0.34135301  0.56453742  0.13134820  1
  Zn  Zn72  1  0.83007971  0.34112985  0.34826594  1
  Zn  Zn73  1  0.83094154  0.55863807  0.04568731  1
  Zn  Zn74  1  0.64927056  0.35900251  0.50573710  1
  Zn  Zn75  1  0.15555242  0.12668043  0.76731517  1
  Zn  Zn76  1  0.94439038  0.73447012  0.45550180  1
  Zn  Zn77  1  0.29152957  0.28516624  0.80998708  1
  Zn  Zn78  1  0.08822221  0.45706617  0.40318966  1
  Zn  Zn79  1  0.91658111  1.02827968  0.62789498  1
  Zn  Zn80  1  0.81639369  0.60234480  0.56041762  1
  Zn  Zn81  1  0.88942370  0.45681941  0.18074640  1
  Zn  Zn82  1  0.72000188  0.19529805  0.26731529  1
  Zn  Zn83  1  0.21179860  0.54040138  0.28218001  1
  Zn  Zn84  1  0.47060870  0.50875460  0.32880729  1
  Zn  Zn85  1  0.19834700  0.96490433  0.44603892  1
  Zn  Zn86  1  0.22576718  0.49707351  0.99605765  1
  Zn  Zn87  1  0.20242662  0.63744215  0.12703563  1
  Zn  Zn88  1  0.93918437  0.46255027  0.66694584  1
  Zn  Zn89  1  0.18905283  0.92683203  0.96624230  1
  Zn  Zn90  1  0.50304053  0.39727603  0.67603677  1
  Zn  Zn91  1  0.11821834  0.78141892  0.73224703  1
  Zn  Zn92  1  0.70097603  0.76259311  0.26504946  1
  Zn  Zn93  1  0.58939396  0.86623530  0.52640776  1
  Zn  Zn94  1  0.31419948  0.06402943  0.04824353  1
  Zn  Zn95  1  0.36457901  0.52668943  0.65767996  1
  Zn  Zn96  1  0.44198778  0.62186775  0.97422740  1
  Zn  Zn97  1  0.28920510  0.04312929  0.55857250  1
  Zn  Zn98  1  0.01568211  0.62561849  0.83004671  1
  Zn  Zn99  1  0.62831429  0.80035212  0.93025970  1
  Zn  Zn100  1  0.06776737  0.30476254  0.05039789  1
  Zn  Zn101  1  0.04594127  0.69455853  0.13038966  1
  O  O102  1  0.13788379  0.11856666  0.12357549  1
  O  O103  1  0.04954658  0.10806914  0.49009445  1
  O  O104  1  0.09599864  0.59647473  0.14894921  1
  O  O105  1  0.05406920  0.72761762  0.65392870  1
  O  O106  1  0.53729587  0.00080790  0.05687306  1
  O  O107  1  0.60141921  0.15414975  0.62194254  1
  O  O108  1  0.63786240  0.61868360  0.12133748  1
  O  O109  1  0.66976748  0.67793768  0.64520410  1
  O  O110  1  0.42539807  0.36884787  0.48887719  1
  O  O111  1  0.39343847  0.39012555  0.86540888  1
  O  O112  1  0.39355986  0.89708524  0.35881596  1
  O  O113  1  0.38280268  0.86463997  0.88924141  1
  O  O114  1  0.86293624  0.44840470  0.38245367  1
  O  O115  1  0.90186658  0.38627950  0.87644456  1
  O  O116  1  0.90509305  0.87413632  0.33129273  1
  O  O117  1  0.91814000  0.88050460  0.85580470  1
  O  O118  1  0.25917169  -0.02483744  0.34853817  1
  O  O119  1  0.26305533  -0.04777318  0.88387147  1
  O  O120  1  0.35404410  0.54093823  0.34269040  1
  O  O121  1  0.25343172  0.49259793  0.88614737  1
  O  O122  1  0.74712613  -0.00701150  0.34047313  1
  O  O123  1  0.81947564  -0.01506403  0.92759040  1
  O  O124  1  0.79092993  0.56947233  0.37059700  1
  O  O125  1  0.77674327  0.50181821  0.85212708  1
  O  O126  1  0.26976338  0.59366659  0.20846627  1
  O  O127  1  0.26339215  0.46924895  0.62672027  1
  O  O128  1  0.26025475  1.01581623  0.13293105  1
  O  O129  1  0.23833544  0.96091304  0.62163790  1
  O  O130  1  0.80423527  0.51183994  0.13925315  1
  O  O131  1  0.76904314  0.52852312  0.63203899  1
  O  O132  1  0.77024372  0.98299639  0.16812292  1
  O  O133  1  0.68542199  1.00862961  0.61355213  1
  O  O134  1  -0.00213739  0.34983997  0.21551851  1
  O  O135  1  0.00019840  0.38729119  0.72454970  1
  O  O136  1  -0.03196342  0.84329865  0.32735629  1
  O  O137  1  -0.03603736  0.85376116  0.80977260  1
  O  O138  1  0.44142604  0.39960744  0.32435734  1
  O  O139  1  0.50063610  0.33186363  0.76809487  1
  O  O140  1  0.52617459  0.89391262  0.26244013  1
  O  O141  1  0.37474148  0.71528991  0.74003493  1
  O  O142  1  0.46806524  0.13613641  0.26373375  1
  O  O143  1  0.48738898  0.12425102  0.73990564  1
  O  O144  1  0.51197066  0.56716644  0.24567015  1
  O  O145  1  0.50407249  0.61649407  0.81327839  1
  O  O146  1  0.99294946  0.13326348  0.22267114  1
  O  O147  1  1.01129934  0.01090931  0.81395539  1
  O  O148  1  1.11077099  0.67799232  0.32474174  1
  O  O149  1  0.95090159  0.67406898  0.75342034  1
  O  O150  1  0.35476815  0.25839792  0.01081929  1
  O  O151  1  0.36288843  0.22025327  0.52563809  1
  O  O152  1  0.41417905  0.72998016  -0.00850985  1
  O  O153  1  0.40159605  0.77724990  0.49459843  1
  O  O154  1  0.81414012  0.22483945  0.09280831  1
  O  O155  1  0.91343514  0.30899222  0.43430153  1
  O  O156  1  0.84944904  0.76186302  0.04977794  1
  O  O157  1  0.84430631  0.78119385  0.45756952  1
  O  O158  1  0.09149564  0.27401655  0.45935350  1
  O  O159  1  0.12270151  0.23374846  0.97186689  1
  O  O160  1  0.21216065  0.65398916  0.48926273  1
  O  O161  1  -0.01558265  0.62069156  1.04499207  1
  O  O162  1  0.64850240  0.24459671  0.48337430  1
  O  O163  1  0.67057488  0.26667085  1.04460976  1
  O  O164  1  0.63101197  0.76526846  0.51025381  1
  O  O165  1  0.63363214  0.72008391  1.01444665  1
  O  O166  1  0.50381703  0.23535672  0.09103142  1
  O  O167  1  0.45908764  0.21751026  0.63810529  1
  O  O168  1  0.51053668  0.78451189  0.08677817  1
  O  O169  1  0.43422683  0.74950062  0.71177456  1
  O  O170  1  1.01734852  0.22442838  0.11695434  1
  O  O171  1  1.06108531  0.27435911  0.64099393  1
  O  O172  1  0.94908087  0.72382484  0.16912443  1
  O  O173  1  1.02408854  0.80608920  0.47377718  1
  O  O174  1  0.00676703  0.24553000  0.33128037  1
  O  O175  1  0.04610077  0.24759178  0.81087249  1
  O  O176  1  0.08807273  0.69205802  0.39084638  1
  O  O177  1  -0.00039488  0.79576370  0.97112729  1
  O  O178  1  0.48994962  0.25174199  0.40521147  1
  O  O179  1  0.44534346  0.22173096  0.86115818  1
  O  O180  1  0.53576649  0.72439147  0.38351282  1
  O  O181  1  0.47907531  0.66154769  0.86580155  1
  O  O182  1  0.23462751  0.08123627  0.46453663  1
  O  O183  1  0.24252533  0.13976183  0.99449172  1
  O  O184  1  0.33853494  0.58303273  0.40528893  1
  O  O185  1  0.26584655  0.58840145  1.05026010  1
  O  O186  1  0.72875331  0.11073568  0.47807869  1
  O  O187  1  0.74116012  0.12280400  1.02367131  1
  O  O188  1  0.73978414  0.67521428  0.50510932  1
  O  O189  1  0.74791937  0.64141108  1.00703080  1
  O  O190  1  0.30241935  0.41168299  0.02594188  1
  O  O191  1  0.27185995  0.44063707  0.44378834  1
  O  O192  1  0.21706966  0.84341261  0.03045028  1
  O  O193  1  0.28251926  0.87575110  0.46964095  1
  O  O194  1  0.81744754  0.29343417  -0.03499473  1
  O  O195  1  0.73601961  0.44331409  0.50046022  1
  O  O196  1  0.73097264  0.81523453  -0.09459598  1
  O  O197  1  0.70643605  0.89960536  0.49956825  1
  O  O198  1  0.13292790  0.47225681  0.22531955  1
  O  O199  1  0.10852007  0.53267952  0.80636135  1
  O  O200  1  0.16205934  1.00572976  0.23480126  1
  O  O201  1  0.14196978  1.05159500  0.69504616  1
  O  O202  1  0.68548818  0.45793168  0.29101611  1
  O  O203  1  0.65888533  0.53026412  0.75239994  1
  O  O204  1  0.62186378  1.02169514  0.24420864  1
  O  O205  1  0.60646575  0.98406357  0.76958157  1
  O  O206  1  0.35961276  0.00935575  0.25588261  1
  O  O207  1  0.35377818  -0.04160304  0.77953028  1
  O  O208  1  0.56865055  0.43942951  0.15406709  1
  O  O209  1  0.36488592  0.53389436  0.77004726  1
  O  O210  1  0.90686679  0.01716447  0.26127895  1
  O  O211  1  0.87980726  0.08251924  0.72578052  1
  O  O212  1  0.89142745  0.54402192  0.27050249  1
  O  O213  1  0.87629274  0.49192397  0.75558910  1
  O  O214  1  0.12207948  0.36416550  0.33455466  1
  O  O215  1  0.12486883  0.36571193  0.86649914  1
  O  O216  1  0.12379371  0.84069618  0.31269050  1
  O  O217  1  0.10588527  0.88706329  0.89617349  1
  O  O218  1  0.64957477  0.50033932  0.33612280  1
  O  O219  1  0.56600491  0.29870114  0.91938298  1
  O  O220  1  0.54357945  0.86458393  0.32416705  1
  O  O221  1  0.60567354  0.74394454  0.81902268  1
  O  O222  1  0.35658096  0.17123768  0.16502179  1
  O  O223  1  0.31169226  0.12483036  0.63330538  1
  O  O224  1  0.42364969  0.64391257  0.09040629  1
  O  O225  1  0.23331783  0.63906058  0.75041904  1
  O  O226  1  0.90518080  0.09604881  0.09961854  1
  O  O227  1  0.90316684  0.13599230  0.58408435  1
  O  O228  1  0.83917333  0.64689003  0.13469787  1
  O  O229  1  0.87181061  0.67644064  0.62557698  1
  O  O230  1  0.22245209  0.25974459  0.09632602  1
  O  O231  1  0.27675872  0.29294765  0.62605991  1
  O  O232  1  0.31451379  0.74623505  0.10760932  1
  O  O233  1  0.19605020  0.79917700  0.56559704  1
  O  O234  1  0.73049825  0.28534527  0.20276872  1
  O  O235  1  0.88924010  0.28875310  0.49936005  1
  O  O236  1  0.75049719  0.77104219  0.14448990  1
  O  O237  1  0.76780957  0.81473678  0.58961081  1
  O  O238  1  0.26322192  0.23386507  0.41293013  1
  O  O239  1  0.24329503  0.29015936  0.91364013  1
  O  O240  1  0.20223027  0.58437618  0.49311245  1
  O  O241  1  0.13661574  0.71878244  0.90033529  1
  O  O242  1  0.76518610  0.25270088  0.37329081  1
  O  O243  1  0.70234886  0.20814752  0.90232026  1
  O  O244  1  0.71433364  0.78139988  0.38025319  1
  O  O245  1  0.63329202  0.78588436  0.76569958  1
  O  O246  1  0.03423493  0.11256036  0.01117550  1
  O  O247  1  0.06232856  -0.00995399  0.36611785  1
  O  O248  1  -0.07599515  0.62083464  0.00396620  1
  O  O249  1  -0.01273745  0.66483311  0.53354126  1
  O  O250  1  0.40947286  0.12356114  0.03602601  1
  O  O251  1  0.47611923  0.10263688  0.52798227  1
  O  O252  1  0.54714841  0.59145287  0.01380857  1
  O  O253  1  0.53320412  0.65612478  0.55814321  1
  O  O254  1  0.57305669  0.38727430  0.43593650  1
  O  O255  1  0.47340553  0.38059868  0.99556545  1
  O  O256  1  0.48614845  0.90973310  0.50672550  1
  O  O257  1  0.53852065  0.84297129  0.93954333  1
  O  O258  1  1.05258651  0.42821480  0.50173180  1
  O  O259  1  0.97386834  0.34695565  1.00746190  1
  O  O260  1  1.12978385  0.84630105  0.38331875  1
  O  O261  1  1.04198646  0.78801141  1.02903676  1
  O  O262  1  0.49520093  0.52690295  0.44574195  1
  O  O263  1  0.54009913  0.45219688  0.86865829  1
  O  O264  1  0.47702424  1.02636920  0.37803387  1
  O  O265  1  0.46636749  0.97615360  0.87756393  1
  O  O266  1  0.98642034  0.51622661  0.37817619  1
  O  O267  1  0.95402622  0.54796817  0.87688376  1
  O  O268  1  0.97677018  0.96269069  0.45759586  1
  O  O269  1  1.11585927  0.89118335  0.82312470  1
  O  O270  1  0.03307240  0.01533067  0.13449912  1
  O  O271  1  0.01504571  -0.00955697  0.63286185  1
  O  O272  1  -0.01295125  0.48246295  0.13200663  1
  O  O273  1  -0.00931514  0.56260891  0.64947872  1
  O  O274  1  0.51024739  0.01104340  0.12151412  1
  O  O275  1  0.52104288  0.01850799  0.63934258  1
  O  O276  1  0.61142450  0.39747997  0.11513271  1
  O  O277  1  0.53941637  0.46852268  0.60066542  1
  O  O278  1  0.25136530  0.36874116  0.23363187  1
  O  O279  1  0.27419832  0.38561479  0.76291956  1
  O  O280  1  0.25755953  0.87953783  0.20336514  1
  O  O281  1  0.22925709  0.81288149  0.72232765  1
  O  O282  1  0.84692840  0.37309707  0.24401005  1
  O  O283  1  0.75185116  0.41583340  0.71570732  1
  O  O284  1  0.68972550  0.87431853  0.25458383  1
  O  O285  1  0.74234945  0.90922698  0.70853826  1
  O  O286  1  0.25941130  0.14204430  0.27261138  1
  O  O287  1  0.07779596  0.14634299  0.54182705  1
  O  O288  1  0.28058725  0.76311953  0.35245592  1
  O  O289  1  0.14564207  0.52850625  0.74579494  1
  O  O290  1  0.79160810  0.12276813  0.23021229  1
  O  O291  1  0.76973103  0.17825990  0.65883508  1
  O  O292  1  0.69079710  0.64872530  0.27079270  1
  O  O293  1  0.78820490  0.62190626  0.75924730  1
  O  O294  1  0.35561906  0.11522123  0.37389895  1
  O  O295  1  0.36868896  0.06714063  0.87731850  1
  O  O296  1  0.37929404  0.64658507  0.41438146  1
  O  O297  1  0.39565857  0.53702051  0.92835894  1
  O  O298  1  0.88986665  0.13563015  0.35749910  1
  O  O299  1  0.97597898  0.00748021  0.87513802  1
  O  O300  1  0.92151685  0.64669285  0.37321088  1
  O  O301  1  0.86260023  0.69903742  0.88474365  1
  O  O302  1  0.11861235  0.37447887  0.12715825  1
  O  O303  1  0.24075876  0.38686689  0.47751387  1
  O  O304  1  0.12475046  0.89990809  0.13151328  1
  O  O305  1  0.11509250  0.87989652  0.65875734  1
  O  O306  1  0.55986608  0.28197497  0.23664298  1
  O  O307  1  0.70135271  0.34584878  0.60263721  1
  O  O308  1  0.68638796  0.94401326  0.04058580  1
  O  O309  1  0.59587777  0.87909048  0.64119133  1
  O  O310  1  0.12101671  0.26158983  0.23614164  1
  O  O311  1  0.19142698  0.22615920  0.79384550  1
  O  O312  1  0.15100036  0.74140386  0.14061948  1
  O  O313  1  0.08763380  0.71629020  0.82635060  1
  O  O314  1  0.59111834  0.32732025  0.28103946  1
  O  O315  1  0.59232392  0.21946937  0.78385581  1
  O  O316  1  0.59957561  0.73978251  0.22074563  1
  O  O317  1  0.47219926  0.79757592  0.75368882  1
  O  O318  1  0.37384738  0.25194850  0.29701956  1
  O  O319  1  0.36590815  0.23879808  0.73953202  1
  O  O320  1  0.43298167  0.73651497  0.19166035  1
  O  O321  1  0.24704665  0.65190271  0.81870620  1
  O  O322  1  0.89472170  0.23492490  0.22188171  1
  O  O323  1  0.91585353  0.25006592  0.70972734  1
  O  O324  1  0.82140863  0.74055462  0.25039744  1
  O  O325  1  0.81822185  0.77557989  0.75208714  1
  O  O326  1  0.41984573  0.57329640  0.57493731  1
  O  O327  1  0.40881039  0.48198810  1.11344341  1
  O  O328  1  0.37364204  0.99040364  0.48129298  1
  O  O329  1  0.35257959  0.97547828  0.98312259  1
  O  O330  1  0.88218543  0.55511023  0.47682911  1
  O  O331  1  0.85687805  0.47241979  0.98028840  1
  O  O332  1  0.99748823  1.00259535  0.39845262  1
  O  O333  1  0.85579567  0.95822459  0.98196562  1
  O  O334  1  0.15270412  0.01490458  0.01949284  1
  O  O335  1  0.12623184  -0.02061921  0.52767946  1
  O  O336  1  0.12103553  0.49268276  0.03543821  1
  O  O337  1  0.16859400  0.52564881  0.37868042  1
  O  O338  1  0.67683030  -0.04659093  -0.02914043  1
  O  O339  1  0.59365541  0.01331591  0.46980783  1
  O  O340  1  0.67768905  0.52247014  0.02660166  1
  O  O341  1  0.62801260  0.57243114  0.51155149  1
  O  O342  1  0.39128830  0.32769685  0.13972567  1
  O  O343  1  0.39565465  0.40729488  0.66090746  1
  O  O344  1  0.39258437  0.85058840  0.09213383  1
  O  O345  1  0.34428558  0.86012023  0.60874310  1
  O  O346  1  0.84866070  0.36895582  0.09633602  1
  O  O347  1  0.86357755  0.40477293  0.60135750  1
  O  O348  1  0.88644931  0.84378297  0.15928268  1
  O  O349  1  0.83695302  0.96074532  0.58867671  1
  O  O350  1  0.14084951  0.16596168  0.36128897  1
  O  O351  1  0.13082576  0.09797998  0.88457488  1
  O  O352  1  0.26223349  0.71050841  0.30872792  1
  O  O353  1  0.12031172  0.66328553  0.94473682  1
  O  O354  1  0.64125773  0.15733012  0.34244653  1
  O  O355  1  0.55693726  0.12144260  0.90571168  1
  O  O356  1  0.56586574  0.66228031  0.37316137  1
  O  O357  1  0.63568519  0.61185519  0.91630586  1
