# generated using pymatgen
data_V51Zn51O256
_symmetry_space_group_name_H-M   'P 1'
_cell_length_a   17.47192051
_cell_length_b   17.45632385
_cell_length_c   17.26677835
_cell_angle_alpha   88.88096927
_cell_angle_beta   89.73027415
_cell_angle_gamma   90.81318976
_symmetry_Int_Tables_number   1
_chemical_formula_structural   V51Zn51O256
_chemical_formula_sum   'V51 Zn51 O256'
_cell_volume   5264.68960929
_cell_formula_units_Z   1
loop_
 _symmetry_equiv_pos_site_id
 _symmetry_equiv_pos_as_xyz
  1  'x, y, z'
loop_
 _atom_site_type_symbol
 _atom_site_label
 _atom_site_symmetry_multiplicity
 _atom_site_fract_x
 _atom_site_fract_y
 _atom_site_fract_z
 _atom_site_occupancy
  V  V0  1  -0.03589975  0.36190781  0.88012282  1
  V  V1  1  0.20355290  0.36026692  0.56887282  1
  V  V2  1  0.37200790  0.00360153  0.37922553  1
  V  V3  1  0.89473393  0.75693686  0.14392352  1
  V  V4  1  0.69115488  0.20115991  0.00839774  1
  V  V5  1  0.74058752  0.51037481  0.77826431  1
  V  V6  1  0.62642255  0.54282043  0.64923523  1
  V  V7  1  0.10643582  0.12105039  0.47901463  1
  V  V8  1  0.04073222  0.50341913  -0.02684467  1
  V  V9  1  0.75527029  0.07769407  0.43960426  1
  V  V10  1  0.88048318  0.86186876  0.00465509  1
  V  V11  1  0.02366065  0.12985054  0.12288886  1
  V  V12  1  0.27475139  0.24111032  0.45957078  1
  V  V13  1  0.75873784  0.60524623  0.36828114  1
  V  V14  1  0.63230787  0.14860718  0.51928089  1
  V  V15  1  0.74269952  0.41995837  0.13147469  1
  V  V16  1  0.73701774  0.73722808  0.48925487  1
  V  V17  1  0.08721745  0.22628418  0.33753435  1
  V  V18  1  0.00308214  0.00571916  0.00060916  1
  V  V19  1  0.25795496  0.75426441  0.02548911  1
  V  V20  1  0.31762833  0.06857788  0.70462715  1
  V  V21  1  0.60857896  0.79665738  0.84095227  1
  V  V22  1  0.20848563  0.59066389  0.38049136  1
  V  V23  1  0.87658880  0.75080363  0.61373199  1
  V  V24  1  0.63761697  0.62508148  -0.00777768  1
  V  V25  1  0.76204394  0.34015487  0.69597609  1
  V  V26  1  0.88955562  0.62530944  0.75250125  1
  V  V27  1  0.54133685  0.75775894  0.20376185  1
  V  V28  1  0.59472031  0.01311397  0.62429235  1
  V  V29  1  0.11687149  0.72830423  0.87702071  1
  V  V30  1  0.11974317  0.86947488  0.73974777  1
  V  V31  1  0.77080666  0.65606259  0.88493439  1
  V  V32  1  0.45417938  0.88527287  0.87173014  1
  V  V33  1  0.22375217  0.77883887  0.51033870  1
  V  V34  1  0.33727118  0.00193477  0.88877668  1
  V  V35  1  -0.02069213  0.87763661  0.36971526  1
  V  V36  1  0.50568206  0.23870987  0.24149071  1
  V  V37  1  0.11681417  0.77444080  0.36851751  1
  V  V38  1  0.00741675  0.38524517  0.29309008  1
  V  V39  1  0.60415639  0.52000061  0.12018093  1
  V  V40  1  0.63351990  0.90331911  0.28305962  1
  V  V41  1  0.88463730  0.61948335  0.25189374  1
  V  V42  1  0.74055041  0.87563331  0.12639273  1
  V  V43  1  0.13242681  -0.01457313  0.13192974  1
  V  V44  1  0.87373514  0.50304492  0.90070545  1
  V  V45  1  -0.01905299  -0.01008513  0.50360629  1
  V  V46  1  0.50099778  0.25632691  0.81448068  1
  V  V47  1  0.42463362  0.50721415  0.39230353  1
  V  V48  1  0.01322477  0.87562128  0.88473287  1
  V  V49  1  -0.00607262  0.60582082  0.60587969  1
  V  V50  1  0.28674621  0.26335889  0.02799561  1
  Zn  Zn51  1  0.07319284  0.31376005  0.03960473  1
  Zn  Zn52  1  0.16740499  0.04638748  0.79593418  1
  Zn  Zn53  1  0.46673669  0.24857470  0.52827285  1
  Zn  Zn54  1  0.78742750  0.59485202  0.58421491  1
  Zn  Zn55  1  0.82941461  0.43398722  0.29345662  1
  Zn  Zn56  1  0.43198415  0.42496091  0.06794687  1
  Zn  Zn57  1  0.93280759  0.15829963  0.40535148  1
  Zn  Zn58  1  0.45093312  0.91805419  0.70295307  1
  Zn  Zn59  1  0.84996143  -0.12069925  0.49831066  1
  Zn  Zn60  1  0.95453147  0.68080908  0.96004188  1
  Zn  Zn61  1  0.45787264  0.72689448  1.00901763  1
  Zn  Zn62  1  0.58741059  0.62755401  0.80261821  1
  Zn  Zn63  1  0.63033805  0.33819963  0.54500050  1
  Zn  Zn64  1  0.15284058  0.69899445  0.68289155  1
  Zn  Zn65  1  0.19073290  0.38564556  0.35791925  1
  Zn  Zn66  1  0.82618889  0.04295763  0.07345642  1
  Zn  Zn67  1  0.66956206  0.16110190  0.72801606  1
  Zn  Zn68  1  0.62971795  0.97848916  0.79641806  1
  Zn  Zn69  1  0.93473591  0.68944583  0.43373385  1
  Zn  Zn70  1  0.58386354  0.82511521  0.02415470  1
  Zn  Zn71  1  0.30195205  0.07048508  0.07413560  1
  Zn  Zn72  1  0.70617281  0.70500450  0.70066010  1
  Zn  Zn73  1  0.06334330  0.80687991  0.06496483  1
  Zn  Zn74  1  0.71964160  0.68166868  0.17322877  1
  Zn  Zn75  1  0.93181409  0.44010825  0.70607449  1
  Zn  Zn76  1  0.98815390  0.90844543  0.16553963  1
  Zn  Zn77  1  0.20001103  0.17384981  0.17625690  1
  Zn  Zn78  1  0.26592188  0.82894509  0.84552241  1
  Zn  Zn79  1  0.05604428  0.04511173  0.30143544  1
  Zn  Zn80  1  0.51397081  0.37182019  0.67467718  1
  Zn  Zn81  1  0.35535300  0.36808222  0.25432199  1
  Zn  Zn82  1  0.20779085  0.69555246  0.21672603  1
  Zn  Zn83  1  0.81554628  0.58386452  0.06793019  1
  Zn  Zn84  1  0.73733928  0.25900854  0.21356145  1
  Zn  Zn85  1  0.63602966  0.10410988  0.30242311  1
  Zn  Zn86  1  0.30084446  0.51410261  0.53084819  1
  Zn  Zn87  1  0.06769771  0.58313687  0.28317585  1
  Zn  Zn88  1  0.56395127  0.59465277  0.29929544  1
  Zn  Zn89  1  0.06491921  0.26549002  0.54658182  1
  Zn  Zn90  1  0.61314413  0.52792694  0.44714211  1
  Zn  Zn91  1  0.18058804  0.92850448  0.96012042  1
  Zn  Zn92  1  0.58409668  0.32032906  0.08302167  1
  Zn  Zn93  1  0.35833490  0.65934682  0.46212285  1
  Zn  Zn94  1  0.67543093  0.92036161  0.47401868  1
  Zn  Zn95  1  0.32494907  0.80805850  0.37613242  1
  Zn  Zn96  1  0.17875397  0.94127667  0.43505843  1
  Zn  Zn97  1  0.87821459  0.80856769  0.80569663  1
  Zn  Zn98  1  0.43977028  0.90906673  0.24168122  1
  Zn  Zn99  1  0.04633546  0.80645068  0.55532091  1
  Zn  Zn100  1  0.19954192  0.17446189  0.62295056  1
  Zn  Zn101  1  0.80186120  0.80936894  0.31229435  1
  O  O102  1  0.12427512  0.10521594  0.11975498  1
  O  O103  1  0.09517802  0.16229384  0.57950717  1
  O  O104  1  0.14088824  0.59921495  0.18977418  1
  O  O105  1  0.08665310  0.62854729  0.63063939  1
  O  O106  1  0.71543256  0.16225456  0.25587832  1
  O  O107  1  0.62108042  0.11609992  0.62908525  1
  O  O108  1  0.64628511  0.62462248  0.10173703  1
  O  O109  1  0.60764400  0.63547457  0.68907225  1
  O  O110  1  0.39289198  0.44247657  0.32468756  1
  O  O111  1  0.35201419  0.47157344  0.91774810  1
  O  O112  1  0.39314632  0.89969895  0.35391992  1
  O  O113  1  0.34606517  0.89354196  0.89298503  1
  O  O114  1  0.91522965  0.38163198  0.33627274  1
  O  O115  1  0.86617694  0.40161385  0.89297234  1
  O  O116  1  0.87933910  0.86488148  0.38281623  1
  O  O117  1  0.89740917  0.86354125  0.89953029  1
  O  O118  1  0.27262509  -0.02583125  0.37120990  1
  O  O119  1  0.23463815  -0.00679721  0.87893597  1
  O  O120  1  0.19889810  0.49372731  0.36915213  1
  O  O121  1  0.22122237  0.58028140  0.78122318  1
  O  O122  1  0.75292198  -0.01653154  0.41498710  1
  O  O123  1  0.76573314  -0.06030593  0.81357992  1
  O  O124  1  0.77531426  0.50899973  0.36238214  1
  O  O125  1  0.76843787  0.52289464  0.87889890  1
  O  O126  1  0.22820863  0.53508541  0.11572320  1
  O  O127  1  0.24288547  0.44657708  0.59662948  1
  O  O128  1  0.22674549  0.99063750  0.10117992  1
  O  O129  1  0.30048646  0.98623322  0.63626552  1
  O  O130  1  0.75235203  0.51799103  0.13568741  1
  O  O131  1  0.73064946  0.52881830  0.66232731  1
  O  O132  1  0.76950006  0.97080354  0.13413507  1
  O  O133  1  0.87747594  1.02375484  0.69535909  1
  O  O134  1  0.00098961  0.35187011  0.20469909  1
  O  O135  1  -0.01084787  0.38320331  0.78470212  1
  O  O136  1  -0.01328536  0.88312204  0.27232384  1
  O  O137  1  -0.00177016  0.86268004  0.78640628  1
  O  O138  1  0.51815842  0.32189538  0.18034436  1
  O  O139  1  0.53861515  0.35643346  0.78695539  1
  O  O140  1  0.54135946  0.85898649  0.24592429  1
  O  O141  1  0.43186201  0.84566265  0.78099308  1
  O  O142  1  0.52499648  0.14765183  0.28955068  1
  O  O143  1  0.49277789  0.16002716  0.83756733  1
  O  O144  1  0.50622997  0.67893245  0.25416008  1
  O  O145  1  0.40039532  0.63657645  0.78086238  1
  O  O146  1  1.00555027  0.11360473  0.21994190  1
  O  O147  1  1.10322760  0.18641581  0.86586025  1
  O  O148  1  0.98030539  0.63955188  0.24944533  1
  O  O149  1  0.98260810  0.62642993  0.75498069  1
  O  O150  1  0.37109324  0.21090106  0.04064671  1
  O  O151  1  0.37024033  0.24480400  0.48407193  1
  O  O152  1  0.35045682  0.72993184  -0.00068091  1
  O  O153  1  0.33087780  0.76331531  0.48054954  1
  O  O154  1  0.78819464  0.21746729  0.00317150  1
  O  O155  1  0.90241364  0.24388879  0.50010537  1
  O  O156  1  0.88992338  0.75807506  0.01989471  1
  O  O157  1  0.86716940  0.74664821  0.50650094  1
  O  O158  1  0.10407915  0.23006861  0.44560932  1
  O  O159  1  0.18771000  0.30411952  1.02158620  1
  O  O160  1  0.12229713  0.75611438  0.48648049  1
  O  O161  1  0.10972308  0.72615660  1.00023281  1
  O  O162  1  0.67023065  0.23677513  0.52197136  1
  O  O163  1  0.58902234  0.21367127  1.03605855  1
  O  O164  1  0.64604599  0.71996287  0.50290687  1
  O  O165  1  0.64370698  0.79653917  0.93481918  1
  O  O166  1  0.48679660  0.17847068  0.16342788  1
  O  O167  1  0.47306904  0.26603136  0.71006091  1
  O  O168  1  0.51410316  0.76698116  0.10475671  1
  O  O169  1  0.43103437  0.60071756  0.60489939  1
  O  O170  1  1.03589347  0.22549947  0.09647069  1
  O  O171  1  0.94575345  0.28063728  0.54506268  1
  O  O172  1  0.99191613  0.74920255  0.13456779  1
  O  O173  1  0.97662509  0.72982973  0.61001814  1
  O  O174  1  -0.01094229  0.21727900  0.32868956  1
  O  O175  1  -0.04490680  0.26887596  0.88742877  1
  O  O176  1  0.00822792  0.76971668  0.38572356  1
  O  O177  1  0.01530933  0.75857933  0.90163876  1
  O  O178  1  0.50106498  0.27949205  0.33477096  1
  O  O179  1  0.51756830  0.29079563  0.90462495  1
  O  O180  1  0.40484908  0.79678761  0.22648191  1
  O  O181  1  0.53997370  0.72662859  0.82753571  1
  O  O182  1  0.22724900  0.16195147  0.50604293  1
  O  O183  1  0.24783848  0.16310217  1.03055715  1
  O  O184  1  0.25638856  0.60232874  0.47306868  1
  O  O185  1  0.16878615  0.68361279  1.03100493  1
  O  O186  1  0.73803769  0.09252841  0.53567385  1
  O  O187  1  0.71655244  0.12051108  1.06903063  1
  O  O188  1  0.76958351  0.62204374  0.47621471  1
  O  O189  1  0.75319428  0.64178616  0.99063749  1
  O  O190  1  0.33940230  0.34679116  0.03646228  1
  O  O191  1  0.23162510  0.33926657  0.46913820  1
  O  O192  1  0.23677860  0.84976818  0.01729607  1
  O  O193  1  0.22273744  0.87610501  0.51584379  1
  O  O194  1  0.68768988  0.27385940  -0.06205412  1
  O  O195  1  0.83186523  0.37526238  0.50163932  1
  O  O196  1  0.78381318  0.87527857  0.01836744  1
  O  O197  1  0.74397474  0.84080523  0.50797620  1
  O  O198  1  0.19108802  0.53187611  0.17765395  1
  O  O199  1  0.20320835  0.42347632  0.80335324  1
  O  O200  1  0.12986126  1.00072286  0.23058431  1
  O  O201  1  0.10974359  0.96727279  0.74896427  1
  O  O202  1  0.60155267  0.52681009  0.21783325  1
  O  O203  1  0.64446338  0.52398289  0.78634374  1
  O  O204  1  0.62166717  0.99967470  0.27105524  1
  O  O205  1  0.64889039  0.95989403  0.68472110  1
  O  O206  1  0.39456687  0.00784188  0.27470507  1
  O  O207  1  0.34057632  -0.04063567  0.70134350  1
  O  O208  1  0.37405083  0.57022352  0.19697076  1
  O  O209  1  0.38556886  0.56890601  0.77071558  1
  O  O210  1  0.85808951  0.15699928  0.17979586  1
  O  O211  1  0.87479510  0.08530564  0.85720803  1
  O  O212  1  0.87819122  0.52425386  0.23919084  1
  O  O213  1  0.86416350  0.51970828  0.76595953  1
  O  O214  1  0.08880523  0.33624949  0.34496189  1
  O  O215  1  0.18852179  0.35544499  0.79355305  1
  O  O216  1  0.11355900  0.87546262  0.37119713  1
  O  O217  1  0.11571707  0.86690476  0.88305277  1
  O  O218  1  0.63813862  0.41338566  0.45529768  1
  O  O219  1  0.51602273  0.49088500  0.90845664  1
  O  O220  1  0.62833355  0.88193106  0.37791951  1
  O  O221  1  0.56718129  0.89340041  0.82981425  1
  O  O222  1  0.42633202  0.00864339  0.10438822  1
  O  O223  1  0.37086658  0.12844657  0.65427360  1
  O  O224  1  0.36962891  0.60040560  0.13266909  1
  O  O225  1  0.35734345  0.58401051  0.61615208  1
  O  O226  1  0.89439071  0.12599117  0.11200854  1
  O  O227  1  0.98323046  0.13597092  0.71769349  1
  O  O228  1  0.86160288  0.65228404  0.14305645  1
  O  O229  1  0.88385930  0.61992742  0.64163940  1
  O  O230  1  0.25195268  0.26875974  0.13118342  1
  O  O231  1  0.23335273  0.28390112  0.62430667  1
  O  O232  1  0.25822453  0.73631745  0.12585013  1
  O  O233  1  0.22293508  0.74050915  0.60233538  1
  O  O234  1  0.68936493  0.26712874  0.09853660  1
  O  O235  1  0.74267428  0.24427268  0.71958110  1
  O  O236  1  0.77401600  0.77738989  0.13296394  1
  O  O237  1  0.76667157  0.71067058  0.60649820  1
  O  O238  1  0.26465460  0.22962987  0.36479136  1
  O  O239  1  0.28197029  0.26917938  0.92936301  1
  O  O240  1  0.22080716  0.77013581  0.39093393  1
  O  O241  1  0.22066288  0.74573450  0.90491443  1
  O  O242  1  0.67758280  0.38788732  0.38368349  1
  O  O243  1  0.66784919  0.13344343  0.94308146  1
  O  O244  1  0.75178524  0.73932723  0.38628862  1
  O  O245  1  0.79120026  0.74804364  0.87292619  1
  O  O246  1  -0.00435445  0.10222419  0.00867336  1
  O  O247  1  0.00197971  0.10036364  0.47452481  1
  O  O248  1  0.00826388  0.59281626  0.00263490  1
  O  O249  1  -0.01859135  0.61430537  0.50775917  1
  O  O250  1  0.56194622  0.00575678  0.00528455  1
  O  O251  1  0.53629639  0.16518829  0.50755699  1
  O  O252  1  0.54511851  0.66123750  -0.01329780  1
  O  O253  1  0.44899876  0.63963582  0.54022821  1
  O  O254  1  0.52443357  0.32809248  0.57508763  1
  O  O255  1  0.50059632  0.35614720  1.02680310  1
  O  O256  1  0.50272141  0.79462516  0.48006560  1
  O  O257  1  0.48562917  0.83358406  0.95534794  1
  O  O258  1  0.96490716  0.44872392  0.47709857  1
  O  O259  1  1.02723805  0.38622903  0.96603119  1
  O  O260  1  0.99496185  0.88337704  0.48903384  1
  O  O261  1  0.99758735  0.87663857  1.00201501  1
  O  O262  1  0.52620190  0.51682544  0.37873133  1
  O  O263  1  0.49929282  0.54368078  0.86316250  1
  O  O264  1  0.46573833  1.02889967  0.40124442  1
  O  O265  1  0.45243453  0.98335927  0.87214974  1
  O  O266  1  1.04114807  0.47781427  0.29012506  1
  O  O267  1  0.97695949  0.50078399  0.88498373  1
  O  O268  1  1.00044219  0.98171177  0.38273367  1
  O  O269  1  1.00742906  0.97910500  0.89675849  1
  O  O270  1  0.01343876  0.00763624  0.11627905  1
  O  O271  1  0.01899122  -0.00231912  0.58929441  1
  O  O272  1  0.05929136  0.47659341  0.09193128  1
  O  O273  1  -0.01772610  0.50921644  0.63080147  1
  O  O274  1  0.47355415  -0.03018618  0.14367831  1
  O  O275  1  0.49915925  -0.00259067  0.65148417  1
  O  O276  1  0.51095297  0.50747740  0.09524388  1
  O  O277  1  0.55907470  0.47233529  0.66878333  1
  O  O278  1  0.25746591  0.34184405  0.28375124  1
  O  O279  1  0.34583307  0.42210598  0.73517504  1
  O  O280  1  0.25787051  0.87499307  0.22778079  1
  O  O281  1  0.21923887  0.86042394  0.75104490  1
  O  O282  1  0.76117237  0.36813791  0.22271576  1
  O  O283  1  0.74200267  0.40795177  0.77308809  1
  O  O284  1  0.72531963  0.87177905  0.24609200  1
  O  O285  1  0.80149366  0.90499316  0.76299380  1
  O  O286  1  0.29244587  0.11613525  0.17427853  1
  O  O287  1  0.22218220  0.10569840  0.71032597  1
  O  O288  1  0.25473698  0.63218416  0.30139349  1
  O  O289  1  0.24209198  0.64511360  0.74163408  1
  O  O290  1  0.70543492  0.32161027  0.38799729  1
  O  O291  1  0.81603561  0.05629017  0.69373554  1
  O  O292  1  0.76718112  0.63694979  0.26537779  1
  O  O293  1  0.76377420  0.62848534  0.77524188  1
  O  O294  1  0.33937770  0.09528115  0.38008874  1
  O  O295  1  0.34603533  0.06932932  0.80801358  1
  O  O296  1  0.39289883  0.59981091  0.37665062  1
  O  O297  1  0.25649290  0.56742371  0.84368067  1
  O  O298  1  0.83030528  0.12998643  0.39833168  1
  O  O299  1  0.84243974  0.14119248  0.82888114  1
  O  O300  1  0.87291647  0.63359343  0.35797035  1
  O  O301  1  0.87798773  0.62557540  0.87494683  1
  O  O302  1  0.09687578  0.41680600  0.10840015  1
  O  O303  1  0.10471466  0.36330903  0.57332588  1
  O  O304  1  0.10176187  0.88528602  0.13340060  1
  O  O305  1  0.09771157  0.84700136  0.64709717  1
  O  O306  1  0.63911617  0.41712973  0.10793955  1
  O  O307  1  0.70197306  0.36750840  0.62318112  1
  O  O308  1  0.64642704  0.87658018  0.10032005  1
  O  O309  1  0.50584746  0.84745986  0.52593096  1
  O  O310  1  0.13799712  0.21932734  0.25239085  1
  O  O311  1  0.10773079  0.21380098  0.79721370  1
  O  O312  1  0.12924135  0.75350904  0.27209956  1
  O  O313  1  0.11493553  0.75630115  0.77462580  1
  O  O314  1  0.60889273  0.25259488  0.23776374  1
  O  O315  1  0.59413002  0.22446257  0.78329332  1
  O  O316  1  0.63547048  0.74571975  0.21079688  1
  O  O317  1  0.67671515  0.78553890  0.76961004  1
  O  O318  1  0.40397842  0.25647718  0.24811633  1
  O  O319  1  0.40359578  0.26865834  0.82393659  1
  O  O320  1  0.36060665  0.76117969  0.27732291  1
  O  O321  1  0.36311389  0.73962553  0.66963152  1
  O  O322  1  0.85363677  0.23054645  0.17881186  1
  O  O323  1  0.94922630  0.19631550  0.72391696  1
  O  O324  1  0.87766095  0.76067802  0.24351977  1
  O  O325  1  0.86891925  0.73206428  0.73026603  1
  O  O326  1  0.39467746  0.47833297  0.48414493  1
  O  O327  1  0.37238084  0.49404048  0.98332100  1
  O  O328  1  0.36620469  0.97381223  0.47603751  1
  O  O329  1  0.34818018  1.04082030  0.97704768  1
  O  O330  1  0.80949786  0.44117686  0.49844371  1
  O  O331  1  0.87066552  0.51887012  0.99654636  1
  O  O332  1  0.88303927  0.98783170  0.51479968  1
  O  O333  1  0.89669451  0.98032504  1.01169337  1
  O  O334  1  0.10667055  -0.00964782  0.01235847  1
  O  O335  1  0.14244062  0.03038062  0.48534812  1
  O  O336  1  0.13128961  0.50787413  -0.04814892  1
  O  O337  1  0.03203592  0.46710096  0.47125168  1
  O  O338  1  0.61293520  -0.02046822  -0.03640829  1
  O  O339  1  0.60754903  -0.01449138  0.52977043  1
  O  O340  1  0.62870632  0.52992398  -0.00483920  1
  O  O341  1  0.62463272  0.55530918  0.55169996  1
  O  O342  1  0.37671259  0.41474274  0.15879160  1
  O  O343  1  0.39237668  0.42258126  0.68024475  1
  O  O344  1  0.31000032  0.89824285  0.18424252  1
  O  O345  1  0.40981781  0.77561146  0.62989885  1
  O  O346  1  0.79622069  0.38776901  0.06247476  1
  O  O347  1  0.85555591  0.36212646  0.67210315  1
  O  O348  1  0.89472662  0.86403719  0.12010168  1
  O  O349  1  0.87060120  0.84552559  0.62113905  1
  O  O350  1  0.11101571  0.12167405  0.36707497  1
  O  O351  1  0.12774830  0.11357097  0.88013572  1
  O  O352  1  0.11680788  0.63148592  0.37544558  1
  O  O353  1  0.10975779  0.63672776  0.86936567  1
  O  O354  1  0.65864526  0.11709160  0.41463717  1
  O  O355  1  0.66953163  0.07721370  0.79852734  1
  O  O356  1  0.65548753  0.60348706  0.36955436  1
  O  O357  1  0.66304864  0.64534881  0.88566901  1
