# generated using pymatgen
data_V51Zn51O256
_symmetry_space_group_name_H-M   'P 1'
_cell_length_a   17.67124550
_cell_length_b   17.39082196
_cell_length_c   17.69027601
_cell_angle_alpha   89.79665546
_cell_angle_beta   88.42906265
_cell_angle_gamma   90.17944816
_symmetry_Int_Tables_number   1
_chemical_formula_structural   V51Zn51O256
_chemical_formula_sum   'V51 Zn51 O256'
_cell_volume   5434.42521377
_cell_formula_units_Z   1
loop_
 _symmetry_equiv_pos_site_id
 _symmetry_equiv_pos_as_xyz
  1  'x, y, z'
loop_
 _atom_site_type_symbol
 _atom_site_label
 _atom_site_symmetry_multiplicity
 _atom_site_fract_x
 _atom_site_fract_y
 _atom_site_fract_z
 _atom_site_occupancy
  V  V0  1  0.08964379  0.67701618  0.06821468  1
  V  V1  1  0.48974194  0.07359630  0.50783055  1
  V  V2  1  0.63810732  0.72402980  0.88439303  1
  V  V3  1  0.47079914  0.73198039  0.30321346  1
  V  V4  1  0.44280496  0.46287403  0.47158084  1
  V  V5  1  0.77143051  0.39287168  0.60070448  1
  V  V6  1  0.00707649  0.34951732  0.87680761  1
  V  V7  1  -0.05560174  0.46250019  0.43368030  1
  V  V8  1  0.61471799  0.01594045  0.63353442  1
  V  V9  1  0.65120877  0.66554290  0.48781463  1
  V  V10  1  0.22269400  0.25834707  0.02330862  1
  V  V11  1  0.53301722  0.18481639  0.63680229  1
  V  V12  1  0.52721425  0.28764017  0.77257842  1
  V  V13  1  0.60304275  0.53692096  0.15786592  1
  V  V14  1  0.64224768  0.52209059  0.59389350  1
  V  V15  1  0.11098940  0.35782724  0.66144453  1
  V  V16  1  0.74914148  0.26599722  0.49458298  1
  V  V17  1  0.76996998  0.64002217  0.36092848  1
  V  V18  1  0.02336166  0.65624789  0.58292300  1
  V  V19  1  0.58194688  0.39617558  0.26625815  1
  V  V20  1  0.77245175  0.75211565  -0.01991817  1
  V  V21  1  0.90848921  0.61625353  0.69942318  1
  V  V22  1  0.12317383  0.86990594  0.79375119  1
  V  V23  1  0.24222692  0.89558894  0.14476001  1
  V  V24  1  0.05712749  0.70634471  0.75070751  1
  V  V25  1  0.27887471  0.29928619  0.58515419  1
  V  V26  1  0.09440837  0.23209358  0.35493441  1
  V  V27  1  0.13400346  0.90965832  0.27019495  1
  V  V28  1  0.51458495  0.88712139  0.37517794  1
  V  V29  1  0.09615163  -0.02261989  0.63189915  1
  V  V30  1  0.05294096  0.03886771  -0.08896480  1
  V  V31  1  0.23455791  0.43719792  0.25655655  1
  V  V32  1  0.21336403  0.59034539  -0.03571528  1
  V  V33  1  0.24832246  0.92311545  0.66828379  1
  V  V34  1  0.86286141  0.01454228  0.36348591  1
  V  V35  1  0.34231682  0.65307702  0.82786643  1
  V  V36  1  0.13058190  0.52941575  0.57859959  1
  V  V37  1  0.76027442  0.51858786  0.72171389  1
  V  V38  1  -0.01899369  0.11308370  0.08834698  1
  V  V39  1  0.30000703  0.75917104  0.04243661  1
  V  V40  1  0.24836110  0.79358811  0.50906554  1
  V  V41  1  0.74666031  0.87119418  0.13073566  1
  V  V42  1  0.32207818  0.17735561  0.77284579  1
  V  V43  1  0.76567922  0.50471867  0.25457771  1
  V  V44  1  0.60333769  0.27240184  0.38133147  1
  V  V45  1  0.51465339  0.64815410  0.61735856  1
  V  V46  1  0.81957719  0.57305205  0.89897679  1
  V  V47  1  -0.02173813  0.84916109  0.35543422  1
  V  V48  1  0.85652463  0.24732540  0.15704751  1
  V  V49  1  0.75035533  0.04901581  0.73296496  1
  V  V50  1  0.25945096  0.47108369  0.67960887  1
  Zn  Zn51  1  0.56023053  0.08231993  0.34154184  1
  Zn  Zn52  1  0.08795480  0.86696588  0.47462335  1
  Zn  Zn53  1  1.01689079  0.60296499  0.92333653  1
  Zn  Zn54  1  0.12916007  0.86249904  0.98480648  1
  Zn  Zn55  1  0.69497402  0.23407013  0.69460324  1
  Zn  Zn56  1  0.02108828  0.29818319  0.52493781  1
  Zn  Zn57  1  0.57854805  0.82387243  0.55021255  1
  Zn  Zn58  1  0.72172052  0.38530756  0.15194053  1
  Zn  Zn59  1  0.79324412  0.32480427  0.31811548  1
  Zn  Zn60  1  0.94029825  1.02312335  0.75519424  1
  Zn  Zn61  1  0.38584462  0.76890002  0.17817203  1
  Zn  Zn62  1  0.42587233  0.45411444  0.17581075  1
  Zn  Zn63  1  0.29321929  0.44218870  0.07031020  1
  Zn  Zn64  1  0.74945711  0.89124193  0.84019031  1
  Zn  Zn65  1  0.54737148  0.08796840  0.77435645  1
  Zn  Zn66  1  0.56796418  0.57237096  0.34910251  1
  Zn  Zn67  1  0.89924126  0.19779368  0.41086799  1
  Zn  Zn68  1  0.23399369  0.12336843  0.66125421  1
  Zn  Zn69  1  0.66757263  0.58729125  0.98930598  1
  Zn  Zn70  1  0.63056349  0.97083634  0.44757471  1
  Zn  Zn71  1  0.38691435  0.25659271  0.88428550  1
  Zn  Zn72  1  0.13979714  0.21730935  0.82559634  1
  Zn  Zn73  1  0.19460528  0.04217055  0.02320752  1
  Zn  Zn74  1  0.58118685  0.35351964  0.55183079  1
  Zn  Zn75  1  0.72893383  0.13967615  0.38761874  1
  Zn  Zn76  1  0.80712058  0.05264084  0.16238907  1
  Zn  Zn77  1  0.59106494  0.59794083  0.78840801  1
  Zn  Zn78  1  0.92770639  0.40173900  0.22049146  1
  Zn  Zn79  1  0.64567646  0.71540005  0.67378604  1
  Zn  Zn80  1  0.81674220  0.81771062  0.29471987  1
  Zn  Zn81  1  0.96283058  0.65310638  0.39841501  1
  Zn  Zn82  1  0.78676229  0.71317077  0.77870177  1
  Zn  Zn83  1  0.17745615  0.37834149  0.46960908  1
  Zn  Zn84  1  0.44218195  0.73678121  0.91278266  1
  Zn  Zn85  1  0.81938816  0.58717579  0.54337745  1
  Zn  Zn86  1  0.32532665  0.60653171  0.55915711  1
  Zn  Zn87  1  0.94207329  0.96905851  0.21223316  1
  Zn  Zn88  1  0.60051652  0.74057110  0.18052605  1
  Zn  Zn89  1  0.40524611  1.03804986  0.64998175  1
  Zn  Zn90  1  0.69123804  0.44629397  0.42218471  1
  Zn  Zn91  1  0.03758368  0.82076626  0.15909017  1
  Zn  Zn92  1  0.78843025  0.07413697  0.54652647  1
  Zn  Zn93  1  0.26379549  0.60215616  0.14329293  1
  Zn  Zn94  1  0.43276963  0.38682158  0.64584262  1
  Zn  Zn95  1  0.02062174  0.30835844  0.07257512  1
  Zn  Zn96  1  0.82516250  0.39221722  0.80688784  1
  Zn  Zn97  1  0.14709475  0.49022173  0.83551732  1
  Zn  Zn98  1  0.95522415  0.45768522  0.63319509  1
  Zn  Zn99  1  0.07459861  0.53007415  0.31551750  1
  Zn  Zn100  1  0.32704122  0.85700955  0.33031781  1
  Zn  Zn101  1  0.27294764  0.82932233  0.85112366  1
  O  O102  1  0.00594736  0.09191385  -0.00665325  1
  O  O103  1  0.09035134  0.12969125  0.62401594  1
  O  O104  1  0.17560184  0.61338378  0.06989453  1
  O  O105  1  0.12485000  0.63215397  0.57064547  1
  O  O106  1  0.56145759  0.13285451  0.03340313  1
  O  O107  1  0.62554320  0.15887106  0.63189927  1
  O  O108  1  0.61959744  0.63336472  0.17142020  1
  O  O109  1  0.66995247  0.63206158  0.59749871  1
  O  O110  1  0.40671523  0.39976824  0.41104351  1
  O  O111  1  0.35290519  0.43396350  0.87364682  1
  O  O112  1  0.42647605  0.91563813  0.34985902  1
  O  O113  1  0.32517973  0.91605802  0.90724389  1
  O  O114  1  0.88019865  0.39847849  0.37552471  1
  O  O115  1  0.91861935  0.36172967  0.84000494  1
  O  O116  1  0.88221387  0.88959231  0.34652836  1
  O  O117  1  0.86207129  0.86010392  0.88404059  1
  O  O118  1  0.25131029  0.04270431  0.39263750  1
  O  O119  1  0.29192328  -0.01578589  0.89471349  1
  O  O120  1  0.23550245  0.43980220  0.35606274  1
  O  O121  1  0.23397172  0.48729325  0.77322760  1
  O  O122  1  0.72920463  0.01060558  0.41139811  1
  O  O123  1  0.74331620  -0.00463771  0.81787048  1
  O  O124  1  0.75241932  0.51476453  0.35986989  1
  O  O125  1  0.78674399  0.50663461  0.82564464  1
  O  O126  1  0.21377272  0.43111720  0.15476701  1
  O  O127  1  0.23973972  0.54663645  0.61184127  1
  O  O128  1  0.23949744  0.98673031  0.11091199  1
  O  O129  1  0.19707867  1.01678901  0.64866534  1
  O  O130  1  0.71999999  0.50364895  0.16388213  1
  O  O131  1  0.76121350  0.50922008  0.61080377  1
  O  O132  1  0.73998005  0.97006814  0.13750884  1
  O  O133  1  0.72165888  1.02995378  0.62580027  1
  O  O134  1  -0.04985889  0.40791994  0.33483623  1
  O  O135  1  0.01430573  0.37047476  0.66579621  1
  O  O136  1  0.00770775  0.88975484  0.24373047  1
  O  O137  1  0.04413378  0.81061118  0.78031515  1
  O  O138  1  0.48674005  0.39888665  0.25603412  1
  O  O139  1  0.48523777  0.36959105  0.74118641  1
  O  O140  1  0.58513062  0.84261372  0.30355813  1
  O  O141  1  0.52794832  0.88809687  0.78717845  1
  O  O142  1  0.44842040  0.21130599  0.20883644  1
  O  O143  1  0.50134050  0.18571050  0.73918092  1
  O  O144  1  0.48141044  0.63768301  0.31784058  1
  O  O145  1  0.52641031  0.63902569  0.71701035  1
  O  O146  1  1.05857874  0.10875028  0.13465541  1
  O  O147  1  1.04825317  0.16212484  0.67129829  1
  O  O148  1  1.01925455  0.54269764  0.21520689  1
  O  O149  1  1.01135748  0.61637255  0.70078054  1
  O  O150  1  0.31377380  0.25176805  -0.02671298  1
  O  O151  1  0.34609741  0.15610792  0.37234462  1
  O  O152  1  0.38903795  0.77682729  0.00348878  1
  O  O153  1  0.41513140  0.82385664  0.62531456  1
  O  O154  1  0.79754806  0.31232902  0.11390631  1
  O  O155  1  0.84646015  0.26881574  0.47631232  1
  O  O156  1  0.86856625  0.79882066  -0.07565705  1
  O  O157  1  0.84917995  0.78978448  0.53482477  1
  O  O158  1  0.07984678  0.22006170  0.46018577  1
  O  O159  1  0.12915818  0.27795285  1.05693738  1
  O  O160  1  0.15282671  0.78447529  0.49984143  1
  O  O161  1  0.26036633  0.69520516  0.98396208  1
  O  O162  1  0.63721654  0.28468584  0.48503239  1
  O  O163  1  0.68778779  0.28806536  0.96408327  1
  O  O164  1  0.65911386  0.76285776  0.49461245  1
  O  O165  1  0.67698227  0.70431326  0.98585830  1
  O  O166  1  0.54937477  0.19921692  0.01352122  1
  O  O167  1  0.53866298  0.28210419  0.63387807  1
  O  O168  1  0.48993714  0.75057449  0.19910018  1
  O  O169  1  0.55157528  0.75099396  0.62656222  1
  O  O170  1  0.94400615  0.21617388  0.10156546  1
  O  O171  1  0.95292457  0.22278293  0.57901582  1
  O  O172  1  1.05835262  0.71367599  0.15466424  1
  O  O173  1  1.03054109  0.73808901  0.63629591  1
  O  O174  1  -0.01014924  0.23919261  0.37053909  1
  O  O175  1  0.04230259  0.25974619  0.85387706  1
  O  O176  1  -0.02974069  0.75367798  0.33916638  1
  O  O177  1  0.04262081  0.66456194  0.83767101  1
  O  O178  1  0.51422386  0.25868720  0.40139929  1
  O  O179  1  0.49403013  0.27495228  0.86549632  1
  O  O180  1  0.48391017  0.78525283  0.38911455  1
  O  O181  1  0.54963122  0.76133747  0.89334821  1
  O  O182  1  0.23027418  0.05679285  0.45783073  1
  O  O183  1  0.20672539  0.15535666  1.02576833  1
  O  O184  1  0.28810306  0.70659578  0.52582385  1
  O  O185  1  0.26290321  0.51236043  0.98966595  1
  O  O186  1  0.73806730  0.16449998  0.50534095  1
  O  O187  1  0.75541799  0.09068773  1.03230143  1
  O  O188  1  0.75799000  0.64010588  0.47241458  1
  O  O189  1  0.77132646  0.54381264  0.97777380  1
  O  O190  1  0.23796135  0.36000400  0.02041413  1
  O  O191  1  0.27144389  0.33277866  0.49272088  1
  O  O192  1  0.23119991  0.83983907  0.05086405  1
  O  O193  1  0.25903633  0.86243938  0.59120399  1
  O  O194  1  0.70307888  0.32960597  -0.09354869  1
  O  O195  1  0.75151703  0.38614334  0.49993682  1
  O  O196  1  0.76631352  0.84162491  0.03386742  1
  O  O197  1  0.81842966  0.84437748  0.50502373  1
  O  O198  1  0.13397439  0.44857528  0.27379264  1
  O  O199  1  0.13295198  0.46666783  0.66317599  1
  O  O200  1  0.12589733  1.00171607  0.27019523  1
  O  O201  1  0.09424145  0.95481696  0.82566071  1
  O  O202  1  0.60983661  0.50269547  0.27058591  1
  O  O203  1  0.66366600  0.53079665  0.73001627  1
  O  O204  1  0.53638175  1.08241794  0.20737884  1
  O  O205  1  0.63271787  1.02799877  0.73415686  1
  O  O206  1  0.32794686  0.04867207  0.24521791  1
  O  O207  1  0.44555192  0.01363195  0.89364874  1
  O  O208  1  0.33322669  0.44777457  0.25164015  1
  O  O209  1  0.35426449  0.46277219  0.67475485  1
  O  O210  1  0.85090263  0.01113882  0.26342714  1
  O  O211  1  0.84509970  0.03178845  0.71043334  1
  O  O212  1  0.85993814  0.48756888  0.23083528  1
  O  O213  1  0.89253691  0.51520172  0.71095544  1
  O  O214  1  0.11700344  0.32882530  0.39189653  1
  O  O215  1  0.06719149  0.42117777  0.84308339  1
  O  O216  1  0.09212964  0.86942543  0.35592084  1
  O  O217  1  0.16429397  0.83262412  0.87901556  1
  O  O218  1  0.61219788  0.38558394  0.37411103  1
  O  O219  1  0.54692805  0.37116130  0.97283746  1
  O  O220  1  0.57563354  0.97342249  0.34906488  1
  O  O221  1  0.70780253  0.80489965  0.89246770  1
  O  O222  1  0.39092643  0.10138689  0.10632762  1
  O  O223  1  0.34776368  0.12376371  0.68938454  1
  O  O224  1  0.34367742  0.52686707  0.12055489  1
  O  O225  1  0.42244642  0.64903329  0.60123764  1
  O  O226  1  0.80904312  0.16448294  0.17659821  1
  O  O227  1  0.89349191  0.10575535  0.57862740  1
  O  O228  1  1.01696046  0.62734038  0.02880651  1
  O  O229  1  0.90453493  0.63823273  0.60129775  1
  O  O230  1  0.26417960  0.24394801  0.10985730  1
  O  O231  1  0.23964410  0.20811384  0.59389027  1
  O  O232  1  0.30782416  0.70396011  0.12839306  1
  O  O233  1  0.39162883  0.79041834  0.68217020  1
  O  O234  1  0.65782540  0.22911326  0.10990596  1
  O  O235  1  0.74449343  0.28860555  0.60758787  1
  O  O236  1  0.82313735  0.69750002  0.03294426  1
  O  O237  1  0.73437103  0.78769950  0.63794162  1
  O  O238  1  0.18939275  0.21130308  0.34984788  1
  O  O239  1  0.18814248  0.25297479  0.92450855  1
  O  O240  1  0.28376336  0.83865255  0.42989440  1
  O  O241  1  0.35014081  0.75696458  0.84081522  1
  O  O242  1  0.73619016  0.26308028  0.38636322  1
  O  O243  1  0.76476640  0.30706743  0.86442265  1
  O  O244  1  0.76417805  0.73893030  0.34453916  1
  O  O245  1  0.79198932  0.67106508  0.88532802  1
  O  O246  1  -0.02591602  0.03144734  -0.14599820  1
  O  O247  1  -0.06593126  0.15964077  0.53780033  1
  O  O248  1  0.11036591  0.75096663  0.00903235  1
  O  O249  1  0.00306315  0.68326104  0.49314463  1
  O  O250  1  0.41702402  0.11321045  0.04200773  1
  O  O251  1  0.47911806  0.16437794  0.55379566  1
  O  O252  1  0.46554360  0.50864469  -0.00927847  1
  O  O253  1  0.55421144  0.65205574  0.51434021  1
  O  O254  1  0.33383647  0.18454690  0.43449388  1
  O  O255  1  0.53147351  0.35642534  1.03890812  1
  O  O256  1  0.54939562  0.89232038  0.47122703  1
  O  O257  1  0.55343202  0.96607886  1.01305693  1
  O  O258  1  0.99132888  0.39925072  0.48993709  1
  O  O259  1  1.00240033  0.34953566  0.97563860  1
  O  O260  1  0.98100082  0.85935815  0.45085636  1
  O  O261  1  1.02293050  0.85970177  1.05246057  1
  O  O262  1  0.51299971  0.51192346  0.42270202  1
  O  O263  1  0.38955562  0.39194315  0.91562812  1
  O  O264  1  0.47599080  1.08637041  0.41454934  1
  O  O265  1  0.51057752  1.04129682  0.88216483  1
  O  O266  1  1.00465959  0.54076177  0.39473893  1
  O  O267  1  0.91390844  0.49636012  1.06557526  1
  O  O268  1  0.95219245  1.02040431  0.38304457  1
  O  O269  1  0.95820927  0.93331669  0.96896006  1
  O  O270  1  -0.07940008  0.03960024  0.12900706  1
  O  O271  1  0.01334541  0.00478094  0.67425001  1
  O  O272  1  0.05344707  0.54176982  0.15164982  1
  O  O273  1  0.02646749  0.53352784  0.58108623  1
  O  O274  1  0.48570928  -0.04057559  0.02924128  1
  O  O275  1  0.51497370  0.05696196  0.66342859  1
  O  O276  1  0.50540885  0.52638805  0.16430478  1
  O  O277  1  0.54728666  0.54118082  0.61366949  1
  O  O278  1  0.24199231  0.33871716  0.25007849  1
  O  O279  1  0.23592337  0.37239647  0.64904018  1
  O  O280  1  0.23964299  0.89500382  0.26075409  1
  O  O281  1  0.23103662  0.87473261  0.75694224  1
  O  O282  1  0.73742545  0.39915384  0.26518118  1
  O  O283  1  0.76931001  0.41064842  0.71337371  1
  O  O284  1  0.81896743  0.84325545  0.18958439  1
  O  O285  1  0.79078862  0.82766505  0.74762520  1
  O  O286  1  0.28544326  0.10879436  0.24138549  1
  O  O287  1  0.22182114  0.16157476  0.77210185  1
  O  O288  1  0.23765374  0.54128084  0.23600336  1
  O  O289  1  0.34136223  0.63024911  0.73846026  1
  O  O290  1  0.53778010  0.02856539  0.16183770  1
  O  O291  1  0.74188650  0.14599602  0.74639641  1
  O  O292  1  0.75638506  0.61059550  0.26217240  1
  O  O293  1  0.79016088  0.61644308  0.71140170  1
  O  O294  1  0.39938181  0.05822174  0.25150817  1
  O  O295  1  0.36384424  0.14447706  0.85303207  1
  O  O296  1  0.36931220  0.52206601  0.50335197  1
  O  O297  1  0.42676813  0.63026449  0.87148305  1
  O  O298  1  0.83742469  0.11792938  0.37404879  1
  O  O299  1  0.78952667  0.15038909  1.00072837  1
  O  O300  1  0.86533305  0.62561621  0.36419304  1
  O  O301  1  0.91417987  0.56274358  0.90894492  1
  O  O302  1  0.00575606  0.37215440  0.15547775  1
  O  O303  1  0.12133278  0.32482434  0.56555094  1
  O  O304  1  0.14056290  0.87143778  0.16951885  1
  O  O305  1  0.12481119  0.89369873  0.67755420  1
  O  O306  1  0.61212894  0.39897672  0.16750102  1
  O  O307  1  0.64997442  0.42005553  0.61255514  1
  O  O308  1  0.66347674  0.82602101  0.15491915  1
  O  O309  1  0.60497715  0.92158613  0.62121367  1
  O  O310  1  0.08040163  0.26686630  0.26669933  1
  O  O311  1  0.13156194  0.29169697  0.72802779  1
  O  O312  1  0.15438780  0.68038989  0.28560461  1
  O  O313  1  0.14843423  0.70364027  0.73529093  1
  O  O314  1  0.60279073  0.29159123  0.27723425  1
  O  O315  1  0.62488216  0.28608707  0.76711165  1
  O  O316  1  0.58517732  0.76317136  0.29744379  1
  O  O317  1  0.66571892  0.71346118  0.78224810  1
  O  O318  1  0.47216985  0.24012931  0.14954095  1
  O  O319  1  0.34033456  0.27388317  0.78002032  1
  O  O320  1  0.37237846  0.75986655  0.29122021  1
  O  O321  1  0.45973075  0.90013871  0.79777522  1
  O  O322  1  0.63856362  0.16702962  0.13698853  1
  O  O323  1  0.79271976  0.15456318  0.92846666  1
  O  O324  1  0.89837281  0.62774807  0.16464823  1
  O  O325  1  0.89860244  0.69325680  0.76045541  1
  O  O326  1  0.48569967  0.40851459  0.54797557  1
  O  O327  1  0.44852049  0.57130314  1.01682037  1
  O  O328  1  0.41893711  1.01587196  0.54104977  1
  O  O329  1  0.29172853  1.03128636  0.95364705  1
  O  O330  1  0.88271978  0.51236862  0.48834205  1
  O  O331  1  0.88678206  0.43978174  1.03595348  1
  O  O332  1  0.79784021  0.99510980  0.45651920  1
  O  O333  1  0.95725636  0.90543672  1.03531360  1
  O  O334  1  0.11791179  -0.02038763  -0.02567095  1
  O  O335  1  0.08902331  -0.04216821  0.53877126  1
  O  O336  1  0.12793423  0.55542620  -0.07365324  1
  O  O337  1  0.15231329  0.48357058  0.49532156  1
  O  O338  1  0.65186705  0.11027851  -0.07875220  1
  O  O339  1  0.58750300  0.04272294  0.52725347  1
  O  O340  1  0.61556270  0.52487429  0.05955119  1
  O  O341  1  0.64977285  0.52180776  0.49787875  1
  O  O342  1  0.37853353  0.38632754  0.10402791  1
  O  O343  1  0.37030034  0.29935491  0.61037919  1
  O  O344  1  0.33461922  0.86177499  0.14618851  1
  O  O345  1  0.33582626  0.95686857  0.68335672  1
  O  O346  1  0.87529072  0.29357984  0.24321021  1
  O  O347  1  0.86607478  0.39391878  0.59786216  1
  O  O348  1  0.89192144  0.69637147  0.17632999  1
  O  O349  1  0.75303050  0.84737490  0.67853766  1
  O  O350  1  0.08278752  0.13542082  0.34106573  1
  O  O351  1  0.10758172  0.10737651  0.87407538  1
  O  O352  1  0.12669451  0.63581759  0.33614369  1
  O  O353  1  0.25777619  0.61083068  0.87377447  1
  O  O354  1  0.62848776  0.16253835  0.36009824  1
  O  O355  1  0.61808387  0.15167661  0.87647976  1
  O  O356  1  0.64792030  0.64036957  0.38874252  1
  O  O357  1  0.62022961  0.61794630  0.88980742  1
