# generated using pymatgen
data_V51Zn51O256
_symmetry_space_group_name_H-M   'P 1'
_cell_length_a   17.52445693
_cell_length_b   18.16522605
_cell_length_c   17.93687584
_cell_angle_alpha   88.62699787
_cell_angle_beta   91.26337582
_cell_angle_gamma   90.18912050
_symmetry_Int_Tables_number   1
_chemical_formula_structural   V51Zn51O256
_chemical_formula_sum   'V51 Zn51 O256'
_cell_volume   5706.89933011
_cell_formula_units_Z   1
loop_
 _symmetry_equiv_pos_site_id
 _symmetry_equiv_pos_as_xyz
  1  'x, y, z'
loop_
 _atom_site_type_symbol
 _atom_site_label
 _atom_site_symmetry_multiplicity
 _atom_site_fract_x
 _atom_site_fract_y
 _atom_site_fract_z
 _atom_site_occupancy
  V  V0  1  -0.08876114  0.26442765  0.27943883  1
  V  V1  1  0.49739523  0.92258597  0.86817968  1
  V  V2  1  0.44267535  0.20913475  0.77835103  1
  V  V3  1  0.38287518  0.92261282  0.00745407  1
  V  V4  1  0.21731503  0.38784465  0.66009763  1
  V  V5  1  0.01568705  0.27046321  0.78599745  1
  V  V6  1  0.87706807  0.88646423  0.02298998  1
  V  V7  1  0.25218339  0.07361974  0.87353452  1
  V  V8  1  0.29185757  0.27116979  0.00212883  1
  V  V9  1  0.34654813  0.78207841  -0.07554727  1
  V  V10  1  0.64633169  0.04273266  0.15014339  1
  V  V11  1  0.44817900  0.43369349  0.86036975  1
  V  V12  1  0.47242852  0.12384229  0.61456292  1
  V  V13  1  0.58980888  0.73786861  0.76805228  1
  V  V14  1  0.74580731  0.62225282  0.36425667  1
  V  V15  1  0.53781614  0.64546137  0.08424756  1
  V  V16  1  -0.06049899  0.46536506  0.51910111  1
  V  V17  1  0.14054894  0.85947761  0.26236270  1
  V  V18  1  0.00033692  0.64962592  0.23893433  1
  V  V19  1  0.57829525  0.34770646  0.72557250  1
  V  V20  1  0.13329544  0.00437452  0.08439418  1
  V  V21  1  0.87456469  0.70868754  0.11006840  1
  V  V22  1  -0.02061541  0.03265760  -0.01345884  1
  V  V23  1  0.69931803  0.88696781  0.75629009  1
  V  V24  1  0.62033309  0.09791535  0.48673194  1
  V  V25  1  0.90756865  0.06301908  0.26484641  1
  V  V26  1  0.77047164  0.20535488  0.50154323  1
  V  V27  1  0.79761489  0.87569714  0.62652448  1
  V  V28  1  0.53160809  0.72201738  0.24592502  1
  V  V29  1  0.39348238  0.85970332  0.48634892  1
  V  V30  1  0.49407858  0.14439431  0.11127524  1
  V  V31  1  0.76568579  0.72114921  0.52732900  1
  V  V32  1  0.40367823  0.06643786  0.22299434  1
  V  V33  1  0.01474846  0.06000824  0.54716286  1
  V  V34  1  0.55228655  0.39290904  0.34320941  1
  V  V35  1  0.84642858  0.37649215  -0.05182729  1
  V  V36  1  0.52354434  0.86875952  0.34470775  1
  V  V37  1  0.32063275  0.08332693  0.69025788  1
  V  V38  1  0.36673801  0.62572873  0.23793205  1
  V  V39  1  0.53228549  -0.03781124  0.56240207  1
  V  V40  1  0.02510121  0.85397061  0.94448851  1
  V  V41  1  0.33311350  0.77239514  0.63753511  1
  V  V42  1  -0.02169373  0.16678522  0.12618286  1
  V  V43  1  0.84897939  0.85562498  0.44652649  1
  V  V44  1  0.74323167  0.32031885  0.60513929  1
  V  V45  1  0.28846685  0.54321826  0.44129577  1
  V  V46  1  0.36849809  0.63054906  0.73806401  1
  V  V47  1  0.07641428  0.71822575  0.55548482  1
  V  V48  1  0.63381610  0.74887773  0.41111252  1
  V  V49  1  0.17152413  0.40943427  0.21674690  1
  V  V50  1  0.52975613  0.55950029  0.51490896  1
  Zn  Zn51  1  0.83614954  0.02136376  0.10810301  1
  Zn  Zn52  1  0.53333846  0.76128262  -0.06802571  1
  Zn  Zn53  1  0.49015431  0.91416935  0.17025024  1
  Zn  Zn54  1  0.69573903  0.68021981  0.18056496  1
  Zn  Zn55  1  0.29689372  0.09942345  0.06485026  1
  Zn  Zn56  1  0.19527576  0.69364873  0.24687829  1
  Zn  Zn57  1  0.09080510  0.02070242  0.25689037  1
  Zn  Zn58  1  0.65638025  0.32208566  0.89671630  1
  Zn  Zn59  1  0.05635100  0.08176568  0.82200522  1
  Zn  Zn60  1  0.11489552  0.49173202  0.36580543  1
  Zn  Zn61  1  0.36452156  0.44515404  0.30885868  1
  Zn  Zn62  1  0.92805045  0.34922000  0.12358312  1
  Zn  Zn63  1  0.75766636  0.72808700  0.71820322  1
  Zn  Zn64  1  0.81365012  0.02656144  0.51116437  1
  Zn  Zn65  1  0.24809429  0.62179535  0.59735316  1
  Zn  Zn66  1  0.18983341  0.83416885  0.45344994  1
  Zn  Zn67  1  0.61243334  0.78229183  0.60360313  1
  Zn  Zn68  1  0.40931506  -0.07661213  0.68924961  1
  Zn  Zn69  1  0.68617455  0.91207833  0.47168160  1
  Zn  Zn70  1  0.03371995  0.31898044  0.59160692  1
  Zn  Zn71  1  0.58614408  0.42277536  0.54375437  1
  Zn  Zn72  1  0.68363194  0.86723674  0.94328184  1
  Zn  Zn73  1  0.40856227  0.14496533  0.94427552  1
  Zn  Zn74  1  0.88971744  0.51932516  0.07685530  1
  Zn  Zn75  1  0.49917463  0.28640233  -0.00809401  1
  Zn  Zn76  1  0.16933546  0.22731680  0.14100722  1
  Zn  Zn77  1  0.04536445  0.42453141  0.90111176  1
  Zn  Zn78  1  0.57967265  0.57058543  0.35374002  1
  Zn  Zn79  1  0.94717561  0.17333099  0.42530335  1
  Zn  Zn80  1  0.29990428  0.32878332  0.83384357  1
  Zn  Zn81  1  0.73861839  0.51834539  0.50471773  1
  Zn  Zn82  1  0.88182433  0.74108602  0.31125432  1
  Zn  Zn83  1  0.57183825  0.02896075  0.73496899  1
  Zn  Zn84  1  0.06896644  0.45869088  0.06655339  1
  Zn  Zn85  1  0.57498535  0.06112680  0.29856587  1
  Zn  Zn86  1  0.43480879  0.61964729  -0.08334180  1
  Zn  Zn87  1  0.16107524  0.20033440  0.65746515  1
  Zn  Zn88  1  0.81082360  0.31524769  0.77806852  1
  Zn  Zn89  1  -0.01418337  0.45143813  0.23526069  1
  Zn  Zn90  1  0.84866331  0.85094998  0.83556834  1
  Zn  Zn91  1  0.51138491  0.52890222  0.21810017  1
  Zn  Zn92  1  0.71948737  0.29720523  0.32925556  1
  Zn  Zn93  1  0.94237415  0.64414526  0.42486476  1
  Zn  Zn94  1  0.20461445  0.90595495  0.95981818  1
  Zn  Zn95  1  0.40013592  0.67095561  0.49663710  1
  Zn  Zn96  1  0.62656734  0.19403020  0.63231611  1
  Zn  Zn97  1  0.03196468  0.88629837  0.53340814  1
  Zn  Zn98  1  0.19605693  0.38235766  0.96308806  1
  Zn  Zn99  1  0.08665106  0.83952920  0.10133106  1
  Zn  Zn100  1  0.48065051  0.48542536  0.67664789  1
  Zn  Zn101  1  0.97291955  0.92932897  0.18475869  1
  O  O102  1  0.07506926  0.16816585  0.14197968  1
  O  O103  1  0.05256607  0.09202191  0.64999751  1
  O  O104  1  0.08296293  0.59482520  0.09231965  1
  O  O105  1  0.04081646  0.73521448  0.63768883  1
  O  O106  1  0.59594020  0.12376157  0.11501174  1
  O  O107  1  0.56339754  0.12145463  0.67918559  1
  O  O108  1  0.63472076  0.64842593  0.09453235  1
  O  O109  1  0.74278226  0.52129181  0.75059875  1
  O  O110  1  0.33188266  0.46596882  0.40896900  1
  O  O111  1  0.34997980  0.41868460  0.85850884  1
  O  O112  1  0.43579129  0.87405336  0.38875987  1
  O  O113  1  0.45118186  0.89424522  0.78780109  1
  O  O114  1  0.83151483  0.41675014  0.33562539  1
  O  O115  1  0.83427617  0.39621853  0.84854156  1
  O  O116  1  0.86083467  0.83370944  0.35377789  1
  O  O117  1  0.91379372  0.86971984  0.92126718  1
  O  O118  1  0.20034255  0.19463595  0.25719325  1
  O  O119  1  0.24996034  -0.01718297  0.89788939  1
  O  O120  1  0.19223594  0.54516857  0.40941146  1
  O  O121  1  0.16056929  0.60701862  0.87567289  1
  O  O122  1  0.71221052  -0.10928253  0.25438524  1
  O  O123  1  0.78034323  0.08906851  0.89992831  1
  O  O124  1  0.73755548  0.53240282  0.38947737  1
  O  O125  1  0.61688529  0.49335863  0.96373855  1
  O  O126  1  0.25090122  0.56763530  0.06934941  1
  O  O127  1  0.18659568  0.47341414  0.68457677  1
  O  O128  1  0.20573612  1.06069588  0.11258231  1
  O  O129  1  0.07120101  0.88539120  0.75608511  1
  O  O130  1  0.81999202  0.47279809  0.15648626  1
  O  O131  1  0.69349518  0.39333873  0.56449714  1
  O  O132  1  0.72902398  1.02717506  0.10155299  1
  O  O133  1  0.79072700  0.96635874  0.60189074  1
  O  O134  1  -0.06327968  0.34907247  0.23209353  1
  O  O135  1  0.03422816  0.36589983  0.80337294  1
  O  O136  1  0.05255023  0.85145137  0.20212847  1
  O  O137  1  0.00222051  0.78733677  0.86333985  1
  O  O138  1  0.45728009  0.37910142  0.31661916  1
  O  O139  1  0.48328794  0.41967292  0.76831081  1
  O  O140  1  0.50525486  0.83747124  0.25066968  1
  O  O141  1  0.61176855  0.83502530  0.77615519  1
  O  O142  1  0.49865900  0.10621922  0.22719313  1
  O  O143  1  0.42060776  0.13359286  0.71687946  1
  O  O144  1  0.55439874  0.62745951  0.25952300  1
  O  O145  1  0.52572929  0.70863584  0.83427628  1
  O  O146  1  0.95081532  0.19000434  0.22925699  1
  O  O147  1  0.99930489  0.17338997  0.78612864  1
  O  O148  1  0.97274240  0.55985970  0.24100012  1
  O  O149  1  1.03958226  0.54386183  0.77149923  1
  O  O150  1  0.38892381  0.25223674  -0.01456722  1
  O  O151  1  0.33920779  0.24234933  0.49801736  1
  O  O152  1  0.43841316  0.82429889  -0.07660030  1
  O  O153  1  0.43294647  0.77663657  0.49213814  1
  O  O154  1  0.85624451  0.28212204  -0.05318318  1
  O  O155  1  0.85874670  0.17054139  0.49113711  1
  O  O156  1  0.89580788  0.79005474  0.05107107  1
  O  O157  1  0.84918174  0.75572158  0.48299348  1
  O  O158  1  0.09164954  0.23309856  0.58257170  1
  O  O159  1  0.09203054  0.37465418  1.00024666  1
  O  O160  1  0.10833219  0.81111810  0.51942058  1
  O  O161  1  0.19644854  0.70088452  1.00308021  1
  O  O162  1  0.60886008  0.18417674  0.51924017  1
  O  O163  1  0.60713722  0.28370439  0.97829441  1
  O  O164  1  0.65520049  0.73857757  0.51328798  1
  O  O165  1  0.65467850  0.75606268  0.95057535  1
  O  O166  1  0.49474274  0.23651040  0.09924329  1
  O  O167  1  0.47365605  0.20960690  0.58669338  1
  O  O168  1  0.50499106  0.71489656  0.14417707  1
  O  O169  1  0.56032051  0.72471666  0.67754789  1
  O  O170  1  0.95337680  0.25151796  0.09275927  1
  O  O171  1  0.98789540  0.29098245  0.69042706  1
  O  O172  1  0.99871633  0.68752911  0.12854934  1
  O  O173  1  1.06887651  0.74744168  0.83252551  1
  O  O174  1  -0.04947833  0.26496605  0.36703568  1
  O  O175  1  0.04500001  0.26017840  0.87953012  1
  O  O176  1  -0.01290297  0.68577071  0.32840279  1
  O  O177  1  0.05929907  0.79106160  1.01094945  1
  O  O178  1  0.35080664  0.30722286  0.48113136  1
  O  O179  1  0.47197414  0.17359874  0.86290697  1
  O  O180  1  0.54579158  0.75240425  0.35349653  1
  O  O181  1  0.57355723  0.87150396  0.92113016  1
  O  O182  1  0.27808286  0.10547660  0.44379973  1
  O  O183  1  0.30030960  0.11996654  0.95117231  1
  O  O184  1  0.15266811  0.65789976  0.56360708  1
  O  O185  1  0.35794204  0.69326465  0.95714354  1
  O  O186  1  0.72672895  0.09984309  0.49977068  1
  O  O187  1  0.72972302  0.11200159  0.93932308  1
  O  O188  1  0.76257941  0.63496881  0.48907944  1
  O  O189  1  0.64162397  0.48615162  1.02831434  1
  O  O190  1  0.27777123  0.35786826  0.03520591  1
  O  O191  1  0.22501706  0.39464253  0.56334333  1
  O  O192  1  0.30289501  0.85400354  -0.01321388  1
  O  O193  1  0.29685602  0.85847856  0.46704634  1
  O  O194  1  0.74493447  0.38215628  -0.05967222  1
  O  O195  1  0.80463622  0.30092691  0.53065767  1
  O  O196  1  0.78304623  0.88510657  0.00133322  1
  O  O197  1  0.75675113  0.83867267  0.53132197  1
  O  O198  1  0.09234737  0.43628093  0.28070129  1
  O  O199  1  0.15016547  0.43844468  0.88344812  1
  O  O200  1  0.17299522  0.94798489  0.25033109  1
  O  O201  1  0.04109298  1.04845475  0.70901093  1
  O  O202  1  0.57661618  0.47948883  0.29547492  1
  O  O203  1  0.70433885  0.53639087  0.80459368  1
  O  O204  1  0.66735616  1.05952560  0.24144984  1
  O  O205  1  0.66835643  0.97165238  0.73080800  1
  O  O206  1  0.40925879  -0.02636621  0.21187241  1
  O  O207  1  0.31937032  -0.01012844  0.69055153  1
  O  O208  1  0.40629394  0.53327414  0.25520800  1
  O  O209  1  0.43964235  0.57587315  0.70466777  1
  O  O210  1  0.98366025  -0.00564515  0.27273552  1
  O  O211  1  0.84636024  0.07365888  0.75603026  1
  O  O212  1  0.87164582  0.47044187  0.30926258  1
  O  O213  1  0.89041843  0.58391703  0.69203172  1
  O  O214  1  0.16431704  0.28890669  0.40585381  1
  O  O215  1  0.03085641  0.50184559  0.97198877  1
  O  O216  1  0.13452433  0.84289507  0.35663057  1
  O  O217  1  0.10400231  0.89457509  0.90857550  1
  O  O218  1  0.61503920  0.32694782  0.30996010  1
  O  O219  1  0.63032637  0.37185269  0.80298868  1
  O  O220  1  0.60807725  0.85334111  0.41496310  1
  O  O221  1  0.73655766  0.88105649  0.85069887  1
  O  O222  1  0.38439679  0.11985118  0.13626294  1
  O  O223  1  0.37476628  0.09272793  0.60044413  1
  O  O224  1  0.36131260  0.63762811  0.14642242  1
  O  O225  1  0.32094405  0.70469663  0.56877473  1
  O  O226  1  0.90997630  0.08680627  0.15817178  1
  O  O227  1  0.92115910  0.03741603  0.54469767  1
  O  O228  1  0.87667096  0.62335224  0.06953500  1
  O  O229  1  0.94208403  0.62829770  0.68420056  1
  O  O230  1  0.24726729  0.20965438  0.06808903  1
  O  O231  1  0.22859542  0.28643699  0.65537063  1
  O  O232  1  0.21433064  0.71198326  0.06842835  1
  O  O233  1  0.24823922  0.79552294  0.66366475  1
  O  O234  1  0.69365319  0.26425858  0.14908875  1
  O  O235  1  0.73149141  0.21465240  0.60085989  1
  O  O236  1  0.78127997  0.72326951  0.12693008  1
  O  O237  1  0.78232957  0.69938932  0.61917441  1
  O  O238  1  0.18680732  0.22906523  0.43032845  1
  O  O239  1  0.24120683  0.28483126  0.91502930  1
  O  O240  1  0.21241087  0.71503429  0.42088472  1
  O  O241  1  0.30032515  0.78590868  0.84455586  1
  O  O242  1  0.72934040  0.23603551  0.41996839  1
  O  O243  1  0.73778161  0.26070555  0.83762176  1
  O  O244  1  0.72020539  0.76084284  0.37560651  1
  O  O245  1  0.76729138  0.69601372  0.94034964  1
  O  O246  1  -0.02800101  0.11748466  0.03206922  1
  O  O247  1  0.02918700  0.13337847  0.48759215  1
  O  O248  1  0.04337136  0.64818296  0.06836983  1
  O  O249  1  0.00361627  0.68112725  0.50056576  1
  O  O250  1  0.47647729  0.11016964  0.02459550  1
  O  O251  1  0.52179640  0.07382946  0.53924109  1
  O  O252  1  0.51179252  0.66478134  -0.01093534  1
  O  O253  1  0.49941346  0.64442328  0.54247939  1
  O  O254  1  0.56624113  0.39859575  0.43822385  1
  O  O255  1  0.48732945  0.36737395  0.91881499  1
  O  O256  1  0.56519949  0.87548384  0.57956474  1
  O  O257  1  0.43164731  0.96797938  0.93002172  1
  O  O258  1  0.96958579  0.37143159  0.52737652  1
  O  O259  1  0.94551798  0.38763103  0.93118687  1
  O  O260  1  0.93458907  0.88396944  0.47849440  1
  O  O261  1  0.99692276  0.92473281  1.01535038  1
  O  O262  1  0.50001953  0.55322475  0.42367981  1
  O  O263  1  0.46735803  0.51899615  0.89766691  1
  O  O264  1  0.54645804  0.95762715  0.32560182  1
  O  O265  1  0.54669788  0.99777897  0.83493442  1
  O  O266  1  0.95387369  0.52954501  0.42826983  1
  O  O267  1  0.99520918  0.51894068  0.81926067  1
  O  O268  1  1.12758035  1.10723622  0.31053329  1
  O  O269  1  0.98255000  1.04532139  0.89182071  1
  O  O270  1  0.05980451  0.00405856  0.14826285  1
  O  O271  1  0.06970426  -0.01223573  0.52135003  1
  O  O272  1  -0.03004803  0.45065490  0.11889223  1
  O  O273  1  -0.02514320  0.50188782  0.59468789  1
  O  O274  1  0.58199478  -0.02888602  0.14646462  1
  O  O275  1  0.50039110  -0.01495463  0.65471537  1
  O  O276  1  0.51118200  0.55807148  0.11421202  1
  O  O277  1  0.48219304  0.48869390  0.56436314  1
  O  O278  1  0.26069275  0.42207832  0.25664533  1
  O  O279  1  0.22435204  0.35820973  0.75789327  1
  O  O280  1  0.20127809  0.79657887  0.22413112  1
  O  O281  1  0.07556646  0.88181879  0.68613882  1
  O  O282  1  0.76066806  0.40998341  0.30838581  1
  O  O283  1  0.64505795  0.29471820  0.67312722  1
  O  O284  1  0.75586456  0.86716924  0.20879513  1
  O  O285  1  0.80569149  0.88888665  0.73544843  1
  O  O286  1  0.36222814  0.24500461  0.29891140  1
  O  O287  1  0.23397549  0.12292060  0.66540956  1
  O  O288  1  0.27397234  0.62959010  0.27086839  1
  O  O289  1  0.28089334  0.60641769  0.69992266  1
  O  O290  1  0.82957341  0.01333165  0.26040986  1
  O  O291  1  0.70138055  0.19197534  0.80188310  1
  O  O292  1  0.72859223  0.62548987  0.27019291  1
  O  O293  1  0.84806769  0.62260468  0.82109265  1
  O  O294  1  0.34933348  0.08629965  0.29379462  1
  O  O295  1  0.30874147  0.09035634  0.79542088  1
  O  O296  1  0.33980613  0.62394005  0.42093818  1
  O  O297  1  0.36290174  0.61774638  0.83150136  1
  O  O298  1  0.90851449  0.10646610  0.34849947  1
  O  O299  1  0.83541088  0.12410222  0.71001315  1
  O  O300  1  0.84382101  0.65222489  0.36880016  1
  O  O301  1  0.87488865  0.68346618  0.83850017  1
  O  O302  1  0.15366236  0.46276775  0.13714017  1
  O  O303  1  0.11277423  0.37456719  0.64331951  1
  O  O304  1  0.16481439  0.91267871  0.06577357  1
  O  O305  1  0.01123156  0.89948135  0.64609867  1
  O  O306  1  0.69905233  0.43003523  0.16452601  1
  O  O307  1  0.56676361  0.41589821  0.65498767  1
  O  O308  1  0.60586523  0.82377090  0.09879896  1
  O  O309  1  0.70579295  0.82342977  0.66921366  1
  O  O310  1  0.15700045  0.32050059  0.18879128  1
  O  O311  1  0.10544201  0.24688291  0.74880296  1
  O  O312  1  0.09773422  0.65104049  0.23289387  1
  O  O313  1  0.04860174  0.70162701  0.78584053  1
  O  O314  1  0.64272907  0.30299907  0.12193057  1
  O  O315  1  0.51129559  0.27302366  0.74284672  1
  O  O316  1  0.62499895  0.74953515  0.22720683  1
  O  O317  1  0.67728414  0.69346186  0.78097005  1
  O  O318  1  0.30706391  0.25445584  0.33786605  1
  O  O319  1  0.36057014  0.25496848  0.78902722  1
  O  O320  1  0.42666106  0.69883022  0.26980668  1
  O  O321  1  0.38464149  0.72822381  0.71341421  1
  O  O322  1  0.81296701  0.26151397  0.28241110  1
  O  O323  1  0.91522135  0.27573038  0.79963306  1
  O  O324  1  0.90683828  0.71090376  0.20940826  1
  O  O325  1  0.84365315  0.74977306  0.79095954  1
  O  O326  1  0.28867740  0.54280173  0.53780465  1
  O  O327  1  0.38535531  0.48236458  1.03762935  1
  O  O328  1  0.44951232  0.94536556  0.50926381  1
  O  O329  1  0.33640061  0.99223725  1.04461827  1
  O  O330  1  0.83923134  0.47777711  0.51894062  1
  O  O331  1  0.85334850  0.47119442  0.98085430  1
  O  O332  1  0.79182308  0.94131280  0.44049151  1
  O  O333  1  0.88234974  1.00196146  1.00385231  1
  O  O334  1  0.09088790  0.03705600  0.00243718  1
  O  O335  1  0.21370632  0.08089754  0.45197073  1
  O  O336  1  0.23695138  0.54986653  0.00515588  1
  O  O337  1  0.02630510  0.49588344  0.44477576  1
  O  O338  1  0.65898182  -0.13744532  0.07695229  1
  O  O339  1  0.62272064  -0.00916079  0.51414964  1
  O  O340  1  0.74248126  0.48462536  0.15249158  1
  O  O341  1  0.62911178  0.53344239  0.52640478  1
  O  O342  1  0.36303428  0.47409965  0.10122425  1
  O  O343  1  0.31294689  0.41193278  0.65839497  1
  O  O344  1  0.44535272  0.88844266  0.07275436  1
  O  O345  1  0.38202891  0.85645978  0.60362611  1
  O  O346  1  0.84282943  0.35968550  0.04682459  1
  O  O347  1  0.80044196  0.34653821  0.67949696  1
  O  O348  1  0.88422018  0.91730760  0.12155249  1
  O  O349  1  0.88240588  0.83952696  0.62009882  1
  O  O350  1  0.19623425  0.12586118  0.27796562  1
  O  O351  1  0.15971159  0.09941860  0.85040102  1
  O  O352  1  0.16224356  0.68813163  0.37992489  1
  O  O353  1  0.10667994  0.61389094  0.91685190  1
  O  O354  1  0.59727825  0.10213999  0.39516893  1
  O  O355  1  0.64673055  0.16748478  0.83880054  1
  O  O356  1  0.64367727  0.64761773  0.39480252  1
  O  O357  1  0.69827339  0.69013444  0.95666631  1
