# generated using pymatgen
data_V51Zn51O256
_symmetry_space_group_name_H-M   'P 1'
_cell_length_a   17.36331902
_cell_length_b   17.59220838
_cell_length_c   17.62389363
_cell_angle_alpha   90.00691241
_cell_angle_beta   90.02621007
_cell_angle_gamma   92.79314006
_symmetry_Int_Tables_number   1
_chemical_formula_structural   V51Zn51O256
_chemical_formula_sum   'V51 Zn51 O256'
_cell_volume   5376.98296690
_cell_formula_units_Z   1
loop_
 _symmetry_equiv_pos_site_id
 _symmetry_equiv_pos_as_xyz
  1  'x, y, z'
loop_
 _atom_site_type_symbol
 _atom_site_label
 _atom_site_symmetry_multiplicity
 _atom_site_fract_x
 _atom_site_fract_y
 _atom_site_fract_z
 _atom_site_occupancy
  V  V0  1  0.89254792  0.48391299  0.86210837  1
  V  V1  1  0.66454163  0.82758603  0.74442254  1
  V  V2  1  0.02084643  0.36610839  0.35115008  1
  V  V3  1  0.11239665  0.61025730  0.49243960  1
  V  V4  1  0.68417571  0.28401079  -0.01054219  1
  V  V5  1  0.78122586  0.13866170  0.84038557  1
  V  V6  1  0.12950231  0.87999592  0.25748415  1
  V  V7  1  0.00389482  0.83820154  0.88864831  1
  V  V8  1  0.75141571  0.59136072  0.91488151  1
  V  V9  1  0.23768852  0.90220593  0.10675954  1
  V  V10  1  0.00514537  0.74865713  0.23185491  1
  V  V11  1  0.36460135  0.64037328  0.21467743  1
  V  V12  1  0.82044994  0.55340956  0.39785561  1
  V  V13  1  0.24076184  0.03591268  0.23003929  1
  V  V14  1  0.66837259  0.73156788  0.91869557  1
  V  V15  1  0.20470779  0.37961310  0.58686532  1
  V  V16  1  0.71080656  0.48741099  0.71237612  1
  V  V17  1  0.36645380  0.40509544  -0.02461551  1
  V  V18  1  0.81890712  0.89554640  0.07762528  1
  V  V19  1  0.25536466  0.75548529  -0.00591998  1
  V  V20  1  0.45935452  0.34703682  0.85126830  1
  V  V21  1  0.26093422  0.73071845  0.47820474  1
  V  V22  1  0.53589955  0.58106894  0.11943742  1
  V  V23  1  0.83759556  0.73906516  0.14756594  1
  V  V24  1  0.21083672  0.57767917  0.81323265  1
  V  V25  1  0.25204627  0.09011954  0.87953794  1
  V  V26  1  0.88057929  0.59919152  0.73239444  1
  V  V27  1  0.31800850  0.88851403  0.47692667  1
  V  V28  1  0.37450502  0.55707358  0.86695250  1
  V  V29  1  0.59539758  0.00022836  0.47131942  1
  V  V30  1  0.15179245  0.20416218  0.89800332  1
  V  V31  1  0.44572730  0.80217734  0.17003648  1
  V  V32  1  0.41845984  0.19299818  0.10044829  1
  V  V33  1  0.42214865  0.11315535  0.26509325  1
  V  V34  1  0.53954383  0.82791256  0.88021463  1
  V  V35  1  0.14256392  0.71572332  0.33970723  1
  V  V36  1  0.63796210  0.28752528  0.36068082  1
  V  V37  1  0.40813594  0.01510451  0.80861742  1
  V  V38  1  0.32396623  0.01609350  0.37899186  1
  V  V39  1  0.91016828  -0.00388826  0.41625736  1
  V  V40  1  0.38460574  0.87909378  -0.02674452  1
  V  V41  1  0.65757540  0.16413775  0.48609815  1
  V  V42  1  0.79831408  -0.03234706  0.75954924  1
  V  V43  1  0.02087473  0.48633199  0.06910120  1
  V  V44  1  0.11608404  0.62444145  -0.00318659  1
  V  V45  1  0.55416790  0.00561308  -0.01974756  1
  V  V46  1  0.04986106  0.33928045  0.85261527  1
  V  V47  1  0.64599542  -0.01946589  0.65443780  1
  V  V48  1  0.20079455  -0.03520277  0.72545321  1
  V  V49  1  0.60930509  0.75443210  0.41228171  1
  V  V50  1  0.65858445  0.05473456  0.14341897  1
  Zn  Zn51  1  0.49498572  0.58454635  0.31602528  1
  Zn  Zn52  1  0.63036256  0.47846152  0.39962524  1
  Zn  Zn53  1  0.52105160  0.36425802  0.06132581  1
  Zn  Zn54  1  0.40820610  0.74118989  0.36346380  1
  Zn  Zn55  1  0.74765286  0.89472836  0.41235843  1
  Zn  Zn56  1  0.56506955  0.31294838  0.50465386  1
  Zn  Zn57  1  0.52085202  0.47312801  0.75924245  1
  Zn  Zn58  1  0.86124660  0.29864277  0.92214444  1
  Zn  Zn59  1  0.09621554  0.04017555  0.33114940  1
  Zn  Zn60  1  0.72653584  0.29337790  0.79302605  1
  Zn  Zn61  1  0.34763307  0.44989959  0.71872694  1
  Zn  Zn62  1  0.57236046  0.21738199  0.19319370  1
  Zn  Zn63  1  0.40760365  0.47411580  0.13374428  1
  Zn  Zn64  1  0.44229626  0.16480418  0.90471385  1
  Zn  Zn65  1  0.63634707  0.73251312  0.12098433  1
  Zn  Zn66  1  0.19249414  0.67317798  0.65641055  1
  Zn  Zn67  1  0.63095608  0.09589965  0.30759235  1
  Zn  Zn68  1  0.41748061  0.68713882  0.99772906  1
  Zn  Zn69  1  0.29401007  0.53570891  0.49824476  1
  Zn  Zn70  1  0.32420249  0.84145090  0.81362620  1
  Zn  Zn71  1  0.96677175  0.65730410  0.38206941  1
  Zn  Zn72  1  0.82645059  0.06203576  0.02192586  1
  Zn  Zn73  1  0.85486724  0.87293201  0.26437375  1
  Zn  Zn74  1  0.30557985  0.82320024  0.64791177  1
  Zn  Zn75  1  0.48378044  0.14924950  0.42796067  1
  Zn  Zn76  1  0.70708070  0.92195259  0.92968432  1
  Zn  Zn77  1  0.62036265  0.04015286  0.81951067  1
  Zn  Zn78  1  0.19089998  0.46437020  0.95298157  1
  Zn  Zn79  1  0.55159336  0.86398286  0.56076143  1
  Zn  Zn80  1  0.85312506  0.56123736  0.05852303  1
  Zn  Zn81  1  0.81109688  0.74647796  0.42962937  1
  Zn  Zn82  1  0.05234398  0.55693354  0.82116295  1
  Zn  Zn83  1  0.03920938  0.29983869  0.01908844  1
  Zn  Zn84  1  0.97536588  0.19145035  0.45246533  1
  Zn  Zn85  1  0.94234813  0.41055645  0.70163904  1
  Zn  Zn86  1  1.00005310  0.94247044  0.74878208  1
  Zn  Zn87  1  0.90205644  0.57027658  0.21679983  1
  Zn  Zn88  1  0.65165403  0.62305365  0.77314895  1
  Zn  Zn89  1  0.34436903  0.00201714  0.61015884  1
  Zn  Zn90  1  0.19456394  0.71063430  0.15737141  1
  Zn  Zn91  1  0.06196860  0.55652274  0.25553090  1
  Zn  Zn92  1  0.79839121  0.05163736  0.57618308  1
  Zn  Zn93  1  0.30068345  0.83313862  0.29080318  1
  Zn  Zn94  1  0.85025837  0.48915462  0.57618573  1
  Zn  Zn95  1  0.47111410  0.88873348  0.71193705  1
  Zn  Zn96  1  0.20611293  0.44831838  0.39587213  1
  Zn  Zn97  1  0.83500425  0.29239728  0.36923883  1
  Zn  Zn98  1  0.82074890  0.76731288  0.80843949  1
  Zn  Zn99  1  0.44984763  0.99723882  0.11376389  1
  Zn  Zn100  1  0.65328166  0.41539527  0.87431785  1
  Zn  Zn101  1  -0.06377192  0.32753353  0.53103602  1
  O  O102  1  0.10855901  0.14828385  0.11554904  1
  O  O103  1  0.08058817  0.05424159  0.58311356  1
  O  O104  1  0.15347818  0.63634460  0.08845464  1
  O  O105  1  0.12774347  0.61526055  0.58906874  1
  O  O106  1  0.64701705  0.13935585  0.20120901  1
  O  O107  1  0.62691806  0.06993883  0.65999376  1
  O  O108  1  0.62846273  0.61937396  0.11936351  1
  O  O109  1  0.47754662  0.65610161  0.70708741  1
  O  O110  1  0.39282842  0.42112842  0.27897029  1
  O  O111  1  0.35820707  0.36554868  0.87938155  1
  O  O112  1  0.33392000  0.91440694  0.36890497  1
  O  O113  1  0.44112360  0.82932697  0.88648451  1
  O  O114  1  0.91723436  0.36687398  0.33718528  1
  O  O115  1  0.84606416  0.40612305  0.89948569  1
  O  O116  1  0.93137377  0.90912679  0.45367254  1
  O  O117  1  0.90126582  0.81904404  0.87284013  1
  O  O118  1  0.23190013  0.03856716  0.35258194  1
  O  O119  1  0.36956702  -0.05746056  0.86664809  1
  O  O120  1  0.21810854  0.47798721  0.27065377  1
  O  O121  1  0.26018500  0.54198654  0.90003727  1
  O  O122  1  0.80471031  -0.01043480  0.40647233  1
  O  O123  1  0.78600024  -0.04089860  0.85653838  1
  O  O124  1  0.72166627  0.53937030  0.40146040  1
  O  O125  1  0.71320640  0.50013181  0.90615113  1
  O  O126  1  0.19107258  0.35447123  0.15512385  1
  O  O127  1  0.24015480  0.48264099  0.58216948  1
  O  O128  1  0.26421618  1.00170380  0.13812426  1
  O  O129  1  0.23943007  1.00892796  0.64701200  1
  O  O130  1  0.83731178  0.48957823  0.14986633  1
  O  O131  1  0.74213343  0.47303370  0.62326053  1
  O  O132  1  0.73706400  1.06187982  0.08713000  1
  O  O133  1  0.75928224  0.98410524  0.65363900  1
  O  O134  1  0.02554145  0.32357117  0.26329125  1
  O  O135  1  0.01197236  0.36804978  0.76874570  1
  O  O136  1  0.02924900  0.85625519  0.23961605  1
  O  O137  1  -0.00096243  0.83030775  0.78255536  1
  O  O138  1  0.42075716  0.36260698  0.30201568  1
  O  O139  1  0.43285450  0.39419447  0.75303887  1
  O  O140  1  0.50717747  0.95346040  0.29128051  1
  O  O141  1  0.55613863  0.84475084  0.78048836  1
  O  O142  1  0.52081557  0.12640852  0.28550888  1
  O  O143  1  0.30428851  0.23249034  0.72672602  1
  O  O144  1  0.49677940  0.60707415  0.20796316  1
  O  O145  1  0.41066466  0.67283062  0.71762526  1
  O  O146  1  1.02569336  0.11332178  0.25514995  1
  O  O147  1  0.96358956  0.21121447  0.73340282  1
  O  O148  1  0.98020087  0.64262152  0.26685165  1
  O  O149  1  0.97552581  0.60538972  0.76328025  1
  O  O150  1  0.40767591  0.18046568  0.00546611  1
  O  O151  1  0.40821716  0.14638204  0.53446375  1
  O  O152  1  0.41479990  0.80351547  0.02680795  1
  O  O153  1  0.35239370  0.78954158  0.45188951  1
  O  O154  1  0.78277715  0.28543618  0.00311228  1
  O  O155  1  0.88236987  0.25388049  0.45684929  1
  O  O156  1  0.85902250  0.79951842  0.06989611  1
  O  O157  1  0.94884079  0.78718121  0.47509959  1
  O  O158  1  0.00457900  0.24510192  0.54238457  1
  O  O159  1  0.12275451  0.23849654  0.98383456  1
  O  O160  1  0.15485939  0.70127365  0.45557079  1
  O  O161  1  0.16571054  0.72318752  0.96675943  1
  O  O162  1  0.64960455  0.24504717  0.53796584  1
  O  O163  1  0.63253756  0.18795818  0.97280823  1
  O  O164  1  0.59710866  0.77760635  0.51167319  1
  O  O165  1  0.66925936  0.74113855  1.01270553  1
  O  O166  1  0.50304864  0.25757620  0.12010272  1
  O  O167  1  0.45987897  0.26669007  0.59746693  1
  O  O168  1  0.54074560  0.78363587  0.15787254  1
  O  O169  1  0.45571793  0.77164100  0.58306602  1
  O  O170  1  0.98012314  0.22863570  0.09333690  1
  O  O171  1  0.91848868  0.24889712  0.69685022  1
  O  O172  1  1.01903985  0.73089875  0.14336699  1
  O  O173  1  0.89542937  0.83335010  0.61551713  1
  O  O174  1  0.03247213  0.26958072  0.38550485  1
  O  O175  1  -0.02216347  0.30670433  0.92084207  1
  O  O176  1  0.04484747  0.74142898  0.35233704  1
  O  O177  1  0.02263092  0.74454434  0.89946998  1
  O  O178  1  0.54096099  0.24206754  0.42182903  1
  O  O179  1  0.46644166  0.25111124  0.83929242  1
  O  O180  1  0.51244282  0.77945783  0.39526551  1
  O  O181  1  0.55659981  0.73445895  0.90729843  1
  O  O182  1  0.23000476  0.13362447  0.52738613  1
  O  O183  1  0.26622824  0.05407535  0.96171546  1
  O  O184  1  0.29927723  0.64537872  0.47680511  1
  O  O185  1  0.30327940  0.67678672  1.00991503  1
  O  O186  1  0.73355358  0.11610650  0.51827059  1
  O  O187  1  0.81204747  0.11069397  0.92730571  1
  O  O188  1  0.80363938  0.68752871  0.55572950  1
  O  O189  1  0.76416914  0.60027644  1.00945984  1
  O  O190  1  0.27013592  0.40437395  -0.00186278  1
  O  O191  1  0.23403343  0.37835003  0.48310748  1
  O  O192  1  0.30316419  0.91037311  0.02398766  1
  O  O193  1  0.22720873  0.85983064  0.48683434  1
  O  O194  1  0.63246792  0.35029522  0.03708376  1
  O  O195  1  0.56494897  0.46795823  0.55137091  1
  O  O196  1  0.73130400  0.89625948  0.03265100  1
  O  O197  1  0.79054560  0.83442037  0.49129661  1
  O  O198  1  0.16984886  0.49654396  0.22137482  1
  O  O199  1  0.14741123  0.51790904  0.76719761  1
  O  O200  1  0.13712619  0.98883146  0.24341968  1
  O  O201  1  0.10175805  0.96604489  0.71807728  1
  O  O202  1  0.67338442  0.59402366  0.25996365  1
  O  O203  1  0.61431903  0.52630276  0.72173196  1
  O  O204  1  0.55250166  0.91147280  0.26068326  1
  O  O205  1  0.66351643  0.95555533  0.75707817  1
  O  O206  1  0.34471008  0.03055479  0.26485763  1
  O  O207  1  0.39174403  -0.00995287  0.71468199  1
  O  O208  1  0.35005994  0.54953241  0.17742919  1
  O  O209  1  0.31398345  0.53757690  0.77461710  1
  O  O210  1  0.89659112  -0.03293259  0.31974734  1
  O  O211  1  0.89362373  -0.04041021  0.73763933  1
  O  O212  1  0.85862420  0.52797061  0.31190552  1
  O  O213  1  0.87933468  0.47954614  0.76156542  1
  O  O214  1  0.12081710  0.38511473  0.37017978  1
  O  O215  1  0.12142547  0.39520522  0.89187369  1
  O  O216  1  0.13883580  0.87811270  0.34922517  1
  O  O217  1  0.10347749  0.85592470  0.89375974  1
  O  O218  1  0.61810005  0.37051373  0.41739687  1
  O  O219  1  0.55288427  0.39705449  0.83431254  1
  O  O220  1  0.64402361  0.85470303  0.41138036  1
  O  O221  1  0.66990253  0.82579033  0.87458585  1
  O  O222  1  0.43152364  0.09892476  0.15473706  1
  O  O223  1  0.41344983  0.10158893  0.59093001  1
  O  O224  1  0.39749976  0.71144804  0.14432881  1
  O  O225  1  0.39493597  0.54897334  0.56696701  1
  O  O226  1  0.89038265  0.13410575  0.09375148  1
  O  O227  1  0.88239704  0.12955665  0.62301261  1
  O  O228  1  0.86335240  0.64501644  0.13638553  1
  O  O229  1  0.88182748  0.57831897  0.63832866  1
  O  O230  1  0.34037534  0.23080826  0.12950623  1
  O  O231  1  0.21265435  0.28469220  0.56859035  1
  O  O232  1  0.24339714  0.79331126  0.09161693  1
  O  O233  1  0.25474028  0.74264997  0.58196786  1
  O  O234  1  0.65210064  0.19309271  0.04855342  1
  O  O235  1  0.80457761  0.26048247  0.59143033  1
  O  O236  1  0.74252528  0.74512260  0.16484307  1
  O  O237  1  0.76321688  0.71365492  0.60589013  1
  O  O238  1  0.26388078  0.16955977  0.47664637  1
  O  O239  1  0.25284503  0.19864008  0.88484470  1
  O  O240  1  0.24123324  0.75655215  0.36025943  1
  O  O241  1  0.29651663  0.81191204  0.91746583  1
  O  O242  1  0.73504869  0.31216041  0.34496996  1
  O  O243  1  0.67655030  0.30935140  0.89096673  1
  O  O244  1  0.69622354  0.71351243  0.43587146  1
  O  O245  1  0.76816502  0.70912175  0.89163223  1
  O  O246  1  -0.05892237  0.17460698  0.05250964  1
  O  O247  1  0.08399406  0.14070470  0.45540469  1
  O  O248  1  0.02487903  0.63959462  0.00364969  1
  O  O249  1  0.01868499  0.60541321  0.46430849  1
  O  O250  1  0.51185932  0.08340303  -0.05140661  1
  O  O251  1  0.56999148  0.09824548  0.49319611  1
  O  O252  1  0.48610796  0.62262692  0.04755462  1
  O  O253  1  0.45260496  0.70394877  0.56054808  1
  O  O254  1  0.43525839  0.36708370  0.47123715  1
  O  O255  1  0.47384998  0.36073421  0.95312146  1
  O  O256  1  0.51627722  0.93927891  0.47594638  1
  O  O257  1  0.56233288  0.90074141  0.94622270  1
  O  O258  1  0.98627832  0.38851732  0.44719709  1
  O  O259  1  1.03033555  0.39067193  1.07776334  1
  O  O260  1  1.00682910  0.82447249  0.49342268  1
  O  O261  1  0.98134996  0.85550486  0.98094904  1
  O  O262  1  0.53353334  0.51100125  0.37438822  1
  O  O263  1  0.45913385  0.54004579  0.82138040  1
  O  O264  1  0.63695281  1.01400781  0.38255455  1
  O  O265  1  0.50707758  1.02209698  0.81298264  1
  O  O266  1  1.03285215  0.46299243  0.31798062  1
  O  O267  1  0.98931201  0.48025640  0.87647955  1
  O  O268  1  1.01232834  1.00686594  0.39839305  1
  O  O269  1  1.00140475  0.94115966  0.86746134  1
  O  O270  1  -0.02836557  0.09035231  0.21234716  1
  O  O271  1  -0.05932598  0.09973407  0.64958862  1
  O  O272  1  0.00847726  0.52656692  0.16112275  1
  O  O273  1  -0.08580061  0.40335828  0.60135291  1
  O  O274  1  0.57120571  0.01983846  0.08200307  1
  O  O275  1  0.54285733  -0.06410075  0.64209028  1
  O  O276  1  0.52264633  0.47919211  0.11299732  1
  O  O277  1  0.41494977  0.51543940  0.62756269  1
  O  O278  1  0.26026016  0.36290277  0.16825787  1
  O  O279  1  0.16400599  0.36653158  0.67536681  1
  O  O280  1  0.23235727  0.87738413  0.21546113  1
  O  O281  1  0.23733161  0.87305860  0.73173432  1
  O  O282  1  0.78922975  0.30905281  0.17152399  1
  O  O283  1  0.71269503  0.40381724  0.76563036  1
  O  O284  1  0.80001631  0.82518179  0.34709655  1
  O  O285  1  0.76905138  0.85078722  0.75449001  1
  O  O286  1  0.22430922  0.12463248  0.21872660  1
  O  O287  1  0.23209932  0.01647314  0.80837052  1
  O  O288  1  0.27404789  0.67076589  0.22493668  1
  O  O289  1  0.22150840  0.66206938  0.75819894  1
  O  O290  1  0.82310469  0.15517094  0.25773829  1
  O  O291  1  0.81090700  0.07785699  0.76843448  1
  O  O292  1  0.74033442  0.61887606  0.26644131  1
  O  O293  1  0.76066376  0.56814435  0.75209171  1
  O  O294  1  0.40553129  0.08651886  0.37743584  1
  O  O295  1  0.36409379  0.10045471  0.84209031  1
  O  O296  1  0.40016455  0.64181961  0.31412804  1
  O  O297  1  0.38800890  0.64968463  0.89021886  1
  O  O298  1  0.92302043  0.10127049  0.41140843  1
  O  O299  1  0.81565244  0.23771996  0.83427956  1
  O  O300  1  0.85591132  0.65363880  0.40657871  1
  O  O301  1  0.85157200  0.57585863  0.88121670  1
  O  O302  1  0.23327864  0.25856033  0.32276339  1
  O  O303  1  0.11131786  0.40115425  0.56361562  1
  O  O304  1  0.14863519  0.91186564  0.08372183  1
  O  O305  1  0.10570120  0.83003566  0.61760643  1
  O  O306  1  0.73426106  0.44448687  0.22360261  1
  O  O307  1  0.55420503  0.40241059  0.58065674  1
  O  O308  1  0.67343839  0.99397059  0.21212355  1
  O  O309  1  0.65224544  0.84427733  0.65152243  1
  O  O310  1  0.26174454  0.32440422  0.31707993  1
  O  O311  1  0.10096802  0.25412469  0.82651939  1
  O  O312  1  0.13273539  0.76002023  0.24065997  1
  O  O313  1  0.08853223  0.76507109  0.64086005  1
  O  O314  1  0.59820181  0.29070841  0.27339188  1
  O  O315  1  0.47165800  0.24251423  0.66215305  1
  O  O316  1  0.63187942  0.75691287  0.31696484  1
  O  O317  1  0.65791869  0.72903795  0.75011380  1
  O  O318  1  0.38578454  0.19608078  0.27034174  1
  O  O319  1  0.29308543  0.18175327  0.67873459  1
  O  O320  1  0.40569428  0.79941205  0.26635767  1
  O  O321  1  0.38431847  0.81990225  0.72528977  1
  O  O322  1  0.86724015  0.20870032  0.28163963  1
  O  O323  1  0.72607607  0.24156379  0.69243530  1
  O  O324  1  0.89800624  0.77335801  0.22937730  1
  O  O325  1  0.85479011  0.69221907  0.73965981  1
  O  O326  1  0.30667379  0.48506271  0.40535345  1
  O  O327  1  0.39224354  0.50097079  0.95594566  1
  O  O328  1  0.31939312  1.00094096  0.47894711  1
  O  O329  1  0.44729508  0.95799660  1.00439045  1
  O  O330  1  0.85610745  0.49953851  0.46863083  1
  O  O331  1  0.93624420  0.50248989  1.02252693  1
  O  O332  1  0.89092061  1.01803558  0.51569724  1
  O  O333  1  0.87596695  0.96745306  1.03776973  1
  O  O334  1  0.08626720  0.08621414  0.09065761  1
  O  O335  1  0.11295615  0.00370718  0.54925084  1
  O  O336  1  0.10727933  0.51434289  0.01277590  1
  O  O337  1  0.16356056  0.53819190  0.45290639  1
  O  O338  1  0.64408300  0.01683452  -0.06633848  1
  O  O339  1  0.65948645  -0.03150252  0.54055885  1
  O  O340  1  0.75415503  0.47060237  0.16045502  1
  O  O341  1  0.43524929  0.43637824  0.45841108  1
  O  O342  1  0.40306854  0.38607118  0.07186729  1
  O  O343  1  0.29932080  0.39061249  0.63445805  1
  O  O344  1  0.42702539  0.89648131  0.15155205  1
  O  O345  1  0.35625045  0.89538819  0.57155408  1
  O  O346  1  0.85462035  0.31481147  0.14522030  1
  O  O347  1  0.76915558  0.29128720  0.64528768  1
  O  O348  1  0.81327732  0.90999220  0.17386254  1
  O  O349  1  0.95479153  0.87428530  0.61921376  1
  O  O350  1  0.11902465  0.13544282  0.39123321  1
  O  O351  1  0.14002652  0.10586289  0.88868725  1
  O  O352  1  0.13766389  0.62296084  0.31372756  1
  O  O353  1  0.13350916  0.60387972  0.88638941  1
  O  O354  1  0.67113895  0.18199726  0.38521198  1
  O  O355  1  0.68250678  0.13479576  0.82946139  1
  O  O356  1  0.56631149  0.66097981  0.41503937  1
  O  O357  1  0.65174388  0.62777996  0.88672646  1
