# generated using pymatgen
data_V51Zn51O256
_symmetry_space_group_name_H-M   'P 1'
_cell_length_a   17.23764935
_cell_length_b   17.20786320
_cell_length_c   17.20127270
_cell_angle_alpha   89.78738783
_cell_angle_beta   89.79689142
_cell_angle_gamma   90.24335939
_symmetry_Int_Tables_number   1
_chemical_formula_structural   V51Zn51O256
_chemical_formula_sum   'V51 Zn51 O256'
_cell_volume   5102.18153926
_cell_formula_units_Z   1
loop_
 _symmetry_equiv_pos_site_id
 _symmetry_equiv_pos_as_xyz
  1  'x, y, z'
loop_
 _atom_site_type_symbol
 _atom_site_label
 _atom_site_symmetry_multiplicity
 _atom_site_fract_x
 _atom_site_fract_y
 _atom_site_fract_z
 _atom_site_occupancy
  V  V0  1  0.37415594  0.39481533  0.00535752  1
  V  V1  1  0.87500888  0.12669058  0.74808471  1
  V  V2  1  0.86810780  0.26427042  0.60363133  1
  V  V3  1  0.49428591  0.13020667  0.13203569  1
  V  V4  1  0.38779878  -0.02610203  0.37809607  1
  V  V5  1  0.20399397  0.28847240  -0.01245030  1
  V  V6  1  0.78001088  0.14386704  0.32140875  1
  V  V7  1  0.90340273  0.53105116  0.37367543  1
  V  V8  1  0.31390728  0.26912192  0.66586587  1
  V  V9  1  0.26727538  0.11954361  0.38426842  1
  V  V10  1  0.02168601  -0.00175899  0.45519709  1
  V  V11  1  0.62657412  0.37812706  0.72845671  1
  V  V12  1  -0.01343228  0.33751568  0.36593879  1
  V  V13  1  0.48748273  -0.03695470  0.00367800  1
  V  V14  1  0.47328853  0.86202049  0.86684930  1
  V  V15  1  0.50054268  0.35600511  0.38739080  1
  V  V16  1  0.09229095  0.12379585  -0.01540254  1
  V  V17  1  0.65980975  0.02076821  0.58810225  1
  V  V18  1  0.89391950  0.87748458  0.46629263  1
  V  V19  1  0.39372290  0.14327352  0.75862040  1
  V  V20  1  0.12814312  0.77136536  0.90014838  1
  V  V21  1  0.72862266  0.08831940  0.87719614  1
  V  V22  1  0.62011468  0.23372659  0.37103825  1
  V  V23  1  0.11012770  0.50785442  0.61222991  1
  V  V24  1  0.13921376  0.24383921  0.34070072  1
  V  V25  1  0.84399352  0.75787548  0.10764396  1
  V  V26  1  0.78390178  0.28821728  -0.01473623  1
  V  V27  1  0.52741533  0.50552873  -0.00104814  1
  V  V28  1  0.24691461  0.68673633  -0.00604118  1
  V  V29  1  0.34719197  0.85435798  0.02060313  1
  V  V30  1  0.13821473  -0.00023766  0.13804912  1
  V  V31  1  0.73057567  0.62567208  0.36653566  1
  V  V32  1  0.35602929  0.24787535  0.11422456  1
  V  V33  1  0.49419464  0.61879765  0.11806649  1
  V  V34  1  0.65005408  0.87587170  0.79188799  1
  V  V35  1  0.12061133  0.00847460  0.65390544  1
  V  V36  1  0.48230221  0.74061790  0.73252862  1
  V  V37  1  0.48409682  0.03761578  0.53537888  1
  V  V38  1  0.03274443  0.70362450  0.25745324  1
  V  V39  1  0.42398021  0.53016194  0.41239531  1
  V  V40  1  0.23798977  0.86670236  0.68032895  1
  V  V41  1  0.60602639  0.36073176  0.22620481  1
  V  V42  1  -0.00406650  0.76382752  0.75111641  1
  V  V43  1  0.40874334  0.51065649  0.84803914  1
  V  V44  1  0.77003048  0.47633540  0.24157293  1
  V  V45  1  0.61744053  0.74143248  0.89197900  1
  V  V46  1  0.77897508  0.87951856  0.62775110  1
  V  V47  1  0.57907552  0.16600274  -0.07849909  1
  V  V48  1  0.12096283  0.13470716  0.50539845  1
  V  V49  1  0.52352434  0.77973791  0.21743921  1
  V  V50  1  0.14558147  0.84356631  0.27894552  1
  Zn  Zn51  1  0.54030773  0.31671344  0.05180821  1
  Zn  Zn52  1  0.92864754  0.78757397  0.91910714  1
  Zn  Zn53  1  0.54353401  0.68203835  0.40143181  1
  Zn  Zn54  1  0.42319957  0.93911405  0.17917670  1
  Zn  Zn55  1  0.42614085  0.68160683  0.92992963  1
  Zn  Zn56  1  0.55991303  0.06294658  0.75428225  1
  Zn  Zn57  1  0.65575281  0.05411789  0.05968982  1
  Zn  Zn58  1  0.96263634  0.70576130  0.43124020  1
  Zn  Zn59  1  0.97029424  0.85052356  0.19545005  1
  Zn  Zn60  1  0.69203313  0.68630386  0.18294895  1
  Zn  Zn61  1  0.34862931  0.26116787  0.32446878  1
  Zn  Zn62  1  0.86822263  0.03126392  0.57793303  1
  Zn  Zn63  1  0.20560082  0.48511961  1.01080616  1
  Zn  Zn64  1  0.11925123  0.05691240  0.30710433  1
  Zn  Zn65  1  0.29016922  0.07155480  0.58502735  1
  Zn  Zn66  1  0.03691786  0.56733453  0.78545967  1
  Zn  Zn67  1  0.58367342  0.52236415  0.30684841  1
  Zn  Zn68  1  0.86803593  0.63019497  0.22824211  1
  Zn  Zn69  1  0.69138695  0.20592125  0.15608406  1
  Zn  Zn70  1  0.90660677  0.17371191  0.92678874  1
  Zn  Zn71  1  0.95364546  0.94468900  0.72125310  1
  Zn  Zn72  1  0.00112658  0.29739690  -0.00594243  1
  Zn  Zn73  1  0.57457149  0.57454598  0.79737227  1
  Zn  Zn74  1  0.83692467  0.79010361  0.30388521  1
  Zn  Zn75  1  0.76093035  0.47836397  0.45878932  1
  Zn  Zn76  1  0.48109520  0.12956630  0.34884081  1
  Zn  Zn77  1  0.02159801  0.08454183  0.81085154  1
  Zn  Zn78  1  0.23807851  0.73143687  0.18170957  1
  Zn  Zn79  1  0.16344553  0.69280776  0.71425810  1
  Zn  Zn80  1  1.00742888  0.49823138  0.24480287  1
  Zn  Zn81  1  0.33904209  0.81055341  0.32153676  1
  Zn  Zn82  1  0.79427657  0.30693149  0.79271810  1
  Zn  Zn83  1  0.56868918  0.86464641  0.63144719  1
  Zn  Zn84  1  0.33537299  0.31262736  0.85738321  1
  Zn  Zn85  1  0.29815293  0.43430234  0.54893780  1
  Zn  Zn86  1  0.80517650  0.80848676  0.80002923  1
  Zn  Zn87  1  0.13484107  0.40972617  0.44099729  1
  Zn  Zn88  1  0.43156682  0.41805978  0.67695644  1
  Zn  Zn89  1  0.94072204  0.17898110  0.43177872  1
  Zn  Zn90  1  0.69553423  0.43969079  1.07060019  1
  Zn  Zn91  1  0.69893684  0.16859623  0.69612878  1
  Zn  Zn92  1  0.41997213  0.94918188  0.67971015  1
  Zn  Zn93  1  0.05064399  0.73951589  0.05631092  1
  Zn  Zn94  1  0.04100075  0.31363282  0.55271625  1
  Zn  Zn95  1  0.08427208  0.59689995  0.42361070  1
  Zn  Zn96  1  0.31664788  0.56632371  0.10834362  1
  Zn  Zn97  1  0.79669196  0.29949107  0.43837099  1
  Zn  Zn98  1  0.33044772  0.04334143  0.07122931  1
  Zn  Zn99  1  0.40186622  0.17668488  0.95462307  1
  Zn  Zn100  1  0.62822928  0.34231137  0.51738118  1
  Zn  Zn101  1  0.04225523  0.86578888  0.58751674  1
  O  O102  1  0.10188895  0.07055931  0.19708978  1
  O  O103  1  0.11378369  0.10473624  0.60449913  1
  O  O104  1  0.17423327  0.52323342  0.18685815  1
  O  O105  1  0.14103903  0.60484874  0.63487915  1
  O  O106  1  0.59664780  0.12876186  0.12493729  1
  O  O107  1  0.62940779  0.08709921  0.66280709  1
  O  O108  1  0.60723472  0.60731193  0.15223201  1
  O  O109  1  0.63141329  0.72659954  0.53446341  1
  O  O110  1  0.40029808  0.34755917  0.37094924  1
  O  O111  1  0.36436871  0.42450694  0.88751744  1
  O  O112  1  0.38494802  0.87515769  0.39806126  1
  O  O113  1  0.38393711  0.84295999  0.90673151  1
  O  O114  1  0.89009798  0.32221468  0.37485524  1
  O  O115  1  0.87954813  0.39768432  0.79344865  1
  O  O116  1  0.87445592  0.87704677  0.36976236  1
  O  O117  1  0.88313943  0.89131316  0.87719151  1
  O  O118  1  0.30436514  0.01597907  0.41477971  1
  O  O119  1  0.23419923  0.00585388  0.91541698  1
  O  O120  1  0.27082586  0.46103875  0.30798057  1
  O  O121  1  0.17077743  0.43215691  0.84737235  1
  O  O122  1  0.75978514  0.02954485  0.33171727  1
  O  O123  1  0.72214384  -0.00612149  0.87518076  1
  O  O124  1  0.77098868  0.51795515  0.34636403  1
  O  O125  1  0.74114504  0.59886267  0.96875731  1
  O  O126  1  0.23108295  0.49050235  0.13182089  1
  O  O127  1  0.21605665  0.48930858  0.61113117  1
  O  O128  1  0.23199205  1.02044877  0.11471510  1
  O  O129  1  0.22476788  1.01295289  0.65435456  1
  O  O130  1  0.76077855  0.49716231  0.14253377  1
  O  O131  1  0.72562269  0.55219359  0.63034186  1
  O  O132  1  0.74830426  1.01875562  0.11882435  1
  O  O133  1  0.75198010  1.04730211  0.56748256  1
  O  O134  1  0.00270991  0.39077839  0.28223168  1
  O  O135  1  -0.10849400  0.43858089  0.73476633  1
  O  O136  1  0.04013622  0.83528329  0.28215658  1
  O  O137  1  0.00003719  0.86243859  0.78159134  1
  O  O138  1  0.51139008  0.36971998  0.23413948  1
  O  O139  1  0.52670043  0.36323879  0.69995809  1
  O  O140  1  0.51418292  0.87543727  0.19938563  1
  O  O141  1  0.46037470  0.86683452  0.76778223  1
  O  O142  1  0.47486817  0.12738304  0.22655274  1
  O  O143  1  0.49525132  0.18225540  0.77416381  1
  O  O144  1  0.55201292  0.59856929  0.21384587  1
  O  O145  1  0.52364267  0.64803141  0.73100826  1
  O  O146  1  0.96451160  0.13874385  0.21722765  1
  O  O147  1  0.94292116  0.17568891  0.81478804  1
  O  O148  1  1.03673354  0.60978708  0.22847141  1
  O  O149  1  0.99668789  0.65620854  0.74370811  1
  O  O150  1  0.38075301  0.28840271  -0.03941235  1
  O  O151  1  0.31467462  0.24420756  0.54074078  1
  O  O152  1  0.34498754  0.73191155  -0.00253283  1
  O  O153  1  0.36947238  0.61457283  0.62583087  1
  O  O154  1  0.88733491  0.27557569  -0.01861880  1
  O  O155  1  0.86468394  0.22892681  0.50186178  1
  O  O156  1  0.88232923  0.79347206  0.02133007  1
  O  O157  1  0.90658945  0.78072761  0.48871942  1
  O  O158  1  0.11293653  0.23274060  0.51500340  1
  O  O159  1  0.11124943  0.32548673  0.99354303  1
  O  O160  1  0.16021140  0.75905847  0.49208227  1
  O  O161  1  0.15506175  0.73292574  1.01559509  1
  O  O162  1  0.62636674  0.23751351  0.47009155  1
  O  O163  1  0.58463315  0.25366423  0.96537433  1
  O  O164  1  0.59824945  0.76085147  0.47009855  1
  O  O165  1  0.61894300  0.72897394  0.98535877  1
  O  O166  1  0.47824520  0.23230840  0.10492840  1
  O  O167  1  0.38262883  0.24320483  0.51538297  1
  O  O168  1  0.49914606  0.72302544  0.13182317  1
  O  O169  1  0.49776059  0.77912543  0.63722707  1
  O  O170  1  0.98173005  0.33965089  0.11860426  1
  O  O171  1  0.96996024  0.26321651  0.61723408  1
  O  O172  1  1.00848533  0.74893068  0.15361352  1
  O  O173  1  0.99971696  0.78176648  0.65275006  1
  O  O174  1  0.02539518  0.23994666  0.36370685  1
  O  O175  1  0.01853130  0.31894985  0.75896926  1
  O  O176  1  0.05475252  0.69394924  0.36247417  1
  O  O177  1  0.03005682  0.74746299  0.94439270  1
  O  O178  1  0.50802276  0.24774812  0.36498563  1
  O  O179  1  0.50573300  0.21791918  0.84422483  1
  O  O180  1  0.50211499  0.76712728  0.32824449  1
  O  O181  1  0.50084083  0.74448543  0.86193020  1
  O  O182  1  0.23215076  0.11894419  0.49604606  1
  O  O183  1  0.17314093  0.18143752  1.00027887  1
  O  O184  1  0.35291083  0.66280198  0.57646478  1
  O  O185  1  0.24030945  0.58897434  0.97407237  1
  O  O186  1  0.73283971  0.06613351  0.39398220  1
  O  O187  1  0.66505358  0.11599561  0.96447663  1
  O  O188  1  0.73485820  0.59010889  0.46293116  1
  O  O189  1  0.79078639  0.64938668  0.96360160  1
  O  O190  1  0.25725910  0.38630361  -0.00136282  1
  O  O191  1  0.21829993  0.37605127  0.50322833  1
  O  O192  1  0.25291445  0.85787033  0.01686908  1
  O  O193  1  0.22807887  0.74332064  0.50460817  1
  O  O194  1  0.76545281  0.38385613  0.00123696  1
  O  O195  1  0.72577749  0.37688654  0.47665438  1
  O  O196  1  0.74585032  0.92468371  0.02812234  1
  O  O197  1  0.80400867  0.88704876  0.52351233  1
  O  O198  1  0.13538540  0.46975190  0.22108725  1
  O  O199  1  0.09198732  0.49205343  0.71209072  1
  O  O200  1  0.15365073  0.93086633  0.22095350  1
  O  O201  1  0.09865577  1.02983421  0.74757400  1
  O  O202  1  0.65652274  0.45575231  0.25161467  1
  O  O203  1  0.61190745  0.47801479  0.74211206  1
  O  O204  1  0.65610375  0.93723076  0.23477492  1
  O  O205  1  0.60284686  0.95996902  0.76877744  1
  O  O206  1  0.39178701  -0.01724477  0.27900054  1
  O  O207  1  0.43982733  0.05295735  0.73733073  1
  O  O208  1  0.36815455  0.55288219  0.33769830  1
  O  O209  1  0.40950835  0.49755143  0.74973782  1
  O  O210  1  0.91490259  0.04750984  0.11932326  1
  O  O211  1  0.92019533  0.03631193  0.78047082  1
  O  O212  1  0.88767784  0.52043932  0.26093591  1
  O  O213  1  0.79704684  0.54227546  0.82802907  1
  O  O214  1  0.14341172  0.34571387  0.35090102  1
  O  O215  1  0.01427329  0.44571415  0.89221792  1
  O  O216  1  0.16844126  0.86216578  0.36904221  1
  O  O217  1  0.13695465  0.86441676  0.90480745  1
  O  O218  1  0.60571653  0.34661914  0.34988887  1
  O  O219  1  0.60138598  0.35435974  0.82334807  1
  O  O220  1  0.66816432  0.90214737  0.40962740  1
  O  O221  1  0.58582211  0.85497542  0.88096526  1
  O  O222  1  0.37033421  0.14834467  0.06737737  1
  O  O223  1  0.33610409  0.15766578  0.66814350  1
  O  O224  1  0.40670468  0.60283279  0.16046207  1
  O  O225  1  0.53818836  0.50622707  0.55444041  1
  O  O226  1  0.87516190  0.09536843  0.08551686  1
  O  O227  1  0.89269360  0.11579072  0.65093749  1
  O  O228  1  0.87506045  0.66382986  0.12180182  1
  O  O229  1  0.86128830  0.60321771  0.57375673  1
  O  O230  1  0.26258985  0.26148309  0.07922725  1
  O  O231  1  0.22177691  0.27738416  0.67803277  1
  O  O232  1  0.25609377  0.66264700  0.10346907  1
  O  O233  1  0.22672409  0.76551229  0.66562700  1
  O  O234  1  0.74082635  0.23347663  0.05843751  1
  O  O235  1  0.76682322  0.21779228  0.62282096  1
  O  O236  1  0.74481980  0.74971683  0.10556072  1
  O  O237  1  0.79329442  0.78699663  0.64397795  1
  O  O238  1  0.24569008  0.22868670  0.36696793  1
  O  O239  1  0.22942096  0.27806105  0.89274300  1
  O  O240  1  0.28404167  0.68035187  0.38593237  1
  O  O241  1  0.22375553  0.72603234  0.89520627  1
  O  O242  1  0.73485358  0.22827959  0.36328762  1
  O  O243  1  0.75717815  0.26636597  0.88825829  1
  O  O244  1  0.76403545  0.71923245  0.36861548  1
  O  O245  1  0.70797551  0.79376738  0.85854794  1
  O  O246  1  0.00587420  0.18014977  -0.00988739  1
  O  O247  1  0.01460523  0.10919403  0.47998044  1
  O  O248  1  -0.09360692  0.56720720  -0.01994136  1
  O  O249  1  0.03226396  0.65262831  0.50422519  1
  O  O250  1  0.50109228  0.11598752  -0.03636197  1
  O  O251  1  0.49488496  0.12765721  0.56173492  1
  O  O252  1  0.48998403  0.61393946  0.00857720  1
  O  O253  1  0.61457517  0.65604977  0.54569274  1
  O  O254  1  0.51848287  0.35785623  0.48507849  1
  O  O255  1  0.48644993  0.40475824  0.99180480  1
  O  O256  1  0.60911822  0.92584301  0.37897467  1
  O  O257  1  0.48299017  0.86635889  1.01630074  1
  O  O258  1  1.02448306  0.37475399  0.45661128  1
  O  O259  1  0.96584600  0.39664059  0.92619941  1
  O  O260  1  1.00623800  0.89000607  0.48101886  1
  O  O261  1  0.91455728  0.96822298  0.97757179  1
  O  O262  1  0.50561755  0.46949752  0.37096103  1
  O  O263  1  0.50737495  0.51835266  0.88082148  1
  O  O264  1  0.46930632  1.02923060  0.42182747  1
  O  O265  1  0.48340430  0.96404142  0.89740867  1
  O  O266  1  1.00657322  0.52813116  0.36935297  1
  O  O267  1  0.97674621  0.50976025  0.86142978  1
  O  O268  1  1.03352011  1.00080845  0.35635143  1
  O  O269  1  0.86506130  0.95310911  0.92563514  1
  O  O270  1  0.02166209  -0.07012541  0.12336941  1
  O  O271  1  0.01846863  -0.02526407  0.62875988  1
  O  O272  1  0.00094561  0.50872862  0.11134688  1
  O  O273  1  0.01681297  0.53590947  0.59012928  1
  O  O274  1  0.45782830  0.02716331  0.10519817  1
  O  O275  1  0.51599498  -0.03435841  0.61342082  1
  O  O276  1  0.51281599  0.50769836  0.09864243  1
  O  O277  1  0.49528115  0.51352714  0.61205761  1
  O  O278  1  0.29687862  0.41593584  0.26029275  1
  O  O279  1  0.22447098  0.42582196  0.80054406  1
  O  O280  1  0.25843940  0.81293694  0.25052752  1
  O  O281  1  0.23044277  0.88306026  0.77366106  1
  O  O282  1  0.79400250  0.38522852  0.24859723  1
  O  O283  1  0.72787727  0.39387662  0.74563385  1
  O  O284  1  0.72649613  0.84667172  0.29271877  1
  O  O285  1  0.74582089  0.88899681  0.74508216  1
  O  O286  1  0.23540615  0.07829594  0.30140245  1
  O  O287  1  0.24046180  0.01708217  0.84604047  1
  O  O288  1  0.23055037  0.64416267  0.34865741  1
  O  O289  1  0.20028848  0.60355080  0.79127333  1
  O  O290  1  0.76580914  0.15081916  0.22357012  1
  O  O291  1  0.77291325  0.11658068  0.77309696  1
  O  O292  1  0.75465043  0.62241199  0.25213436  1
  O  O293  1  0.87259413  0.65042288  0.62526014  1
  O  O294  1  0.36645357  0.15006377  0.36666169  1
  O  O295  1  0.35774401  0.13571934  0.85022385  1
  O  O296  1  0.46693804  0.61594257  0.44368520  1
  O  O297  1  0.37063707  0.59837910  0.87224255  1
  O  O298  1  0.87496132  0.14909280  0.34363878  1
  O  O299  1  0.81675902  0.10741744  0.92310036  1
  O  O300  1  0.88514913  0.62269982  0.40443748  1
  O  O301  1  0.83573649  0.58938400  0.79071051  1
  O  O302  1  0.05285512  0.47192251  0.07069481  1
  O  O303  1  0.09426640  0.40644825  0.60293688  1
  O  O304  1  0.08643684  0.90195476  0.08997294  1
  O  O305  1  0.14237376  0.89847796  0.63390927  1
  O  O306  1  0.62048815  0.36531918  0.11925129  1
  O  O307  1  0.63961202  0.38208119  0.62339697  1
  O  O308  1  0.72032492  0.90138048  0.23800653  1
  O  O309  1  0.67278961  0.91461938  0.60934825  1
  O  O310  1  0.13635417  0.22832896  0.24805904  1
  O  O311  1  0.08111555  0.30428825  0.78915032  1
  O  O312  1  0.13669724  0.73709432  0.23872031  1
  O  O313  1  0.09884042  0.74661954  0.79630307  1
  O  O314  1  0.63725546  0.26257972  0.23754384  1
  O  O315  1  0.64923642  0.27478977  0.71910636  1
  O  O316  1  0.61949007  0.76169796  0.22602753  1
  O  O317  1  0.60825507  0.80763814  0.73310166  1
  O  O318  1  0.34697239  0.24021607  0.21110791  1
  O  O319  1  0.36307396  0.26719412  0.75914471  1
  O  O320  1  0.43415968  0.74395992  0.28292638  1
  O  O321  1  0.38913729  0.72470599  0.73844793  1
  O  O322  1  0.94843791  0.20377536  0.19435795  1
  O  O323  1  0.84785042  0.24302881  0.71960971  1
  O  O324  1  0.92661417  0.71457993  0.28440016  1
  O  O325  1  0.89975949  0.75394252  0.81030182  1
  O  O326  1  0.37224983  0.48855237  0.48940650  1
  O  O327  1  0.36152950  0.49040952  1.03190392  1
  O  O328  1  0.38656467  1.02154154  0.55869282  1
  O  O329  1  0.36955434  0.96280022  1.00378772  1
  O  O330  1  0.87708500  0.47122503  0.44859576  1
  O  O331  1  0.87324809  0.50669320  0.99693489  1
  O  O332  1  0.91168978  0.99452422  0.48210966  1
  O  O333  1  0.77653956  0.94967047  1.09067702  1
  O  O334  1  0.09226435  0.04452141  0.04744304  1
  O  O335  1  0.11290180  0.00582434  0.49310843  1
  O  O336  1  0.09325837  0.51757956  0.01913771  1
  O  O337  1  0.12523509  0.51415003  0.50291551  1
  O  O338  1  0.58214934  -0.01992628  0.02593623  1
  O  O339  1  0.60332338  0.03140612  0.50810509  1
  O  O340  1  0.62433232  0.49565131  -0.00492475  1
  O  O341  1  0.71704513  0.60009058  0.68251016  1
  O  O342  1  0.38464692  0.35108509  0.09843070  1
  O  O343  1  0.34892916  0.36468660  0.62866977  1
  O  O344  1  0.36647724  0.85720540  0.12015693  1
  O  O345  1  0.33259725  0.89121664  0.65111049  1
  O  O346  1  0.91538648  0.35939510  0.13780401  1
  O  O347  1  0.84655750  0.35669311  0.59763147  1
  O  O348  1  0.86143554  0.82439755  0.18925904  1
  O  O349  1  0.85988155  0.93788483  0.65407613  1
  O  O350  1  0.13782676  0.13824879  0.39040495  1
  O  O351  1  0.09386390  0.08968762  0.89255245  1
  O  O352  1  0.19521827  0.58332361  0.38739515  1
  O  O353  1  0.14556112  0.57671721  0.83482036  1
  O  O354  1  0.59932103  0.13881152  0.34561626  1
  O  O355  1  0.62819611  0.12969828  0.82914554  1
  O  O356  1  0.62633470  0.62010549  0.35253164  1
  O  O357  1  0.63449400  0.64910747  0.85316508  1
