# generated using pymatgen
data_V51Zn51O256
_symmetry_space_group_name_H-M   'P 1'
_cell_length_a   17.74458843
_cell_length_b   17.44089028
_cell_length_c   17.31601976
_cell_angle_alpha   89.84324778
_cell_angle_beta   89.26502512
_cell_angle_gamma   88.86331386
_symmetry_Int_Tables_number   1
_chemical_formula_structural   V51Zn51O256
_chemical_formula_sum   'V51 Zn51 O256'
_cell_volume   5357.47449163
_cell_formula_units_Z   1
loop_
 _symmetry_equiv_pos_site_id
 _symmetry_equiv_pos_as_xyz
  1  'x, y, z'
loop_
 _atom_site_type_symbol
 _atom_site_label
 _atom_site_symmetry_multiplicity
 _atom_site_fract_x
 _atom_site_fract_y
 _atom_site_fract_z
 _atom_site_occupancy
  V  V0  1  0.83527563  0.86346467  0.50261805  1
  V  V1  1  -0.06100805  0.14259644  0.12283333  1
  V  V2  1  0.74283550  0.49753673  0.74660201  1
  V  V3  1  0.74815603  0.64749152  0.36850960  1
  V  V4  1  0.62964477  0.87976452  0.22626962  1
  V  V5  1  0.73496999  0.52177097  0.23138230  1
  V  V6  1  0.21395668  0.51790654  0.26739810  1
  V  V7  1  0.81506648  -0.00401212  0.39230452  1
  V  V8  1  0.17717117  0.00835950  0.61908442  1
  V  V9  1  0.72916484  0.76673905  -0.01366453  1
  V  V10  1  0.38759841  0.59404687  0.25260820  1
  V  V11  1  -0.00815966  0.89329249  0.40021039  1
  V  V12  1  0.87342720  0.63036922  0.20978707  1
  V  V13  1  0.63996316  0.65023766  0.51255598  1
  V  V14  1  -0.05714985  0.16218229  0.60187011  1
  V  V15  1  0.71857634  0.28449418  -0.00976388  1
  V  V16  1  0.40567474  0.52195396  0.40978650  1
  V  V17  1  0.49457956  0.30141099  0.24551949  1
  V  V18  1  0.74488071  0.00258225  0.21362271  1
  V  V19  1  0.64274314  0.13441341  0.49466620  1
  V  V20  1  -0.03552914  0.79123125  0.25147683  1
  V  V21  1  0.49443401  0.03483143  0.01583750  1
  V  V22  1  0.50467016  0.89803024  0.37218993  1
  V  V23  1  0.50016790  0.14295759  0.64046428  1
  V  V24  1  0.40735778  0.73167162  0.12310725  1
  V  V25  1  0.72850925  0.60410881  0.87968957  1
  V  V26  1  0.14316674  0.36802890  0.70611024  1
  V  V27  1  0.84455700  0.13616097  0.76140650  1
  V  V28  1  0.85485072  0.51579597  0.38472599  1
  V  V29  1  -0.07633927  0.25976554  0.29844711  1
  V  V30  1  0.25033153  0.70539325  0.04534794  1
  V  V31  1  0.62147700  0.76520537  0.35834681  1
  V  V32  1  -0.01650882  0.39615280  0.39627497  1
  V  V33  1  0.57072083  0.38783389  0.39154640  1
  V  V34  1  0.27919419  0.87288152  0.13051171  1
  V  V35  1  0.37868883  -0.05460023  0.86054384  1
  V  V36  1  0.14340373  0.49189778  0.58656775  1
  V  V37  1  0.54449458  0.51033413  0.53538631  1
  V  V38  1  0.60069818  0.73729122  0.86458728  1
  V  V39  1  0.71486199  0.38566035  0.13145922  1
  V  V40  1  0.00768966  0.64237035  0.58665669  1
  V  V41  1  0.00634053  0.35360188  0.82762503  1
  V  V42  1  0.90594452  0.36616766  0.03993780  1
  V  V43  1  0.63573699  0.35255996  0.75990281  1
  V  V44  1  0.91468748  0.02001367  0.87559239  1
  V  V45  1  0.62645657  0.00022515  0.63283925  1
  V  V46  1  0.92527024  0.49553059  0.87861712  1
  V  V47  1  0.86984370  0.77544838  0.66532449  1
  V  V48  1  0.34236940  0.35344467  0.50332536  1
  V  V49  1  0.50929699  0.02118265  0.48882051  1
  V  V50  1  0.76499958  0.24212355  0.54895577  1
  Zn  Zn51  1  0.14162792  0.59976600  0.71060630  1
  Zn  Zn52  1  0.03087646  0.30123703  0.16101090  1
  Zn  Zn53  1  0.70010072  0.71492566  0.18001405  1
  Zn  Zn54  1  0.92425426  0.70364040  0.42166080  1
  Zn  Zn55  1  0.80060405  0.04532203  0.03514091  1
  Zn  Zn56  1  0.35128516  0.50451722  0.59456243  1
  Zn  Zn57  1  0.80318684  0.83200551  0.30361164  1
  Zn  Zn58  1  0.90805137  0.49246214  0.67723476  1
  Zn  Zn59  1  0.47399006  0.69046191  0.42743963  1
  Zn  Zn60  1  0.80030329  0.04832135  0.58212620  1
  Zn  Zn61  1  0.03454750  0.03808181  0.74758130  1
  Zn  Zn62  1  0.18133618  0.91886804  0.44177113  1
  Zn  Zn63  1  0.12484306  0.80002112  0.14245845  1
  Zn  Zn64  1  0.04598533  0.15276464  0.24137100  1
  Zn  Zn65  1  0.08875505  0.19348828  0.65310044  1
  Zn  Zn66  1  0.72016449  0.45855457  0.48255837  1
  Zn  Zn67  1  0.54105884  0.66918754  1.00001327  1
  Zn  Zn68  1  0.47900658  0.23041278  0.48792554  1
  Zn  Zn69  1  0.86567119  0.81765304  0.87919311  1
  Zn  Zn70  1  0.74606944  0.17885535  0.14452051  1
  Zn  Zn71  1  0.46539526  0.34295720  0.64837175  1
  Zn  Zn72  1  0.11891651  0.48842761  0.82463294  1
  Zn  Zn73  1  0.90667275  0.91965963  0.74626314  1
  Zn  Zn74  1  0.34360894  -0.05329420  0.54091799  1
  Zn  Zn75  1  0.81969856  0.32325048  0.80339034  1
  Zn  Zn76  1  0.63047871  0.85855058  0.50863639  1
  Zn  Zn77  1  0.56785520  0.56699543  0.33332722  1
  Zn  Zn78  1  0.76123953  0.34925886  0.34098754  1
  Zn  Zn79  1  0.26054114  0.81966825  0.91213045  1
  Zn  Zn80  1  0.93982508  0.99891335  0.25230210  1
  Zn  Zn81  1  0.17522962  0.41514203  0.42078183  1
  Zn  Zn82  1  0.29746742  0.04079457  -0.00959666  1
  Zn  Zn83  1  0.60653176  0.31257110  0.58224017  1
  Zn  Zn84  1  0.47089082  0.95576255  0.68093007  1
  Zn  Zn85  1  0.53665506  0.05228396  0.80818102  1
  Zn  Zn86  1  0.70304773  0.68280130  0.70642441  1
  Zn  Zn87  1  0.44560296  0.91188850  0.18578077  1
  Zn  Zn88  1  0.00027842  0.35126045  0.58941527  1
  Zn  Zn89  1  0.67036902  0.18025731  0.70148674  1
  Zn  Zn90  1  0.93500569  0.20212178  0.93495417  1
  Zn  Zn91  1  0.34157677  0.39413834  0.31556605  1
  Zn  Zn92  1  0.02615719  0.56282521  0.30378201  1
  Zn  Zn93  1  -0.05110341  0.09704103  0.41114802  1
  Zn  Zn94  1  0.78797331  0.49611378  0.02498411  1
  Zn  Zn95  1  0.58294008  0.58076169  0.78296748  1
  Zn  Zn96  1  0.62658357  0.03689875  0.34128701  1
  Zn  Zn97  1  0.69268429  0.41719882  0.90495362  1
  Zn  Zn98  1  0.87655054  0.41556512  0.22708495  1
  Zn  Zn99  1  0.87068019  0.65226148  0.99639902  1
  Zn  Zn100  1  0.28920846  0.33166199  0.79121050  1
  Zn  Zn101  1  0.24984867  0.63934034  0.85424138  1
  O  O102  1  0.19928574  0.07630265  0.14455592  1
  O  O103  1  0.16127909  0.11135509  0.61947593  1
  O  O104  1  -0.01009617  0.70978316  0.03044607  1
  O  O105  1  0.10463142  0.59550723  0.60369927  1
  O  O106  1  0.71887237  0.13015148  0.03219125  1
  O  O107  1  0.61378046  0.12540416  0.62582366  1
  O  O108  1  0.62169804  0.62786874  0.13475026  1
  O  O109  1  0.64937778  0.66855001  0.60571168  1
  O  O110  1  0.38020840  0.41302894  0.42905672  1
  O  O111  1  0.29207505  0.42622709  0.87274356  1
  O  O112  1  0.41370257  0.89657923  0.37643321  1
  O  O113  1  0.47653189  0.77725667  0.70461593  1
  O  O114  1  0.85380691  0.41830194  0.35026061  1
  O  O115  1  0.90784592  0.38448210  0.83967337  1
  O  O116  1  0.85308522  0.88827929  0.38793496  1
  O  O117  1  0.90803658  0.91539918  0.86736870  1
  O  O118  1  0.19214349  0.01090373  0.35365116  1
  O  O119  1  0.34100633  -0.14179316  0.84537897  1
  O  O120  1  0.32679462  0.56831187  0.42733921  1
  O  O121  1  0.25615591  0.42203460  0.93586191  1
  O  O122  1  0.72182328  -0.00929022  0.38405571  1
  O  O123  1  0.70062949  0.00229589  0.86104491  1
  O  O124  1  0.75598535  0.53594023  0.34636753  1
  O  O125  1  0.76314321  0.49144534  0.85651168  1
  O  O126  1  0.20507247  0.48349252  0.18135491  1
  O  O127  1  0.23868690  0.50036062  0.59105938  1
  O  O128  1  0.26121142  0.94520464  0.04392628  1
  O  O129  1  0.27647257  1.02522424  0.60606716  1
  O  O130  1  0.73567883  0.50322746  0.12865286  1
  O  O131  1  0.79682826  0.50141174  0.66567121  1
  O  O132  1  0.76170791  0.98495716  0.11894861  1
  O  O133  1  0.72035383  1.01269915  0.65042852  1
  O  O134  1  -0.03641948  0.34763307  0.25329424  1
  O  O135  1  0.00988107  0.33971157  0.72877605  1
  O  O136  1  -0.04591046  0.88636533  0.23505965  1
  O  O137  1  0.00490287  0.94113024  0.71258306  1
  O  O138  1  0.55471100  0.37676490  0.29178706  1
  O  O139  1  0.44371385  0.29873398  0.75647798  1
  O  O140  1  0.52367391  0.89787551  0.26303129  1
  O  O141  1  0.47342118  0.73329171  0.64983098  1
  O  O142  1  0.50362454  0.18918417  0.25488747  1
  O  O143  1  0.50607958  0.13890759  0.73980351  1
  O  O144  1  0.56631646  0.60689943  0.17361221  1
  O  O145  1  0.47576533  0.54627116  0.81339960  1
  O  O146  1  0.96920186  0.16652147  0.32278666  1
  O  O147  1  1.00548531  0.12689318  0.68275412  1
  O  O148  1  0.96624835  0.62825998  0.24133180  1
  O  O149  1  1.10411643  0.76451033  0.66978673  1
  O  O150  1  0.29928564  0.27613488  0.15675000  1
  O  O151  1  0.37372707  0.26239174  0.48720640  1
  O  O152  1  0.35812061  0.69217093  0.04464396  1
  O  O153  1  0.39203799  0.71161392  0.50240717  1
  O  O154  1  0.87763105  0.28381323  -0.00397678  1
  O  O155  1  0.85915026  0.22801363  0.57219513  1
  O  O156  1  0.83539682  0.74961532  -0.04402096  1
  O  O157  1  0.86425911  0.77057853  0.48566548  1
  O  O158  1  0.10567240  0.19903725  0.42411145  1
  O  O159  1  0.14463698  0.21521579  1.00870775  1
  O  O160  1  0.15635846  0.70976343  0.37643154  1
  O  O161  1  0.16700791  0.76528749  1.04786510  1
  O  O162  1  0.64606737  0.23720005  0.50803835  1
  O  O163  1  0.62827075  0.27766384  0.98428225  1
  O  O164  1  0.62984856  0.74908172  0.47029601  1
  O  O165  1  0.62797941  0.73938580  0.97470462  1
  O  O166  1  0.49253975  0.31246553  0.15299008  1
  O  O167  1  0.50891167  0.24737654  0.60165972  1
  O  O168  1  0.49573082  0.70192398  0.09410898  1
  O  O169  1  0.37068776  0.61976707  0.72397871  1
  O  O170  1  0.93794758  0.22417015  0.18210420  1
  O  O171  1  1.00909947  0.23954076  0.58632806  1
  O  O172  1  1.00210251  0.87388383  0.01692047  1
  O  O173  1  1.08718185  0.74177230  0.59962856  1
  O  O174  1  -0.05514217  0.29771448  0.39031311  1
  O  O175  1  0.00772272  0.26943538  0.87687796  1
  O  O176  1  -0.02275530  0.78847298  0.35591362  1
  O  O177  1  0.05362624  0.81616393  0.84727206  1
  O  O178  1  0.52757030  0.30664647  0.42194266  1
  O  O179  1  0.40077882  0.33735117  0.80470262  1
  O  O180  1  0.52005103  0.77628027  0.37099197  1
  O  O181  1  0.51694448  0.69251980  0.89241354  1
  O  O182  1  0.28792660  0.12998006  0.42749954  1
  O  O183  1  0.25021748  0.14034554  1.00219287  1
  O  O184  1  0.32639887  0.73516875  0.46431584  1
  O  O185  1  0.22449954  0.62096477  1.07265911  1
  O  O186  1  0.74589102  0.13838863  0.53003979  1
  O  O187  1  0.74837702  0.18064113  0.97780821  1
  O  O188  1  0.74013789  0.64255167  0.46765787  1
  O  O189  1  0.77276785  0.59413566  0.97268119  1
  O  O190  1  0.24677989  0.31490986  -0.04444715  1
  O  O191  1  0.24737865  0.35842835  0.48932052  1
  O  O192  1  0.29385580  0.87303667  0.01694936  1
  O  O193  1  0.27538756  0.89506322  0.47939287  1
  O  O194  1  0.71878360  0.40121326  0.02051644  1
  O  O195  1  0.76786333  0.35167864  0.51617152  1
  O  O196  1  0.72802740  0.85902104  -0.02980772  1
  O  O197  1  0.74134675  0.85827399  0.50477721  1
  O  O198  1  0.12913994  0.55580164  0.30232356  1
  O  O199  1  0.11601356  0.48430493  0.70234037  1
  O  O200  1  0.19578006  1.04642135  0.20867177  1
  O  O201  1  0.14860996  1.03020978  0.71757078  1
  O  O202  1  0.64278992  0.52557832  0.25555162  1
  O  O203  1  0.64987964  0.51072955  0.72394752  1
  O  O204  1  0.64183804  0.98862180  0.23991329  1
  O  O205  1  0.57499163  0.98875700  0.72346944  1
  O  O206  1  0.39333958  0.07830189  0.24536131  1
  O  O207  1  0.43755528  -0.02035024  0.78943704  1
  O  O208  1  0.39554265  0.49306247  0.30841638  1
  O  O209  1  0.44935310  0.48314524  0.79381883  1
  O  O210  1  0.83005535  -0.00799968  0.27240578  1
  O  O211  1  0.86733469  0.02450132  0.77933589  1
  O  O212  1  0.85544138  0.52877452  0.23117241  1
  O  O213  1  0.91175247  0.52760079  0.78690371  1
  O  O214  1  0.07665322  0.38518973  0.37552215  1
  O  O215  1  0.11881466  0.37549387  0.81263728  1
  O  O216  1  0.08925916  0.88932070  0.40232530  1
  O  O217  1  0.17157275  0.86115585  0.85425702  1
  O  O218  1  0.67137322  0.39389822  0.39663968  1
  O  O219  1  0.60391033  0.39854183  0.84231778  1
  O  O220  1  0.63204715  0.86373265  0.36411967  1
  O  O221  1  0.58429283  0.82695023  0.84287626  1
  O  O222  1  0.35938613  0.12650507  0.20628695  1
  O  O223  1  0.40971099  0.13641628  0.62181473  1
  O  O224  1  0.41554555  0.55249324  0.17328868  1
  O  O225  1  0.32314956  0.56985849  0.69029186  1
  O  O226  1  0.84573146  0.12196057  0.11385267  1
  O  O227  1  0.86555507  0.10750604  0.65475951  1
  O  O228  1  0.87436914  0.63455597  0.11264224  1
  O  O229  1  0.94881824  0.71521067  0.63945027  1
  O  O230  1  0.16959983  0.14766705  0.01451672  1
  O  O231  1  0.16392454  0.22153490  0.45396185  1
  O  O232  1  0.28428418  0.76790534  0.13703238  1
  O  O233  1  0.32428334  0.76812167  0.65581774  1
  O  O234  1  0.73304515  0.28140040  0.10650210  1
  O  O235  1  0.71626918  0.26674515  0.63371619  1
  O  O236  1  0.73800842  0.74617643  0.08392332  1
  O  O237  1  0.78850791  0.72844018  0.65873992  1
  O  O238  1  0.24984023  0.23559940  0.30783361  1
  O  O239  1  0.27380072  0.27950268  0.89767323  1
  O  O240  1  0.26693856  0.72700658  0.50354847  1
  O  O241  1  0.25530934  0.71050294  0.93412177  1
  O  O242  1  0.77913285  0.29792650  0.45361886  1
  O  O243  1  0.75392383  0.31497316  0.89836041  1
  O  O244  1  0.74366312  0.74735930  0.35080338  1
  O  O245  1  0.71814228  0.70812480  0.87588156  1
  O  O246  1  -0.02224058  0.15987120  0.03443616  1
  O  O247  1  -0.03920607  0.10726860  0.52259537  1
  O  O248  1  0.05747545  0.67939434  -0.07773386  1
  O  O249  1  -0.00189913  0.65625051  0.49018892  1
  O  O250  1  0.39740872  0.07607397  0.02107141  1
  O  O251  1  0.52787097  0.12885843  0.48692530  1
  O  O252  1  0.55567087  0.55136364  0.00211982  1
  O  O253  1  0.54215399  0.62651840  0.49640898  1
  O  O254  1  0.56922944  0.41000547  0.52511928  1
  O  O255  1  0.42175370  0.33239291  0.96480563  1
  O  O256  1  0.53040433  0.90906522  0.47899183  1
  O  O257  1  0.58069336  0.98782952  1.01643359  1
  O  O258  1  0.97632800  0.40399910  0.49185608  1
  O  O259  1  0.99731861  0.35609582  1.07136662  1
  O  O260  1  0.96562662  0.89077687  0.49135276  1
  O  O261  1  1.10054421  0.85028672  0.88816311  1
  O  O262  1  0.53100564  0.48480398  0.40348852  1
  O  O263  1  0.39202324  0.51750396  0.94652843  1
  O  O264  1  0.52653512  1.00676376  0.37783844  1
  O  O265  1  0.51120707  1.07023177  0.91930405  1
  O  O266  1  0.96212250  0.50324120  0.37051619  1
  O  O267  1  1.02139441  0.45891164  0.87750930  1
  O  O268  1  0.97142878  0.99130251  0.36444599  1
  O  O269  1  1.00970077  1.03496276  0.85785325  1
  O  O270  1  -0.01120249  0.07073614  0.18247252  1
  O  O271  1  0.08993432  -0.03507504  0.60118440  1
  O  O272  1  0.03058908  0.66106763  0.06296622  1
  O  O273  1  -0.04267346  0.56476179  0.61011450  1
  O  O274  1  0.47474160  -0.00748570  0.10624893  1
  O  O275  1  0.51173898  0.03074373  0.60092102  1
  O  O276  1  0.52020690  0.51050149  0.05994819  1
  O  O277  1  0.53242118  0.52493119  0.62769608  1
  O  O278  1  0.24005859  0.43674560  0.32986197  1
  O  O279  1  0.23921495  0.38187009  0.71025708  1
  O  O280  1  0.33322825  0.92567856  0.19117444  1
  O  O281  1  0.25996506  0.75174123  0.67572305  1
  O  O282  1  0.75073927  0.40889553  0.23613714  1
  O  O283  1  0.73525521  0.38501676  0.75069375  1
  O  O284  1  0.73388538  0.87990336  0.23270775  1
  O  O285  1  0.69129431  0.94150293  0.82279850  1
  O  O286  1  0.22656028  0.17763373  0.27756425  1
  O  O287  1  0.31411027  0.15150718  0.77587606  1
  O  O288  1  0.28682820  0.59123581  0.26236172  1
  O  O289  1  0.17319814  0.58110803  0.81414796  1
  O  O290  1  0.72949209  0.10147779  0.21839559  1
  O  O291  1  0.74984679  0.13455661  0.76519836  1
  O  O292  1  0.76003558  0.63431729  0.23563711  1
  O  O293  1  0.75640727  0.60425582  0.77526217  1
  O  O294  1  0.31103708  0.08043376  0.38235066  1
  O  O295  1  0.30776537  0.00861725  0.88352313  1
  O  O296  1  0.45779183  0.60758259  0.34926569  1
  O  O297  1  0.35943261  0.50986089  1.00879842  1
  O  O298  1  0.84010407  0.08970097  0.39336222  1
  O  O299  1  0.88581477  0.13244290  0.86266790  1
  O  O300  1  0.85836996  0.62885625  0.36906986  1
  O  O301  1  0.92659396  0.58044786  0.92827384  1
  O  O302  1  0.18252682  0.36252863  0.08034816  1
  O  O303  1  0.11086241  0.38898747  0.60323153  1
  O  O304  1  0.18894892  0.88340226  0.16836490  1
  O  O305  1  0.21403711  0.91986347  0.64939624  1
  O  O306  1  0.62611655  0.38990571  0.14954011  1
  O  O307  1  0.57329151  0.36708550  0.68093606  1
  O  O308  1  0.61372087  0.87275326  0.13501901  1
  O  O309  1  0.61874337  0.90532731  0.60820490  1
  O  O310  1  0.10196888  0.23131509  0.20032156  1
  O  O311  1  0.14475227  0.26882031  0.69879191  1
  O  O312  1  0.04229369  0.76262236  0.19842166  1
  O  O313  1  0.10623733  0.71240312  0.72715275  1
  O  O314  1  0.57283031  0.21742394  0.25959030  1
  O  O315  1  0.63691682  0.25755052  0.77822263  1
  O  O316  1  0.62853972  0.76799629  0.25042076  1
  O  O317  1  0.61131509  0.68700445  0.76759007  1
  O  O318  1  0.40226864  0.31225081  0.28120234  1
  O  O319  1  0.29224320  0.21229565  0.74433148  1
  O  O320  1  0.40057733  0.69296841  0.22331226  1
  O  O321  1  0.34753970  0.65038180  0.79124936  1
  O  O322  1  0.82787455  0.26449417  0.29619051  1
  O  O323  1  0.86255745  0.23342834  0.75232952  1
  O  O324  1  0.87418771  0.74760080  0.23684726  1
  O  O325  1  0.87695769  0.80883489  0.76105980  1
  O  O326  1  0.43579469  0.52257462  0.51635249  1
  O  O327  1  0.38481256  0.33098087  1.02495829  1
  O  O328  1  0.41471278  1.01640093  0.48869345  1
  O  O329  1  0.44679802  0.95741825  0.96228021  1
  O  O330  1  0.82754791  0.50258041  0.47642487  1
  O  O331  1  0.88246876  0.44881196  0.97895508  1
  O  O332  1  0.83353086  0.97896379  0.49855632  1
  O  O333  1  0.88327533  1.02486064  0.97145879  1
  O  O334  1  0.17629273  0.11910272  -0.14289552  1
  O  O335  1  0.17118350  0.01153945  0.51491670  1
  O  O336  1  0.15148719  0.41494906  0.04531547  1
  O  O337  1  0.12546731  0.49064875  0.49024314  1
  O  O338  1  0.52643186  0.12026757  0.05207071  1
  O  O339  1  0.62894009  0.02946843  0.51639443  1
  O  O340  1  0.50156407  0.44377863  0.04158094  1
  O  O341  1  0.64855796  0.53754075  0.51440737  1
  O  O342  1  0.25746670  0.23236089  0.12406072  1
  O  O343  1  0.37869404  0.38926581  0.59568164  1
  O  O344  1  0.41630187  0.82974674  0.11731239  1
  O  O345  1  0.39367694  0.90913465  0.62712041  1
  O  O346  1  0.84924545  0.38554313  0.12066556  1
  O  O347  1  0.92298617  0.38627439  0.65974278  1
  O  O348  1  0.94473293  0.87502154  0.05763782  1
  O  O349  1  0.86237690  0.86108198  0.61023409  1
  O  O350  1  0.14233351  0.06239696  0.35868693  1
  O  O351  1  0.13166285  0.16639001  0.82952613  1
  O  O352  1  0.15260010  0.66413016  0.43021625  1
  O  O353  1  0.09033310  0.63291000  0.96377771  1
  O  O354  1  0.65257255  0.12970253  0.39735671  1
  O  O355  1  0.65187865  0.06140021  0.85401221  1
  O  O356  1  0.63990717  0.64964389  0.35669778  1
  O  O357  1  0.63789045  0.57615117  0.88761201  1
