# generated using pymatgen
data_V51Zn51O256
_symmetry_space_group_name_H-M   'P 1'
_cell_length_a   17.07141658
_cell_length_b   17.25258794
_cell_length_c   17.20679999
_cell_angle_alpha   90.02452062
_cell_angle_beta   89.60113190
_cell_angle_gamma   90.29819914
_symmetry_Int_Tables_number   1
_chemical_formula_structural   V51Zn51O256
_chemical_formula_sum   'V51 Zn51 O256'
_cell_volume   5067.66013845
_cell_formula_units_Z   1
loop_
 _symmetry_equiv_pos_site_id
 _symmetry_equiv_pos_as_xyz
  1  'x, y, z'
loop_
 _atom_site_type_symbol
 _atom_site_label
 _atom_site_symmetry_multiplicity
 _atom_site_fract_x
 _atom_site_fract_y
 _atom_site_fract_z
 _atom_site_occupancy
  V  V0  1  0.08683642  0.23764155  0.92665625  1
  V  V1  1  0.53908448  0.36456954  0.36503311  1
  V  V2  1  0.78127897  0.23549482  0.51214374  1
  V  V3  1  0.77463730  0.52047772  0.74580365  1
  V  V4  1  -0.00532665  0.26096929  0.76887284  1
  V  V5  1  0.14552364  -0.00074477  0.10379461  1
  V  V6  1  0.52632666  0.11067064  0.60628154  1
  V  V7  1  0.28037304  0.88585432  0.15719911  1
  V  V8  1  0.02184071  0.36209266  0.40119474  1
  V  V9  1  0.24410118  0.13838471  0.39696974  1
  V  V10  1  0.27188747  0.40621655  0.14694360  1
  V  V11  1  0.15442581  0.50355506  0.62293861  1
  V  V12  1  0.48847921  0.61478967  0.63190271  1
  V  V13  1  -0.00089802  0.53903974  0.00758727  1
  V  V14  1  0.50959145  0.13539289  0.10738960  1
  V  V15  1  0.73219411  -0.01313237  0.74005669  1
  V  V16  1  0.74702211  0.10660232  0.89114879  1
  V  V17  1  0.59122207  0.49381242  0.08706511  1
  V  V18  1  0.53114912  0.23124962  0.74732942  1
  V  V19  1  0.24983580  0.64554447  0.88786808  1
  V  V20  1  0.51509660  0.25131297  0.24581440  1
  V  V21  1  -0.00058529  0.50295305  0.52558118  1
  V  V22  1  0.41124511  0.26773019  0.61852080  1
  V  V23  1  0.06307128  0.17037147  0.46654540  1
  V  V24  1  0.23142313  0.35079383  0.61996564  1
  V  V25  1  0.88596434  0.49952105  0.36762061  1
  V  V26  1  0.03060884  0.75708310  0.74449632  1
  V  V27  1  0.36723946  0.47031727  0.37287708  1
  V  V28  1  0.85454423  0.11650357  0.25339180  1
  V  V29  1  0.37689946  -0.01619433  0.86574757  1
  V  V30  1  0.24167716  0.02143506  0.75454604  1
  V  V31  1  0.89637059  0.09559724  0.75828351  1
  V  V32  1  0.75579244  0.30398161  -0.00559597  1
  V  V33  1  0.63723846  0.25977541  0.88234705  1
  V  V34  1  0.61649633  0.89006055  0.24752357  1
  V  V35  1  0.49917367  0.91057511  0.39158791  1
  V  V36  1  0.26132262  0.14782861  0.91140551  1
  V  V37  1  0.37238910  0.13555468  0.25218872  1
  V  V38  1  0.12888220  0.38992682  0.79981537  1
  V  V39  1  0.89722151  0.85235319  0.00448955  1
  V  V40  1  0.38205365  0.27153732  0.11229137  1
  V  V41  1  0.76915481  0.65482952  0.85521721  1
  V  V42  1  0.60548438  0.63696472  -0.04032921  1
  V  V43  1  0.75023114  0.74718851  0.01945341  1
  V  V44  1  0.23740897  0.59815837  0.36276407  1
  V  V45  1  0.51228547  0.46948465  0.50780093  1
  V  V46  1  0.61977808  0.68163827  0.34661863  1
  V  V47  1  0.50760492  0.75778040  0.73583421  1
  V  V48  1  0.26735080  0.74724437  0.49478722  1
  V  V49  1  0.48075233  0.61979162  0.12442316  1
  V  V50  1  0.39149682  0.76126269  0.13988787  1
  Zn  Zn51  1  0.57872391  0.28458800  0.53844816  1
  Zn  Zn52  1  0.68534541  0.21015227  0.15903550  1
  Zn  Zn53  1  0.44474648  0.18990146  0.43315724  1
  Zn  Zn54  1  0.82602068  0.04559561  0.57957226  1
  Zn  Zn55  1  0.97906173  0.41869207  0.21597600  1
  Zn  Zn56  1  0.37071883  0.05903095  0.05373369  1
  Zn  Zn57  1  0.46071715  0.81517578  0.57074257  1
  Zn  Zn58  1  0.27632548  0.59188469  0.09255015  1
  Zn  Zn59  1  0.84887950  0.81720795  0.80635936  1
  Zn  Zn60  1  0.46216789  0.95566830  0.71700342  1
  Zn  Zn61  1  0.96212662  0.45184347  0.71409535  1
  Zn  Zn62  1  0.87119092  0.24285991  0.88198315  1
  Zn  Zn63  1  0.36990757  0.46512740  0.60344294  1
  Zn  Zn64  1  0.08860981  0.10217294  0.82049446  1
  Zn  Zn65  1  0.58627947  0.57832384  0.77346866  1
  Zn  Zn66  1  0.23710844  0.15717612  0.11471935  1
  Zn  Zn67  1  0.43909422  0.72953899  0.92285801  1
  Zn  Zn68  1  0.46141923  0.96108451  0.19302222  1
  Zn  Zn69  1  0.26182670  0.84003137  0.79894712  1
  Zn  Zn70  1  0.19748232  0.45807794  0.97764941  1
  Zn  Zn71  1  0.02821548  0.33690079  0.60530115  1
  Zn  Zn72  1  0.82521142  0.06166541  0.05858588  1
  Zn  Zn73  1  1.03141209  0.59730373  0.38078198  1
  Zn  Zn74  1  0.59465331  0.78139897  0.08891518  1
  Zn  Zn75  1  0.66796120  0.64984582  0.17014473  1
  Zn  Zn76  1  0.20906705  0.24007424  0.76294363  1
  Zn  Zn77  1  0.87241535  0.30507664  0.34059830  1
  Zn  Zn78  1  0.19620837  0.42435166  0.44977581  1
  Zn  Zn79  1  0.08081733  0.57746261  0.81910837  1
  Zn  Zn80  1  0.64750210  0.02602831  0.35731072  1
  Zn  Zn81  1  0.66813262  0.67591573  0.68427832  1
  Zn  Zn82  1  0.16396840  0.44745861  0.28361860  1
  Zn  Zn83  1  0.32211896  0.97298912  0.32460106  1
  Zn  Zn84  1  0.66500460  0.45920875  0.88923313  1
  Zn  Zn85  1  0.75696179  0.89917588  0.89828219  1
  Zn  Zn86  1  0.67731104  0.49468526  0.40079649  1
  Zn  Zn87  1  0.93221839  0.93245282  0.18707657  1
  Zn  Zn88  1  0.17114480  0.96596853  0.90985369  1
  Zn  Zn89  1  0.20583475  0.70864810  0.20514525  1
  Zn  Zn90  1  0.83701057  0.42541984  0.58750259  1
  Zn  Zn91  1  0.30237793  0.30038833  0.29979437  1
  Zn  Zn92  1  -0.04117674  0.33116452  0.03622513  1
  Zn  Zn93  1  0.70970930  0.84136207  0.38075264  1
  Zn  Zn94  1  0.22792222  0.68999735  0.68503582  1
  Zn  Zn95  1  0.25650124  0.15209973  0.60171781  1
  Zn  Zn96  1  0.53318647  0.51485381  0.27705743  1
  Zn  Zn97  1  0.41758395  0.63894945  0.45869327  1
  Zn  Zn98  1  0.56821628  0.06457428  0.81334429  1
  Zn  Zn99  1  0.44752839  0.21154703  0.93358493  1
  Zn  Zn100  1  0.69509376  0.15822546  0.69301795  1
  Zn  Zn101  1  0.78047704  0.52079356  -0.01582160  1
  O  O102  1  0.14226341  0.09636907  0.11760766  1
  O  O103  1  0.11490710  0.15951932  0.56483875  1
  O  O104  1  0.18051509  0.63936395  0.12460473  1
  O  O105  1  0.18041721  0.59526717  0.64972834  1
  O  O106  1  0.60874699  0.13649509  0.12238807  1
  O  O107  1  0.62638517  0.10534393  0.61637754  1
  O  O108  1  0.59186861  0.62160204  0.08935401  1
  O  O109  1  0.59092774  0.59230327  0.65412006  1
  O  O110  1  0.34909991  0.37163230  0.37596919  1
  O  O111  1  0.38212872  0.40503961  0.93076926  1
  O  O112  1  0.39786171  0.92252833  0.38540954  1
  O  O113  1  0.35021528  0.88888934  0.85797530  1
  O  O114  1  0.89776990  0.38443936  0.41302054  1
  O  O115  1  0.84728267  0.37858804  0.81930904  1
  O  O116  1  0.90299982  0.85841815  0.32586751  1
  O  O117  1  0.87477955  0.87101851  0.90529743  1
  O  O118  1  0.24765561  0.04502780  0.35927319  1
  O  O119  1  0.26941771  0.02888458  0.88046195  1
  O  O120  1  0.24883308  0.48438317  0.36218368  1
  O  O121  1  0.23576264  0.54116016  0.89552296  1
  O  O122  1  0.72020690  -0.04743628  0.39579758  1
  O  O123  1  0.73583027  0.00835844  0.88520495  1
  O  O124  1  0.78716591  0.49500274  0.39144625  1
  O  O125  1  0.76529289  0.53442506  0.86998555  1
  O  O126  1  0.26936103  0.50376258  0.16726277  1
  O  O127  1  0.25368198  0.46037529  0.63798521  1
  O  O128  1  0.25364483  0.98073887  0.11448112  1
  O  O129  1  0.22508019  1.06994129  0.66977574  1
  O  O130  1  0.72327859  0.52415195  0.08862265  1
  O  O131  1  0.76450073  0.48321591  0.65365173  1
  O  O132  1  0.72075418  0.98234097  0.09237140  1
  O  O133  1  0.75465590  0.98220242  0.64343280  1
  O  O134  1  -0.02165197  0.34129297  0.30495188  1
  O  O135  1  0.01882005  0.37223530  0.77651448  1
  O  O136  1  -0.03466357  0.86484497  0.27012538  1
  O  O137  1  0.06136580  0.85183755  0.75093359  1
  O  O138  1  0.50552087  0.36046177  0.26562093  1
  O  O139  1  0.66542979  0.37217056  0.67957263  1
  O  O140  1  0.50196943  0.89940961  0.27591212  1
  O  O141  1  0.46804721  0.84710470  0.68467022  1
  O  O142  1  0.49007983  0.14718691  0.24146239  1
  O  O143  1  0.51082473  0.13323088  0.73038263  1
  O  O144  1  0.49066329  0.60593922  0.21967321  1
  O  O145  1  0.49555999  0.65043858  0.74972319  1
  O  O146  1  0.95294230  0.11790103  0.27697451  1
  O  O147  1  0.99332995  0.14076610  0.77686717  1
  O  O148  1  1.06224141  0.72759608  0.27112544  1
  O  O149  1  1.02998697  0.65138083  0.75428921  1
  O  O150  1  0.40287433  0.27572122  0.01519323  1
  O  O151  1  0.41280096  0.26282224  0.51944857  1
  O  O152  1  0.39676286  0.77689024  0.01208642  1
  O  O153  1  0.36804309  0.73615107  0.49918242  1
  O  O154  1  0.86062287  0.29002718  -0.01156425  1
  O  O155  1  0.88077902  0.23762622  0.53208823  1
  O  O156  1  0.85602895  0.75474446  0.02315065  1
  O  O157  1  0.93352947  0.74169350  0.50385281  1
  O  O158  1  0.10407398  0.23612189  0.54546686  1
  O  O159  1  0.05990604  0.28307774  1.01226296  1
  O  O160  1  0.06820455  0.84719392  0.49849117  1
  O  O161  1  0.17356741  0.83442289  1.04199117  1
  O  O162  1  0.67683343  0.24562033  0.49657293  1
  O  O163  1  0.63567239  0.26476434  0.97973984  1
  O  O164  1  0.55597389  0.71509705  0.43184792  1
  O  O165  1  0.63008398  0.73522997  0.99167171  1
  O  O166  1  0.49622490  0.25107322  0.13701329  1
  O  O167  1  0.52396970  0.22804531  0.62033386  1
  O  O168  1  0.49353706  0.73056562  0.10585309  1
  O  O169  1  0.47202282  0.71633784  0.62543557  1
  O  O170  1  0.92841498  0.36623851  0.13522416  1
  O  O171  1  1.02962208  0.25057681  0.67639627  1
  O  O172  1  0.91754693  0.72405108  0.18891817  1
  O  O173  1  1.01199884  0.76344943  0.64496928  1
  O  O174  1  0.02029787  0.25995288  0.42456292  1
  O  O175  1  -0.01303711  0.25514388  0.88531250  1
  O  O176  1  0.02335177  0.71469042  0.33559905  1
  O  O177  1  0.00716776  0.76561104  0.84652290  1
  O  O178  1  0.51348225  0.25749367  0.36355103  1
  O  O179  1  0.52711472  0.23317151  0.85483605  1
  O  O180  1  0.50236007  0.68438810  0.37956726  1
  O  O181  1  0.48253655  0.77772313  0.83107028  1
  O  O182  1  0.27091005  0.14152107  0.49275614  1
  O  O183  1  0.27391769  0.11415198  1.00939524  1
  O  O184  1  0.22336378  0.67543250  0.43788035  1
  O  O185  1  0.25742104  0.65440535  0.98959748  1
  O  O186  1  0.78325912  0.13234644  0.50700774  1
  O  O187  1  0.75985223  0.11769678  0.99054263  1
  O  O188  1  0.73704489  0.63570352  0.52803697  1
  O  O189  1  0.75136255  0.65190494  0.96848198  1
  O  O190  1  0.20929203  0.39130533  0.06755086  1
  O  O191  1  0.23124499  0.34549876  0.52177221  1
  O  O192  1  0.24001933  0.85657090  0.01291273  1
  O  O193  1  0.23534221  0.84564813  0.44463998  1
  O  O194  1  0.74727098  0.40265891  -0.02282044  1
  O  O195  1  0.78415927  0.33785972  0.53112805  1
  O  O196  1  0.73423350  0.84352179  -0.00827749  1
  O  O197  1  0.78699145  0.83958520  0.49104250  1
  O  O198  1  0.07800479  0.46544083  0.21804803  1
  O  O199  1  0.12022134  0.49006059  0.76544106  1
  O  O200  1  0.09517914  0.96603093  0.20164385  1
  O  O201  1  0.13922418  1.00609486  0.80645982  1
  O  O202  1  0.60221680  0.49077640  0.18760068  1
  O  O203  1  0.66275472  0.49585546  0.77924780  1
  O  O204  1  0.63280908  0.98900613  0.25070234  1
  O  O205  1  0.63278548  0.99029529  0.75147608  1
  O  O206  1  0.38636822  0.03207857  0.24671504  1
  O  O207  1  0.34970918  0.02423606  0.76508445  1
  O  O208  1  0.39257308  0.49122604  0.28200599  1
  O  O209  1  0.39272026  0.44359544  0.79136850  1
  O  O210  1  0.85967303  0.01490300  0.22463010  1
  O  O211  1  0.90796706  0.00455736  0.78004619  1
  O  O212  1  0.89748002  0.48005047  0.27068487  1
  O  O213  1  0.87563091  0.51482690  0.75209837  1
  O  O214  1  0.11864049  0.38270018  0.37421496  1
  O  O215  1  0.14678695  0.39946047  0.89759013  1
  O  O216  1  0.05192329  0.96922839  0.36741826  1
  O  O217  1  0.17584214  0.86551173  0.86403023  1
  O  O218  1  0.63478032  0.38902938  0.35691771  1
  O  O219  1  0.62918768  0.35482487  0.85779013  1
  O  O220  1  0.59217043  0.85192804  0.35404570  1
  O  O221  1  0.56741360  0.90002228  0.92036796  1
  O  O222  1  0.38910030  0.15115517  0.12613876  1
  O  O223  1  0.36452243  0.18640933  0.64541395  1
  O  O224  1  0.37468833  0.65010101  0.11516198  1
  O  O225  1  0.40586936  0.56186881  0.65482661  1
  O  O226  1  0.86944141  0.12265269  0.14463173  1
  O  O227  1  0.88870908  0.09556758  0.65639482  1
  O  O228  1  0.76303231  0.51585285  0.16036537  1
  O  O229  1  0.87867777  0.70701918  0.53455456  1
  O  O230  1  0.28027665  0.25924401  0.11550026  1
  O  O231  1  0.22199093  0.25165562  0.65065113  1
  O  O232  1  0.27973186  0.77758286  0.14657993  1
  O  O233  1  0.22702063  0.74437395  0.58362391  1
  O  O234  1  0.74014113  0.27641368  0.08880895  1
  O  O235  1  0.75541749  0.22194443  0.61334713  1
  O  O236  1  0.72347799  0.73612006  0.11536332  1
  O  O237  1  0.71631035  0.69448899  0.56420326  1
  O  O238  1  0.23535132  0.22933841  0.35496064  1
  O  O239  1  0.20285333  0.23042225  0.93255771  1
  O  O240  1  0.07663439  0.79522421  0.45089765  1
  O  O241  1  0.23847053  0.74449236  0.87466230  1
  O  O242  1  0.79639910  0.24880833  0.41055864  1
  O  O243  1  0.74830663  0.25126278  0.89198711  1
  O  O244  1  0.70135726  0.72766221  0.38544563  1
  O  O245  1  0.75890422  0.75435729  0.84388582  1
  O  O246  1  -0.06335295  0.08718630  -0.01140264  1
  O  O247  1  -0.00798371  0.10739016  0.48053697  1
  O  O248  1  0.00474160  0.63857244  0.01012307  1
  O  O249  1  0.02702065  0.59363000  0.49679324  1
  O  O250  1  0.50050827  0.14700843  0.00891281  1
  O  O251  1  0.50374127  0.12644265  0.50971769  1
  O  O252  1  0.50664046  0.64170482  -0.04848240  1
  O  O253  1  0.49323308  0.59080120  0.52795985  1
  O  O254  1  0.53007794  0.36257050  0.47598521  1
  O  O255  1  0.43472206  0.45000840  0.94731759  1
  O  O256  1  0.50218555  0.86260576  0.48250801  1
  O  O257  1  0.54551519  0.91721255  0.98603215  1
  O  O258  1  1.02927956  0.39306127  0.50775716  1
  O  O259  1  0.97402349  0.43520756  0.99003508  1
  O  O260  1  0.92430132  0.84971810  0.39535362  1
  O  O261  1  0.99108600  0.84640427  1.01522960  1
  O  O262  1  0.49516357  0.46486981  0.37754144  1
  O  O263  1  0.44413273  0.49051395  0.80788882  1
  O  O264  1  0.54362256  0.99893077  0.40248424  1
  O  O265  1  0.47986240  0.99135040  0.82528691  1
  O  O266  1  0.99643141  0.47768605  0.40430876  1
  O  O267  1  1.01239453  0.54698411  0.90093334  1
  O  O268  1  1.00447801  0.96157266  0.42024702  1
  O  O269  1  0.96020598  1.03264772  0.94829685  1
  O  O270  1  0.03471077  -0.02332977  0.14923549  1
  O  O271  1  -0.03415243  -0.05899419  0.58328416  1
  O  O272  1  -0.00111834  0.53490224  0.10868107  1
  O  O273  1  0.03695967  0.50346926  0.62659949  1
  O  O274  1  0.47923781  0.03378374  0.11083302  1
  O  O275  1  0.48422598  0.02201286  0.62941615  1
  O  O276  1  0.48432740  0.52607722  0.08161533  1
  O  O277  1  0.49947608  0.44612631  0.60228762  1
  O  O278  1  0.23290199  0.36648372  0.23379386  1
  O  O279  1  0.21944913  0.35750075  0.76494028  1
  O  O280  1  0.26665884  0.89842879  0.25240522  1
  O  O281  1  0.23909062  0.92529719  0.72642063  1
  O  O282  1  0.78839277  0.36901212  0.27832083  1
  O  O283  1  0.78113532  0.39828473  0.79721288  1
  O  O284  1  0.71006941  0.85308452  0.26318270  1
  O  O285  1  0.77264005  0.90086395  0.78044622  1
  O  O286  1  0.27620015  0.13822565  0.22454365  1
  O  O287  1  0.20953845  0.13955810  0.81075224  1
  O  O288  1  0.26368111  0.64331853  0.28006132  1
  O  O289  1  0.26156326  0.62693318  0.78577105  1
  O  O290  1  0.75637176  0.14147168  0.21986060  1
  O  O291  1  0.76480216  0.09038753  0.75372114  1
  O  O292  1  0.75128912  0.57380832  0.20807740  1
  O  O293  1  0.75316567  0.62699551  0.74223684  1
  O  O294  1  0.36784557  0.14837222  0.35770101  1
  O  O295  1  0.35125975  0.17881623  0.88233747  1
  O  O296  1  0.33995059  0.58059851  0.40483120  1
  O  O297  1  0.35295305  0.64912040  0.89021700  1
  O  O298  1  0.81699980  0.08251727  0.33895020  1
  O  O299  1  0.84796379  0.13103176  0.85908451  1
  O  O300  1  0.91542991  0.59562333  0.37421884  1
  O  O301  1  0.86475051  0.64731092  0.85513996  1
  O  O302  1  0.04911322  0.23413001  0.16270222  1
  O  O303  1  0.13215967  0.38615462  0.63962804  1
  O  O304  1  0.16052163  0.86338727  0.11816032  1
  O  O305  1  0.20132223  0.90230093  0.47845817  1
  O  O306  1  0.58612743  0.40485148  0.05641290  1
  O  O307  1  0.63194764  0.37482782  0.61622216  1
  O  O308  1  0.59074283  0.86922524  0.15107974  1
  O  O309  1  0.63222291  0.91402486  0.57703464  1
  O  O310  1  0.08817588  0.25858924  0.21700535  1
  O  O311  1  0.10684558  0.26743221  0.81776032  1
  O  O312  1  0.13277475  0.76346451  0.27935465  1
  O  O313  1  0.13178692  0.73429613  0.73888080  1
  O  O314  1  0.61459276  0.24917652  0.23811713  1
  O  O315  1  0.63475641  0.24114240  0.74378208  1
  O  O316  1  0.61677442  0.71132766  0.25096115  1
  O  O317  1  0.60766834  0.76305000  0.72038915  1
  O  O318  1  0.38626898  0.25152318  0.23746574  1
  O  O319  1  0.46294562  0.30059759  0.72190952  1
  O  O320  1  0.41029920  0.75600641  0.23156067  1
  O  O321  1  0.29974236  0.76229923  0.73033605  1
  O  O322  1  0.86394386  0.21796051  0.27157011  1
  O  O323  1  0.89358886  0.25616874  0.76428205  1
  O  O324  1  0.89252463  0.66858665  0.22652780  1
  O  O325  1  0.92187114  0.76384674  0.74037286  1
  O  O326  1  0.40163121  0.47175868  0.48777280  1
  O  O327  1  0.28943147  0.50499971  1.02133241  1
  O  O328  1  0.32201735  0.95854955  0.54993526  1
  O  O329  1  0.39946029  1.00626061  0.96071567  1
  O  O330  1  0.89938085  0.50468286  0.53208070  1
  O  O331  1  0.89268623  0.54123813  1.00335348  1
  O  O332  1  0.83397370  0.96426494  0.49455563  1
  O  O333  1  0.87258267  0.95647960  1.04679438  1
  O  O334  1  0.12515959  -0.01924097  0.00872416  1
  O  O335  1  0.02804696  -0.02392019  0.59012556  1
  O  O336  1  0.09961631  0.51380860  0.01067108  1
  O  O337  1  0.15637208  0.50323403  0.52292929  1
  O  O338  1  0.65284163  -0.00073577  0.07545071  1
  O  O339  1  0.63438976  -0.03756494  0.52574994  1
  O  O340  1  0.62844410  0.53150622  -0.02255183  1
  O  O341  1  0.60980018  0.49582925  0.49204051  1
  O  O342  1  0.37159459  0.37636685  0.13281977  1
  O  O343  1  0.34628830  0.35159178  0.63281530  1
  O  O344  1  0.38352678  0.88001146  0.13879833  1
  O  O345  1  0.33179499  0.89633981  0.58337517  1
  O  O346  1  0.74234803  0.34802721  0.22648584  1
  O  O347  1  0.92308874  0.37755760  0.63878315  1
  O  O348  1  0.85946301  0.89679734  0.10565425  1
  O  O349  1  0.81833167  0.89433702  0.53113831  1
  O  O350  1  0.13186908  0.12880937  0.40556063  1
  O  O351  1  0.08039849  0.13924725  0.93231735  1
  O  O352  1  0.13712580  0.57937603  0.34772382  1
  O  O353  1  0.14146507  0.64627279  0.88699061  1
  O  O354  1  0.66439098  0.13028275  0.36686354  1
  O  O355  1  0.64738727  0.13589639  0.86500677  1
  O  O356  1  0.62815811  0.57981016  0.34118775  1
  O  O357  1  0.63675947  0.63868652  0.86184722  1
