# generated using pymatgen
data_V51Zn51O256
_symmetry_space_group_name_H-M   'P 1'
_cell_length_a   17.72592723
_cell_length_b   17.77495214
_cell_length_c   17.79749535
_cell_angle_alpha   91.09823542
_cell_angle_beta   90.82121113
_cell_angle_gamma   89.02350982
_symmetry_Int_Tables_number   1
_chemical_formula_structural   V51Zn51O256
_chemical_formula_sum   'V51 Zn51 O256'
_cell_volume   5605.19596107
_cell_formula_units_Z   1
loop_
 _symmetry_equiv_pos_site_id
 _symmetry_equiv_pos_as_xyz
  1  'x, y, z'
loop_
 _atom_site_type_symbol
 _atom_site_label
 _atom_site_symmetry_multiplicity
 _atom_site_fract_x
 _atom_site_fract_y
 _atom_site_fract_z
 _atom_site_occupancy
  V  V0  1  0.50151214  0.48181093  0.52652989  1
  V  V1  1  0.84004461  0.39223662  0.50491696  1
  V  V2  1  0.71624581  0.10185581  0.37037575  1
  V  V3  1  0.40521085  0.48268965  0.37667811  1
  V  V4  1  0.24167797  0.56146160  0.34267888  1
  V  V5  1  0.21786500  0.66210628  0.51512740  1
  V  V6  1  0.79477830  0.27162296  0.64249545  1
  V  V7  1  0.13501576  0.30674762  0.87370254  1
  V  V8  1  0.39065589  0.36485704  0.50429664  1
  V  V9  1  0.22801237  0.88065416  0.15429674  1
  V  V10  1  0.78102607  0.50371654  0.79172719  1
  V  V11  1  0.58453117  0.11956993  0.01356588  1
  V  V12  1  0.05538484  0.03976521  0.69744361  1
  V  V13  1  0.71837593  0.25721845  0.49041498  1
  V  V14  1  0.14592456  0.79624016  0.47631535  1
  V  V15  1  0.82361424  0.36565656  -0.02664762  1
  V  V16  1  0.81963274  0.90977422  0.63968899  1
  V  V17  1  0.62332889  -0.03571013  0.11662083  1
  V  V18  1  0.49008719  0.36479382  0.85817878  1
  V  V19  1  0.65902149  0.34084197  0.25367135  1
  V  V20  1  0.07476877  0.41624191  0.74586417  1
  V  V21  1  0.76299774  0.02122786  0.23127145  1
  V  V22  1  0.40338260  0.95254233  0.44895315  1
  V  V23  1  0.65917657  0.81178698  0.37335489  1
  V  V24  1  0.31394665  0.39641341  0.13479172  1
  V  V25  1  0.78700561  0.14919010  0.89631006  1
  V  V26  1  0.64067841  -0.02151898  0.62873920  1
  V  V27  1  -0.03378103  0.72154944  0.78566177  1
  V  V28  1  0.55686086  0.12112579  0.66698162  1
  V  V29  1  0.49830915  0.53012410  -0.04760182  1
  V  V30  1  -0.03509933  0.45501118  -0.02263938  1
  V  V31  1  0.09870543  0.13214464  -0.01052924  1
  V  V32  1  0.94904102  0.92404555  0.08437155  1
  V  V33  1  0.33617244  0.92277986  -0.02005009  1
  V  V34  1  0.88710779  0.87339138  0.44479908  1
  V  V35  1  -0.06465633  0.16879274  0.68055562  1
  V  V36  1  0.94850753  0.14540169  0.36031796  1
  V  V37  1  0.26156067  0.30433033  -0.00264031  1
  V  V38  1  0.05253220  0.61125017  0.02602982  1
  V  V39  1  0.27300440  0.73372125  0.06292970  1
  V  V40  1  0.50958918  0.61139146  0.11260434  1
  V  V41  1  0.46418296  0.08190952  0.79277884  1
  V  V42  1  0.87218612  0.75712442  0.57817791  1
  V  V43  1  0.03841505  0.36082079  0.24396235  1
  V  V44  1  0.25403148  0.60905953  0.84949135  1
  V  V45  1  0.24916720  0.48666280  0.69822472  1
  V  V46  1  0.61860778  0.44537124  0.08885137  1
  V  V47  1  0.74562505  0.70485061  -0.03429494  1
  V  V48  1  0.04795366  0.47090881  0.11763675  1
  V  V49  1  0.55184237  0.85203098  0.23455331  1
  V  V50  1  0.37480782  0.09484240  0.22054112  1
  Zn  Zn51  1  0.49276344  0.43715882  0.20124565  1
  Zn  Zn52  1  0.80185287  0.85322890  0.29455806  1
  Zn  Zn53  1  0.74860763  0.12902341  0.71558069  1
  Zn  Zn54  1  0.07877284  0.93929916  0.94784356  1
  Zn  Zn55  1  0.90766174  0.61610702  0.90547895  1
  Zn  Zn56  1  0.95057438  0.24861951  0.92650488  1
  Zn  Zn57  1  0.62707968  0.38456296  0.44256246  1
  Zn  Zn58  1  0.79673545  0.52736088  0.06008645  1
  Zn  Zn59  1  0.92118452  0.21473111  0.51444153  1
  Zn  Zn60  1  0.43403567  0.42788169  0.70294330  1
  Zn  Zn61  1  0.13552088  0.49287140  0.92181026  1
  Zn  Zn62  1  0.11506660  0.25039117  0.33282611  1
  Zn  Zn63  1  0.28077408  0.35994724  0.33804495  1
  Zn  Zn64  1  0.54724445  0.28235988  0.57085548  1
  Zn  Zn65  1  0.05879925  0.30282798  0.04378080  1
  Zn  Zn66  1  0.52724299  0.91717646  0.77156158  1
  Zn  Zn67  1  0.63526879  0.75286506  0.11741294  1
  Zn  Zn68  1  0.70441854  0.96647187  0.45823400  1
  Zn  Zn69  1  0.42047195  0.05779711  0.59248170  1
  Zn  Zn70  1  0.20556283  0.79824755  0.90624340  1
  Zn  Zn71  1  -0.04654153  0.36313962  0.66341347  1
  Zn  Zn72  1  0.92623530  0.96227807  0.26845283  1
  Zn  Zn73  1  0.05862830  0.12579465  0.82677143  1
  Zn  Zn74  1  0.77680566  0.88987118  1.01407394  1
  Zn  Zn75  1  0.09095355  0.79981870  0.05922866  1
  Zn  Zn76  1  0.30926106  0.49933492  -0.00363281  1
  Zn  Zn77  1  0.25163426  0.05515956  0.06592526  1
  Zn  Zn78  1  0.80368557  0.56358882  0.60033822  1
  Zn  Zn79  1  0.30911167  0.34539645  0.81081727  1
  Zn  Zn80  1  0.42885107  0.91825262  0.12925083  1
  Zn  Zn81  1  0.26867834  0.85355070  0.34167648  1
  Zn  Zn82  1  0.64734844  0.05223616  0.83978785  1
  Zn  Zn83  1  0.53691844  0.03457557  0.32072105  1
  Zn  Zn84  1  0.67768682  0.80223741  0.56682926  1
  Zn  Zn85  1  0.85830847  0.04393781  0.50169553  1
  Zn  Zn86  1  0.78643917  0.30574723  0.81545366  1
  Zn  Zn87  1  0.65773894  0.15602115  0.17786270  1
  Zn  Zn88  1  0.65229413  0.29229120  -0.04670462  1
  Zn  Zn89  1  0.31619005  0.59157812  0.16112495  1
  Zn  Zn90  1  0.19769323  0.30018134  0.20262233  1
  Zn  Zn91  1  0.85645158  0.32444292  0.31493165  1
  Zn  Zn92  1  0.65098076  0.44722229  0.90389436  1
  Zn  Zn93  1  0.35213236  0.67952794  0.37684395  1
  Zn  Zn94  1  1.00427380  0.90328880  0.57669217  1
  Zn  Zn95  1  0.06227531  0.56240458  0.27246245  1
  Zn  Zn96  1  0.83811574  0.06567270  0.05431655  1
  Zn  Zn97  1  0.41872263  0.19503847  0.94690219  1
  Zn  Zn98  1  0.39752731  0.66311989  0.94730291  1
  Zn  Zn99  1  0.33093352  0.52522667  0.57567959  1
  Zn  Zn100  1  0.09344046  0.22728132  0.70676005  1
  Zn  Zn101  1  0.58122613  0.51879602  0.77798756  1
  O  O102  1  0.02780391  0.11969712  0.16653032  1
  O  O103  1  0.10977822  0.11946390  0.68071355  1
  O  O104  1  0.08366882  0.56692265  0.11498512  1
  O  O105  1  0.14359710  0.64051751  0.59069097  1
  O  O106  1  0.61985857  0.07899740  0.10581918  1
  O  O107  1  0.65928843  0.07571665  0.66583694  1
  O  O108  1  0.73189249  0.51197289  0.26533466  1
  O  O109  1  0.68860064  0.61184161  0.60847484  1
  O  O110  1  0.37337786  0.36884276  0.40111194  1
  O  O111  1  0.41054610  0.35240697  0.78325990  1
  O  O112  1  0.33010105  0.95291802  0.37972957  1
  O  O113  1  0.29109281  0.86364359  0.91440477  1
  O  O114  1  0.87090133  0.38129215  0.41431979  1
  O  O115  1  0.80171251  0.41013026  0.78840753  1
  O  O116  1  0.90170838  0.87703619  0.34726167  1
  O  O117  1  0.86593199  0.87502723  1.07253990  1
  O  O118  1  0.21870639  0.27591994  0.31111035  1
  O  O119  1  0.33729682  0.00068462  0.66332747  1
  O  O120  1  0.28527628  0.47425272  0.36264412  1
  O  O121  1  0.24030746  0.53036951  0.91552656  1
  O  O122  1  0.78320846  0.02809403  0.33266241  1
  O  O123  1  0.79865101  -0.04495795  0.92534213  1
  O  O124  1  0.71870013  0.61349691  0.39756307  1
  O  O125  1  0.68361956  0.51394539  0.82469749  1
  O  O126  1  0.29713776  0.49234393  0.11036554  1
  O  O127  1  0.22786551  0.48607314  0.60450625  1
  O  O128  1  0.20941486  0.97032832  0.11559996  1
  O  O129  1  0.19832540  1.08098977  0.48666132  1
  O  O130  1  0.70575147  0.48221653  0.09579929  1
  O  O131  1  0.64896829  0.56151007  0.64348823  1
  O  O132  1  0.80520185  1.06336324  0.15689739  1
  O  O133  1  0.82932851  0.99270564  0.59300228  1
  O  O134  1  -0.05589344  0.34640669  0.24937192  1
  O  O135  1  -0.01747073  0.44345539  0.73717461  1
  O  O136  1  0.06149468  0.94031906  0.36174324  1
  O  O137  1  -0.00704443  0.81149023  0.80514129  1
  O  O138  1  0.51185064  0.25994652  0.12528146  1
  O  O139  1  0.51717598  0.43450107  0.77533677  1
  O  O140  1  0.46604560  0.83586328  0.19459075  1
  O  O141  1  0.48639536  0.81371986  0.77611597  1
  O  O142  1  0.47731333  0.08401538  0.23739633  1
  O  O143  1  0.56338085  0.10195664  0.78117374  1
  O  O144  1  0.68788832  0.56442151  0.25303480  1
  O  O145  1  0.48394529  0.72791605  0.64689396  1
  O  O146  1  1.03918176  0.18149469  0.36398561  1
  O  O147  1  0.99332140  0.18957183  0.76288534  1
  O  O148  1  1.01642501  0.66064513  0.27972655  1
  O  O149  1  0.95575171  0.61874710  0.80245263  1
  O  O150  1  0.32080506  0.22874132  -0.01062744  1
  O  O151  1  0.45824177  0.29229501  0.51056349  1
  O  O152  1  0.35542881  0.73787210  0.01064744  1
  O  O153  1  0.47113467  0.88993812  0.41751747  1
  O  O154  1  0.86606449  0.31700055  -0.10393064  1
  O  O155  1  0.83247967  0.27374526  0.52931050  1
  O  O156  1  0.84454975  0.68204541  -0.02030118  1
  O  O157  1  0.89898789  0.77887631  0.48424187  1
  O  O158  1  0.20824963  0.21728899  0.60751047  1
  O  O159  1  0.15446465  0.30011852  0.98239515  1
  O  O160  1  0.22499051  0.76082218  0.53615789  1
  O  O161  1  0.04132921  0.70438782  1.04417314  1
  O  O162  1  0.62006640  0.27392653  0.48747090  1
  O  O163  1  0.62597899  0.20450431  1.00767468  1
  O  O164  1  0.65354053  0.77945364  0.46396749  1
  O  O165  1  0.64539544  0.70858695  0.96167718  1
  O  O166  1  0.47540561  0.27680817  0.06903963  1
  O  O167  1  0.56113993  0.21470148  0.65827077  1
  O  O168  1  0.57795166  0.67173464  0.14902687  1
  O  O169  1  0.54976370  0.72594727  0.62253557  1
  O  O170  1  0.97025653  0.15849956  0.16468906  1
  O  O171  1  0.89179830  0.27622714  0.68485653  1
  O  O172  1  0.98227920  0.75852774  0.20644381  1
  O  O173  1  0.95628133  0.72798375  0.68616795  1
  O  O174  1  0.01512357  0.30354776  0.48645107  1
  O  O175  1  0.04200108  0.28701592  0.87833976  1
  O  O176  1  0.12742114  0.70729399  0.44490184  1
  O  O177  1  -0.04568262  0.72297655  0.88959797  1
  O  O178  1  0.52253350  0.22540234  0.34784183  1
  O  O179  1  0.46180699  0.28582009  0.90255567  1
  O  O180  1  0.48294678  0.66958283  0.29617115  1
  O  O181  1  0.46358572  0.71601496  0.84881146  1
  O  O182  1  0.35095586  0.16142447  0.58453945  1
  O  O183  1  0.17352360  0.13211539  1.05278098  1
  O  O184  1  0.13877129  0.58999277  0.53394966  1
  O  O185  1  0.25672500  0.64110519  1.08278707  1
  O  O186  1  0.75331919  0.06315288  0.46078480  1
  O  O187  1  0.77417172  0.11137375  0.98377031  1
  O  O188  1  0.76378097  0.63793995  0.44451032  1
  O  O189  1  0.74275376  0.61263019  1.00389945  1
  O  O190  1  0.31455617  0.38703740  0.01363664  1
  O  O191  1  0.31426484  0.33880459  0.54584028  1
  O  O192  1  0.19286260  0.77152512  0.01497353  1
  O  O193  1  0.34498143  0.88268058  0.48337887  1
  O  O194  1  0.72871087  0.38002532  -0.05553522  1
  O  O195  1  0.73629414  0.35500410  0.47449436  1
  O  O196  1  0.76944687  0.79836766  -0.05685177  1
  O  O197  1  0.79591830  0.89555731  0.46115915  1
  O  O198  1  0.05223970  0.46777278  0.22435269  1
  O  O199  1  0.12405390  0.48432330  0.70684694  1
  O  O200  1  0.13085649  1.06765793  0.29360853  1
  O  O201  1  0.06481373  1.02231014  0.79288068  1
  O  O202  1  0.60495312  0.40953428  0.19172965  1
  O  O203  1  0.59750677  0.58975474  0.69151661  1
  O  O204  1  0.67456673  0.98459278  0.20477826  1
  O  O205  1  0.62934019  0.94122399  0.81652660  1
  O  O206  1  0.39043466  -0.00688715  0.21570828  1
  O  O207  1  0.45141220  -0.01085164  0.80775159  1
  O  O208  1  0.43218580  0.46249907  0.28620529  1
  O  O209  1  0.34968103  0.50076980  0.68578177  1
  O  O210  1  0.94369290  0.06378418  0.30611745  1
  O  O211  1  0.90337462  -0.01548562  0.86097574  1
  O  O212  1  0.90367946  0.53913517  0.29324309  1
  O  O213  1  0.79607786  0.54318288  0.70662198  1
  O  O214  1  0.07118325  0.36570029  0.33328782  1
  O  O215  1  0.11868537  0.40796549  0.84562067  1
  O  O216  1  0.18545151  0.85078012  0.40909692  1
  O  O217  1  0.11926239  0.86235666  0.88954492  1
  O  O218  1  0.61825204  0.35816998  0.33885214  1
  O  O219  1  0.59046281  0.35360718  0.87790617  1
  O  O220  1  0.66473525  0.90664886  0.37463012  1
  O  O221  1  0.63780786  0.90435873  0.89222067  1
  O  O222  1  0.35498340  0.07967829  0.11873065  1
  O  O223  1  0.44907309  0.10256959  0.69392094  1
  O  O224  1  0.42277510  0.62301683  0.15092482  1
  O  O225  1  0.42387498  0.71071236  0.48881497  1
  O  O226  1  0.82842776  0.22227447  0.17941790  1
  O  O227  1  0.83984395  0.14771693  0.65866542  1
  O  O228  1  0.85283654  0.58020758  0.14029621  1
  O  O229  1  0.85842692  0.66256003  0.58082382  1
  O  O230  1  0.25072783  0.31088101  0.10557901  1
  O  O231  1  0.34082824  0.18623801  0.52043907  1
  O  O232  1  0.28178030  0.78538721  0.14675751  1
  O  O233  1  0.29561936  0.62849043  0.56035222  1
  O  O234  1  0.77660127  0.20890104  0.13482722  1
  O  O235  1  0.72005660  0.21920852  0.58164527  1
  O  O236  1  0.72821143  0.74851818  0.05907478  1
  O  O237  1  0.78344444  0.79598449  0.59936086  1
  O  O238  1  0.20016166  0.22291325  0.53922073  1
  O  O239  1  0.24866517  0.32491629  0.89386917  1
  O  O240  1  0.25331573  0.63260228  0.41772839  1
  O  O241  1  0.21028130  0.69437252  0.86506149  1
  O  O242  1  0.73143566  0.19767670  0.40867404  1
  O  O243  1  0.73495310  0.23336203  0.88981051  1
  O  O244  1  0.74151862  0.77835557  0.32959773  1
  O  O245  1  0.73890870  0.68383993  0.87244449  1
  O  O246  1  0.02320865  0.20139481  0.01054264  1
  O  O247  1  -0.01571933  0.19197580  0.60151761  1
  O  O248  1  -0.03680117  0.57477203  -0.00881636  1
  O  O249  1  -0.03341932  0.63506697  0.44455978  1
  O  O250  1  0.48904927  0.13576302  0.00800760  1
  O  O251  1  0.53059494  0.08896619  0.58013931  1
  O  O252  1  0.51089709  0.62575195  0.01532148  1
  O  O253  1  0.48986911  0.72529672  0.47286029  1
  O  O254  1  0.47388509  0.26981630  0.32491665  1
  O  O255  1  0.46410257  0.43565365  0.92442774  1
  O  O256  1  0.46118142  1.01494209  0.39546826  1
  O  O257  1  0.42759360  0.92651171  0.96369325  1
  O  O258  1  0.92056582  0.38726227  0.56258252  1
  O  O259  1  0.96679621  0.35706956  0.99760355  1
  O  O260  1  1.07051411  0.83504084  0.52369909  1
  O  O261  1  1.02420905  0.88419426  1.02797275  1
  O  O262  1  0.49678879  0.47147459  0.41964850  1
  O  O263  1  0.52232238  0.56645473  0.87034530  1
  O  O264  1  0.54993005  0.94117138  0.26814466  1
  O  O265  1  0.57915815  0.87477419  0.91568297  1
  O  O266  1  0.98652281  0.56870783  0.44021720  1
  O  O267  1  0.97354287  0.46147817  0.88726827  1
  O  O268  1  1.08605944  0.98829128  0.40563011  1
  O  O269  1  0.86939451  0.93516392  0.89742261  1
  O  O270  1  0.11746796  0.01893410  0.24583711  1
  O  O271  1  -0.04075219  0.06721238  0.68326512  1
  O  O272  1  -0.04405076  0.47698551  0.10541669  1
  O  O273  1  0.05887701  0.45250212  0.51730488  1
  O  O274  1  0.52924252  -0.04425995  0.09910146  1
  O  O275  1  0.55986053  -0.04566790  0.67342248  1
  O  O276  1  0.53275802  0.51220919  0.12514570  1
  O  O277  1  0.50043765  0.56926154  0.55784559  1
  O  O278  1  0.27534082  0.39086415  0.22372866  1
  O  O279  1  0.24850651  0.39935860  0.73755727  1
  O  O280  1  0.24449699  0.89891665  0.24819260  1
  O  O281  1  0.27901118  0.96650460  0.64308726  1
  O  O282  1  0.75540674  0.34478574  0.26596664  1
  O  O283  1  0.66103856  0.38913452  0.73812409  1
  O  O284  1  0.81867000  0.93380780  0.23040536  1
  O  O285  1  0.83558547  0.92689368  0.72789214  1
  O  O286  1  0.27723440  0.09026282  0.23156484  1
  O  O287  1  0.28211098  0.14912510  0.73065065  1
  O  O288  1  0.27492277  0.59690297  0.26136271  1
  O  O289  1  0.22973980  0.57229949  0.75851898  1
  O  O290  1  0.71467865  0.11900607  0.26515575  1
  O  O291  1  0.74714195  0.09094554  0.81924493  1
  O  O292  1  0.80950120  0.63777993  0.17264115  1
  O  O293  1  0.64350677  0.77758031  0.77770839  1
  O  O294  1  0.36823968  0.12052318  0.31531432  1
  O  O295  1  0.41343883  0.13647012  0.85228848  1
  O  O296  1  0.39216352  0.57982071  0.37849241  1
  O  O297  1  0.34723931  0.62649343  0.85388254  1
  O  O298  1  0.92004828  0.12142987  0.45660114  1
  O  O299  1  0.88092170  0.16587892  0.88568248  1
  O  O300  1  0.85814004  0.57794271  0.32891486  1
  O  O301  1  0.83546431  0.54905766  0.86050081  1
  O  O302  1  0.07681665  0.37251130  0.12775560  1
  O  O303  1  0.06860206  0.33249775  0.68625987  1
  O  O304  1  0.14055108  0.84140873  0.14921376  1
  O  O305  1  0.06938911  0.96178555  0.64026684  1
  O  O306  1  0.62058243  0.35941519  0.05011657  1
  O  O307  1  0.58915200  0.36713767  0.63786278  1
  O  O308  1  0.62209949  0.85219892  0.16028807  1
  O  O309  1  0.70932010  0.90846350  0.64553858  1
  O  O310  1  0.09021069  0.27297287  0.22088472  1
  O  O311  1  0.16062345  0.25966991  0.79285500  1
  O  O312  1  0.00267771  0.69089363  0.20516921  1
  O  O313  1  0.05921025  0.69081228  0.77246857  1
  O  O314  1  0.63492525  0.25386484  0.21742581  1
  O  O315  1  0.62915303  0.33998691  0.69672559  1
  O  O316  1  0.58045861  0.78996790  0.31037757  1
  O  O317  1  0.58769190  0.79603379  0.62822152  1
  O  O318  1  0.39137366  0.18325765  0.18844859  1
  O  O319  1  0.31558239  0.20904895  0.73041329  1
  O  O320  1  0.34066025  0.77595277  0.34755296  1
  O  O321  1  0.48421671  0.78500074  0.84800973  1
  O  O322  1  0.88784612  0.21589857  0.33357555  1
  O  O323  1  0.74877915  0.24487555  0.72830027  1
  O  O324  1  0.84372589  0.69753369  0.19278925  1
  O  O325  1  0.86613067  0.73435176  0.77314570  1
  O  O326  1  0.38491570  0.47618870  0.49456650  1
  O  O327  1  0.40125658  0.55303345  0.97803032  1
  O  O328  1  0.36712311  1.04065727  0.49462609  1
  O  O329  1  0.29904470  1.01543860  0.97723895  1
  O  O330  1  0.81133440  0.48504374  0.52405833  1
  O  O331  1  0.85620289  0.46293178  0.99407428  1
  O  O332  1  0.93857895  0.94470335  0.48755486  1
  O  O333  1  0.93047086  1.01381477  1.05076447  1
  O  O334  1  0.06637094  0.04241285  -0.02760983  1
  O  O335  1  0.18212725  0.03386800  0.53338808  1
  O  O336  1  0.06934513  0.46365942  0.00988530  1
  O  O337  1  0.10626545  0.44615704  0.46845567  1
  O  O338  1  0.68243903  -0.06494059  0.04687645  1
  O  O339  1  0.62764876  -0.03144863  0.53420007  1
  O  O340  1  0.58927116  0.49285194  -0.00862601  1
  O  O341  1  0.59555845  0.45082092  0.52172120  1
  O  O342  1  0.40846203  0.38370296  0.14809779  1
  O  O343  1  0.45852642  0.41564367  0.59289180  1
  O  O344  1  0.33185835  0.90115281  0.08298899  1
  O  O345  1  0.44751314  0.95407312  0.54301228  1
  O  O346  1  0.82176890  0.31321002  0.04736581  1
  O  O347  1  0.77197724  0.36105166  0.63253134  1
  O  O348  1  0.97442039  0.92852201  0.17860918  1
  O  O349  1  0.91061313  0.85238486  0.61449167  1
  O  O350  1  0.08384671  0.29152627  0.48085846  1
  O  O351  1  0.12975420  0.15872112  0.90125237  1
  O  O352  1  0.14738744  0.54786067  0.33648657  1
  O  O353  1  0.10898380  0.59940011  0.95023674  1
  O  O354  1  0.62385390  0.07340628  0.37234748  1
  O  O355  1  0.61042620  0.06172202  0.94062285  1
  O  O356  1  0.53622734  0.63215427  0.32080936  1
  O  O357  1  0.62910010  0.71095900  0.76627119  1
