# generated using pymatgen
data_V51Zn51O256
_symmetry_space_group_name_H-M   'P 1'
_cell_length_a   17.83292304
_cell_length_b   17.48561925
_cell_length_c   17.78283746
_cell_angle_alpha   87.87353504
_cell_angle_beta   88.53908287
_cell_angle_gamma   90.56145355
_symmetry_Int_Tables_number   1
_chemical_formula_structural   V51Zn51O256
_chemical_formula_sum   'V51 Zn51 O256'
_cell_volume   5539.09893569
_cell_formula_units_Z   1
loop_
 _symmetry_equiv_pos_site_id
 _symmetry_equiv_pos_as_xyz
  1  'x, y, z'
loop_
 _atom_site_type_symbol
 _atom_site_label
 _atom_site_symmetry_multiplicity
 _atom_site_fract_x
 _atom_site_fract_y
 _atom_site_fract_z
 _atom_site_occupancy
  V  V0  1  0.13157239  0.41972529  0.09460221  1
  V  V1  1  0.49270370  0.46557054  0.00682726  1
  V  V2  1  0.47011837  0.37261463  0.87205622  1
  V  V3  1  0.07669632  0.22282991  0.36655545  1
  V  V4  1  0.46370241  0.06218453  0.07105916  1
  V  V5  1  0.56777892  0.85011766  0.77415900  1
  V  V6  1  0.27359470  0.17324721  0.81816524  1
  V  V7  1  0.21374342  0.50064038  0.74995309  1
  V  V8  1  0.90251463  0.33862489  -0.04948577  1
  V  V9  1  0.77123152  0.21871442  0.55604371  1
  V  V10  1  -0.02951224  -0.00688495  0.47471816  1
  V  V11  1  0.72743666  0.37181637  0.07597516  1
  V  V12  1  0.25530675  0.25743190  -0.03115847  1
  V  V13  1  0.61104730  0.59116611  -0.02179090  1
  V  V14  1  0.60840485  0.06016031  0.14604656  1
  V  V15  1  0.86386726  0.14270270  0.25444363  1
  V  V16  1  0.76281301  0.11344507  0.41739382  1
  V  V17  1  0.88289991  0.51423580  0.85217727  1
  V  V18  1  0.89989090  0.32813019  0.58002008  1
  V  V19  1  -0.01953564  0.12568745  0.13351645  1
  V  V20  1  0.38681090  0.71230613  0.13560367  1
  V  V21  1  0.86618341  0.27145544  0.09890166  1
  V  V22  1  0.49184905  0.25229664  0.22978367  1
  V  V23  1  0.54857342  0.72036449  0.87938532  1
  V  V24  1  0.69313319  0.90584819  0.08922008  1
  V  V25  1  0.46672930  0.86392435  0.34692099  1
  V  V26  1  0.74957179  0.01822803  0.21729616  1
  V  V27  1  0.29039460  0.36231629  0.16981943  1
  V  V28  1  0.13666801  0.04938688  0.16051454  1
  V  V29  1  0.85571861  -0.02392224  0.36814195  1
  V  V30  1  0.75091023  0.53048110  0.74983602  1
  V  V31  1  0.28433219  0.98315976  0.14491256  1
  V  V32  1  0.51802790  0.26579377  0.75050081  1
  V  V33  1  0.91989391  0.07661987  0.77584774  1
  V  V34  1  0.52152151  0.02221766  0.49815504  1
  V  V35  1  0.40888886  0.59814923  0.76024139  1
  V  V36  1  0.16523496  0.46927628  0.58042329  1
  V  V37  1  -0.02949367  0.42457696  0.37535956  1
  V  V38  1  0.61029250  0.11916299  -0.03782435  1
  V  V39  1  0.62310098  0.88394743  0.25490630  1
  V  V40  1  0.51366997  0.47463953  0.51296339  1
  V  V41  1  0.67520466  0.37212698  0.71984639  1
  V  V42  1  0.24548803  0.60229750  0.88212414  1
  V  V43  1  0.52278349  0.12389680  0.65824300  1
  V  V44  1  0.34516085  0.73068750  0.63665844  1
  V  V45  1  0.63647587  0.80804029  0.59399191  1
  V  V46  1  0.67569341  0.26573481  0.39969135  1
  V  V47  1  0.02136369  0.64457629  0.58598917  1
  V  V48  1  0.02077849  0.77963420  0.82500014  1
  V  V49  1  0.00879132  0.77912023  0.20144086  1
  V  V50  1  0.76120893  0.76532491  0.05632055  1
  Zn  Zn51  1  0.57612319  0.27324701  0.54315373  1
  Zn  Zn52  1  0.70306192  0.22324040  0.20683249  1
  Zn  Zn53  1  0.03252851  0.05985532  0.30849836  1
  Zn  Zn54  1  0.86807894  0.51298497  0.63504321  1
  Zn  Zn55  1  0.58656816  0.72111225  0.08241256  1
  Zn  Zn56  1  0.10310594  0.13842783  0.74044984  1
  Zn  Zn57  1  0.42861421  0.90381047  0.66037012  1
  Zn  Zn58  1  0.04530380  0.88620322  0.06261933  1
  Zn  Zn59  1  0.16826829  0.22891788  0.13857662  1
  Zn  Zn60  1  0.50108215  0.18567454  0.39312913  1
  Zn  Zn61  1  0.62735476  0.03697719  0.79429660  1
  Zn  Zn62  1  0.40060672  0.61131671  0.95267038  1
  Zn  Zn63  1  0.71626275  0.40002221  0.52289649  1
  Zn  Zn64  1  0.01436116  0.60824970  0.38645042  1
  Zn  Zn65  1  0.59545409  0.08602282  0.32528580  1
  Zn  Zn66  1  0.47358684  0.84497703  0.52325405  1
  Zn  Zn67  1  0.74402312  0.90613682  0.82538113  1
  Zn  Zn68  1  0.45614452  0.91155811  0.16569788  1
  Zn  Zn69  1  0.87551607  0.27400747  0.37884740  1
  Zn  Zn70  1  0.37297445  0.36603006  0.31140140  1
  Zn  Zn71  1  0.00296865  0.48518702  0.52363083  1
  Zn  Zn72  1  0.47799170  0.68095024  0.29777072  1
  Zn  Zn73  1  1.02428494  0.35121342  0.19567606  1
  Zn  Zn74  1  0.36805386  0.04619829  0.59284098  1
  Zn  Zn75  1  0.55237844  0.28849839  0.04799962  1
  Zn  Zn76  1  0.68168726  0.92438015  0.44285012  1
  Zn  Zn77  1  0.21247312  0.30607936  0.66982309  1
  Zn  Zn78  1  0.06174687  0.57159323  0.85483907  1
  Zn  Zn79  1  0.25269832  1.06104357  0.98870027  1
  Zn  Zn80  1  0.71476001  0.47436377  0.93638498  1
  Zn  Zn81  1  0.86628566  0.92642731  0.00246052  1
  Zn  Zn82  1  0.72948420  0.57790998  0.08572868  1
  Zn  Zn83  1  0.09204800  0.33165582  0.50745604  1
  Zn  Zn84  1  0.90989828  0.13199711  0.97897147  1
  Zn  Zn85  1  0.77952223  0.03801241  -0.08170960  1
  Zn  Zn86  1  0.01312347  0.82415952  0.63101276  1
  Zn  Zn87  1  0.37024769  0.21301237  0.10342759  1
  Zn  Zn88  1  0.42952842  0.18823364  0.91612928  1
  Zn  Zn89  1  0.48031122  0.43285314  0.19616752  1
  Zn  Zn90  1  0.82099293  0.84566997  0.23781471  1
  Zn  Zn91  1  0.97202957  0.19035286  0.50156710  1
  Zn  Zn92  1  0.28727545  0.46097338  1.00355424  1
  Zn  Zn93  1  0.57811598  0.52833097  0.81699776  1
  Zn  Zn94  1  0.84696021  0.27739846  0.76676390  1
  Zn  Zn95  1  0.44764998  0.44211479  0.69638749  1
  Zn  Zn96  1  0.17576347  0.68550888  0.70882262  1
  Zn  Zn97  1  0.33558282  0.55012417  0.59964883  1
  Zn  Zn98  1  0.06332668  0.25665431  0.01963784  1
  Zn  Zn99  1  0.27323901  0.37358981  0.83302744  1
  Zn  Zn100  1  1.01914898  0.51456744  0.70780397  1
  Zn  Zn101  1  0.70340948  0.73168167  0.74119575  1
  O  O102  1  0.08966440  0.14204465  0.15632213  1
  O  O103  1  0.11178426  0.03145518  0.60759820  1
  O  O104  1  0.15877127  0.61530820  0.10357512  1
  O  O105  1  0.10305438  0.64959129  0.63507089  1
  O  O106  1  0.63830821  0.15186695  0.15179514  1
  O  O107  1  0.58932665  0.06505530  0.69549356  1
  O  O108  1  0.61907814  0.61420726  0.07885977  1
  O  O109  1  0.74664709  0.65157474  0.45555873  1
  O  O110  1  0.34791276  0.34283742  0.42794307  1
  O  O111  1  0.37622961  0.37494584  0.86737245  1
  O  O112  1  0.37715893  0.86919709  0.33148663  1
  O  O113  1  0.36704427  0.97200013  0.87292090  1
  O  O114  1  0.88832832  0.37799524  0.40855099  1
  O  O115  1  0.88415092  0.30348516  0.86456059  1
  O  O116  1  0.84773001  0.88671486  0.33488079  1
  O  O117  1  0.81285185  0.92920477  0.90759015  1
  O  O118  1  0.35869995  0.12556517  0.44031344  1
  O  O119  1  0.24817350  0.07437237  0.78233863  1
  O  O120  1  0.26362254  0.54085977  0.29942456  1
  O  O121  1  0.24493733  0.48406454  0.84291810  1
  O  O122  1  0.75497226  0.00348067  0.39399545  1
  O  O123  1  0.73117851  0.01932151  0.82369751  1
  O  O124  1  0.76716412  0.50288747  0.49605886  1
  O  O125  1  0.77568089  0.48824057  0.84725974  1
  O  O126  1  0.23507335  0.43198982  0.11304312  1
  O  O127  1  0.23479494  0.51605080  0.63644268  1
  O  O128  1  0.23139213  1.07245246  0.17389998  1
  O  O129  1  0.27616244  0.97086305  0.58737798  1
  O  O130  1  0.73534096  0.46585237  0.10419215  1
  O  O131  1  0.75984501  0.50971852  0.65390833  1
  O  O132  1  0.73118789  1.01735177  0.12188683  1
  O  O133  1  0.74827708  0.99520197  0.63260959  1
  O  O134  1  -0.00454013  0.38468270  0.29281588  1
  O  O135  1  0.05566965  0.34515517  0.70383678  1
  O  O136  1  0.01923624  0.88372334  0.17138201  1
  O  O137  1  0.06728030  0.86689947  0.82005728  1
  O  O138  1  0.53896162  0.33602274  0.23126410  1
  O  O139  1  0.49895472  0.37677702  0.76545198  1
  O  O140  1  0.51508744  0.90113498  0.25742028  1
  O  O141  1  0.47896966  0.87964593  0.74956030  1
  O  O142  1  0.53668273  0.17842063  0.28497999  1
  O  O143  1  0.50757594  0.16895699  0.75883003  1
  O  O144  1  0.65675709  0.52170638  0.25381330  1
  O  O145  1  0.50181032  0.57943017  0.75641588  1
  O  O146  1  0.96421934  0.12196751  0.24431838  1
  O  O147  1  1.00889978  0.12964832  0.79207411  1
  O  O148  1  0.96302849  0.69321820  0.22502840  1
  O  O149  1  1.01381691  0.67465002  0.82654542  1
  O  O150  1  0.34905673  0.23316242  -0.00516267  1
  O  O151  1  0.27991371  0.12804798  0.58904605  1
  O  O152  1  0.39190201  0.69236791  0.03894231  1
  O  O153  1  0.40108258  0.60508448  0.36943669  1
  O  O154  1  0.87049076  0.23441595  0.00497033  1
  O  O155  1  0.87549795  0.22095598  0.54331679  1
  O  O156  1  0.76450392  0.75773790  -0.03385269  1
  O  O157  1  0.88584804  0.74595757  0.42074454  1
  O  O158  1  0.11924489  0.24516693  0.44897100  1
  O  O159  1  0.17313075  0.22499073  1.02164220  1
  O  O160  1  -0.00849584  0.73725370  0.57366183  1
  O  O161  1  0.15025767  0.85860841  1.01238857  1
  O  O162  1  0.68042319  0.24179580  0.51910427  1
  O  O163  1  0.59428614  0.21300400  0.98156934  1
  O  O164  1  0.72415939  0.71679167  0.46288098  1
  O  O165  1  0.58155684  0.71016871  0.97327837  1
  O  O166  1  0.47595129  0.24018810  0.12959847  1
  O  O167  1  0.53893030  0.23029153  0.63816810  1
  O  O168  1  0.49214896  0.71318992  0.13834386  1
  O  O169  1  0.35114610  0.62693809  0.41393537  1
  O  O170  1  0.94688557  0.29455062  0.14407318  1
  O  O171  1  1.04557618  0.27603611  0.68830929  1
  O  O172  1  1.02612860  0.77516143  0.09548622  1
  O  O173  1  0.97608033  0.79113592  0.73067740  1
  O  O174  1  -0.02107419  0.22784036  0.39063710  1
  O  O175  1  0.08339480  0.26732837  0.85116403  1
  O  O176  1  0.02239082  0.81271115  0.28861929  1
  O  O177  1  0.04392251  0.77342394  0.91902597  1
  O  O178  1  0.57434197  0.25586447  0.43024666  1
  O  O179  1  0.49181411  0.26735844  0.85464436  1
  O  O180  1  0.48589672  0.76591111  0.35500319  1
  O  O181  1  0.45828167  0.69010410  0.88200423  1
  O  O182  1  0.31254810  0.19716071  0.58445223  1
  O  O183  1  0.25055962  0.14588320  0.92614074  1
  O  O184  1  0.19910335  0.69086508  0.45460772  1
  O  O185  1  0.29052010  0.56846849  0.97049763  1
  O  O186  1  0.77139177  0.11214453  0.51298966  1
  O  O187  1  0.70510601  0.10478888  0.96202584  1
  O  O188  1  0.89445400  0.67865423  0.40294697  1
  O  O189  1  0.71262305  0.58104176  0.97265298  1
  O  O190  1  0.25489627  0.35561235  -0.01900880  1
  O  O191  1  0.30622429  0.39012867  0.45963711  1
  O  O192  1  0.28897937  0.97992521  0.04512805  1
  O  O193  1  0.18873795  0.87811538  0.47503047  1
  O  O194  1  0.72713237  0.37318824  -0.02061167  1
  O  O195  1  0.79878948  0.32957722  0.55512114  1
  O  O196  1  0.67795096  0.93596239  0.00423804  1
  O  O197  1  0.69504310  0.85739007  0.52800190  1
  O  O198  1  0.16462754  0.59355562  0.17005177  1
  O  O199  1  0.11858396  0.50684720  0.75839790  1
  O  O200  1  0.09726183  1.00701649  0.23901078  1
  O  O201  1  0.14149138  1.04975732  0.66733723  1
  O  O202  1  0.64781203  0.45934480  0.28659257  1
  O  O203  1  0.65644531  0.46684725  0.76204374  1
  O  O204  1  0.64620246  1.02704290  0.24899789  1
  O  O205  1  0.62561757  0.92134795  0.80688556  1
  O  O206  1  0.36217607  -0.04348985  0.19309311  1
  O  O207  1  0.32630180  -0.05469252  0.70001983  1
  O  O208  1  0.43273760  0.45320878  0.28775032  1
  O  O209  1  0.37372492  0.52268404  0.70215247  1
  O  O210  1  0.84161073  0.00851325  0.24818983  1
  O  O211  1  0.98265468  0.00400149  0.79776862  1
  O  O212  1  0.79900183  0.51640340  0.42589814  1
  O  O213  1  0.85713513  0.53133423  0.74928396  1
  O  O214  1  0.04100581  0.41581085  0.44581122  1
  O  O215  1  0.07714826  0.33595544  0.83379858  1
  O  O216  1  0.18404613  0.84173275  0.53510764  1
  O  O217  1  0.09644699  1.00460948  0.91558696  1
  O  O218  1  0.69806123  0.35732213  0.42077523  1
  O  O219  1  0.73916955  0.23622585  0.88586600  1
  O  O220  1  0.63733001  0.89310323  0.34937058  1
  O  O221  1  0.53561821  0.82115987  0.87561742  1
  O  O222  1  0.31977158  0.02887252  0.32924837  1
  O  O223  1  0.43291008  0.08771260  0.66699405  1
  O  O224  1  0.37463353  0.61265870  0.15036337  1
  O  O225  1  0.34406074  0.65782677  0.57479098  1
  O  O226  1  0.87965496  0.16048082  0.14286624  1
  O  O227  1  0.93040240  0.08791251  0.68081168  1
  O  O228  1  0.77677871  0.67744068  0.10316630  1
  O  O229  1  0.95678449  0.58718836  0.64376969  1
  O  O230  1  0.27447916  0.26208929  0.14770689  1
  O  O231  1  0.26756911  0.25421951  0.57084762  1
  O  O232  1  0.29425565  0.73915536  0.13286794  1
  O  O233  1  0.25497791  0.75011203  0.66311463  1
  O  O234  1  0.77165759  0.28597460  0.13979635  1
  O  O235  1  0.75461894  0.19795470  0.64490973  1
  O  O236  1  0.66605919  0.79921736  0.08631624  1
  O  O237  1  0.68478219  0.73239293  0.63154822  1
  O  O238  1  0.13426075  0.29628354  0.31004586  1
  O  O239  1  0.24294134  0.27010762  0.86766275  1
  O  O240  1  0.24397207  0.73711844  0.42565701  1
  O  O241  1  0.26069501  0.69501381  0.88380527  1
  O  O242  1  0.77906722  0.22241526  0.41167137  1
  O  O243  1  0.71296714  0.20417276  0.83216666  1
  O  O244  1  0.77041844  0.73541908  0.28842247  1
  O  O245  1  0.76087868  0.81301590  0.78124611  1
  O  O246  1  -0.00014120  0.16296350  0.03719320  1
  O  O247  1  -0.00801359  0.08389282  0.50229478  1
  O  O248  1  0.17695695  0.79257844  0.01026085  1
  O  O249  1  0.01963896  0.59695189  0.49815380  1
  O  O250  1  0.47202767  0.11200377  -0.01725446  1
  O  O251  1  0.53196480  0.10350120  0.55388190  1
  O  O252  1  0.49770287  0.57174574  -0.00859185  1
  O  O253  1  0.53730546  0.56725139  0.48729469  1
  O  O254  1  0.51429024  0.36980050  0.53406977  1
  O  O255  1  0.50190363  0.35880682  0.97260500  1
  O  O256  1  0.48586905  0.90777598  0.43351740  1
  O  O257  1  0.45523527  0.96624431  1.06477667  1
  O  O258  1  0.99174577  0.29540789  0.54791410  1
  O  O259  1  0.99512377  0.32476461  0.96714995  1
  O  O260  1  0.91968751  0.89423406  0.61396372  1
  O  O261  1  0.96400652  0.89067107  1.00146131  1
  O  O262  1  0.47814696  0.45286416  0.42777132  1
  O  O263  1  0.50127655  0.46753972  0.87635714  1
  O  O264  1  0.51896447  1.06890197  0.40559071  1
  O  O265  1  0.42522397  0.94391444  0.89511997  1
  O  O266  1  0.95533580  0.52277081  0.36451612  1
  O  O267  1  0.98229762  0.51527239  0.81281385  1
  O  O268  1  0.96166792  0.99907595  0.36840586  1
  O  O269  1  1.03904896  1.02427348  0.94992533  1
  O  O270  1  -0.02837551  0.03554062  0.11847673  1
  O  O271  1  -0.07334570  -0.03656917  0.59084098  1
  O  O272  1  0.07307998  0.45558477  0.16108609  1
  O  O273  1  0.07075323  0.48363926  0.61207767  1
  O  O274  1  0.51384793  0.06318945  0.16938246  1
  O  O275  1  0.45688873  -0.03460551  0.56687450  1
  O  O276  1  0.51877364  0.45364290  0.09860772  1
  O  O277  1  0.51779393  0.48033611  0.61648990  1
  O  O278  1  0.27445373  0.37340275  0.26333384  1
  O  O279  1  0.23441970  0.39709054  0.73109347  1
  O  O280  1  0.21917788  0.91833914  0.17080634  1
  O  O281  1  0.26915725  0.93199169  0.65239473  1
  O  O282  1  0.75739509  0.51456784  0.36953257  1
  O  O283  1  0.76145940  0.34428688  0.74559843  1
  O  O284  1  0.73168372  0.90556947  0.22197430  1
  O  O285  1  0.60933184  0.86043612  0.67502044  1
  O  O286  1  0.25891260  0.00532625  0.35339981  1
  O  O287  1  0.25999594  0.22498733  0.73526645  1
  O  O288  1  0.23269187  0.59307152  0.33202627  1
  O  O289  1  0.23352858  0.60419951  0.76358594  1
  O  O290  1  0.76175397  0.12464349  0.23298026  1
  O  O291  1  0.84980197  0.01145721  0.76378562  1
  O  O292  1  0.65168829  0.61532525  0.36227865  1
  O  O293  1  0.72462931  0.62161086  0.75835126  1
  O  O294  1  0.40300632  0.18761352  0.44994814  1
  O  O295  1  0.36740425  0.16640649  0.82956317  1
  O  O296  1  0.51822315  0.60382933  0.24534431  1
  O  O297  1  0.36558464  0.58097514  0.84588011  1
  O  O298  1  0.85081914  0.10174837  0.35698403  1
  O  O299  1  0.88140426  0.09861427  0.87459133  1
  O  O300  1  0.79373201  0.66850563  0.29235021  1
  O  O301  1  0.87988996  0.59285995  0.89740362  1
  O  O302  1  0.10136179  0.31843411  0.10681798  1
  O  O303  1  0.17031706  0.36632953  0.57727520  1
  O  O304  1  0.11327723  0.97784447  0.08584075  1
  O  O305  1  0.09523072  0.87951740  0.65320044  1
  O  O306  1  0.63906497  0.33592160  0.09802395  1
  O  O307  1  0.66692933  0.37570807  0.62485485  1
  O  O308  1  0.61040572  0.93235529  0.14639530  1
  O  O309  1  0.55453554  0.77989286  0.55219745  1
  O  O310  1  0.09033559  0.26118035  0.25514294  1
  O  O311  1  0.11702157  0.23113091  0.67878122  1
  O  O312  1  0.09695620  0.74005914  0.19831118  1
  O  O313  1  0.10706341  0.74456002  0.77386478  1
  O  O314  1  0.67807053  0.26519069  0.30305967  1
  O  O315  1  0.61619126  0.29345869  0.75309771  1
  O  O316  1  0.62338054  0.79224109  0.24054223  1
  O  O317  1  0.59583949  0.74605161  0.78168937  1
  O  O318  1  0.40965627  0.26557298  0.28101825  1
  O  O319  1  0.41572338  0.27943110  0.69708139  1
  O  O320  1  0.38440565  0.70943852  0.23844317  1
  O  O321  1  0.39187403  0.69167484  0.71782866  1
  O  O322  1  0.85946214  0.23484364  0.27525149  1
  O  O323  1  0.86997145  0.16862225  0.77118047  1
  O  O324  1  0.90587183  0.80141369  0.19033945  1
  O  O325  1  0.92970925  0.80556142  0.84966975  1
  O  O326  1  0.41664631  0.49531664  0.54387916  1
  O  O327  1  0.39718737  0.46197354  1.00916008  1
  O  O328  1  0.38035948  1.06047099  0.47702205  1
  O  O329  1  0.38082248  1.09992553  1.10669046  1
  O  O330  1  0.91477019  0.43367986  0.57436921  1
  O  O331  1  0.89598942  0.43873619  0.92520403  1
  O  O332  1  0.87093746  0.95647360  0.46513823  1
  O  O333  1  0.85251221  1.03875543  1.00131054  1
  O  O334  1  0.13943010  0.04606545  0.04835570  1
  O  O335  1  0.03790499  -0.06739592  0.49212503  1
  O  O336  1  0.11504841  0.45849267  0.01175980  1
  O  O337  1  0.17644196  0.50296082  0.49418093  1
  O  O338  1  0.58412743  0.05498302  0.04796754  1
  O  O339  1  0.60652139  -0.01545112  0.50162205  1
  O  O340  1  0.60428689  0.48812527  -0.02785646  1
  O  O341  1  0.61071894  0.45993133  0.49988811  1
  O  O342  1  0.38075561  0.38158143  0.15147782  1
  O  O343  1  0.39163619  0.34329739  0.66740195  1
  O  O344  1  0.41350239  0.81375257  0.12718244  1
  O  O345  1  0.39338793  0.81482415  0.59870201  1
  O  O346  1  0.85237109  0.36260071  0.05036520  1
  O  O347  1  0.89931007  0.30958705  0.67310142  1
  O  O348  1  0.79699657  0.86461313  0.07914359  1
  O  O349  1  0.75686383  0.93251401  0.66447265  1
  O  O350  1  0.10075081  0.13010493  0.35351220  1
  O  O351  1  0.17996561  0.10342098  0.80924051  1
  O  O352  1  0.08323937  0.67520631  0.34678987  1
  O  O353  1  0.14885843  0.59207620  0.90399528  1
  O  O354  1  0.67155628  0.13221118  0.39155394  1
  O  O355  1  0.58355929  0.09370907  0.87403638  1
  O  O356  1  0.61037476  0.67045521  0.36834536  1
  O  O357  1  0.60144651  0.61826426  0.87612578  1
