# generated using pymatgen
data_V51Zn51O256
_symmetry_space_group_name_H-M   'P 1'
_cell_length_a   17.30850659
_cell_length_b   17.28899502
_cell_length_c   17.53081209
_cell_angle_alpha   88.56387642
_cell_angle_beta   89.24083792
_cell_angle_gamma   88.63732487
_symmetry_Int_Tables_number   1
_chemical_formula_structural   V51Zn51O256
_chemical_formula_sum   'V51 Zn51 O256'
_cell_volume   5242.48615794
_cell_formula_units_Z   1
loop_
 _symmetry_equiv_pos_site_id
 _symmetry_equiv_pos_as_xyz
  1  'x, y, z'
loop_
 _atom_site_type_symbol
 _atom_site_label
 _atom_site_symmetry_multiplicity
 _atom_site_fract_x
 _atom_site_fract_y
 _atom_site_fract_z
 _atom_site_occupancy
  V  V0  1  0.90478530  0.50300998  0.88044860  1
  V  V1  1  0.85232370  0.76027306  0.62456178  1
  V  V2  1  0.39354818  0.13907128  0.26485294  1
  V  V3  1  0.64926038  0.00729002  0.13319615  1
  V  V4  1  0.27252498  0.76578696  -0.03566235  1
  V  V5  1  0.36950817  0.60538211  0.76426995  1
  V  V6  1  0.46881079  0.29539389  0.22385907  1
  V  V7  1  -0.00597625  0.84316632  0.39192885  1
  V  V8  1  0.08784880  0.40011654  0.26914000  1
  V  V9  1  0.03487765  0.61520356  0.64008548  1
  V  V10  1  0.01138257  0.75133464  0.77042330  1
  V  V11  1  0.59682289  0.75736200  0.86093213  1
  V  V12  1  0.76302734  0.01901299  0.26414576  1
  V  V13  1  0.53235674  -0.02020230  -0.00535915  1
  V  V14  1  0.01979700  0.01516527  0.49370786  1
  V  V15  1  0.74254909  0.14790926  0.37799434  1
  V  V16  1  0.12568408  0.34819575  0.77507276  1
  V  V17  1  0.48882042  0.57751728  0.06447552  1
  V  V18  1  -0.00754859  0.72623759  0.22507353  1
  V  V19  1  0.63213652  -0.00053416  0.63904100  1
  V  V20  1  0.87024542  0.63845688  0.75938455  1
  V  V21  1  0.67769244  0.56918003  0.62550182  1
  V  V22  1  0.73273888  0.17092043  0.86450896  1
  V  V23  1  0.75275632  0.35925489  0.10361659  1
  V  V24  1  0.00084266  0.11743974  0.63800945  1
  V  V25  1  0.63330891  0.89556147  0.27783998  1
  V  V26  1  0.84072606  0.77006221  0.12674804  1
  V  V27  1  0.22145248  0.85406945  0.61601451  1
  V  V28  1  0.24388303  0.24202583  0.52582977  1
  V  V29  1  0.74071315  0.74033363  -0.01636611  1
  V  V30  1  0.64893893  0.15158460  0.02430179  1
  V  V31  1  0.85636123  0.01884452  0.91882080  1
  V  V32  1  0.87846606  0.01043293  0.39377234  1
  V  V33  1  0.48965484  0.12093770  0.10711621  1
  V  V34  1  0.73108482  0.50747670  0.30683509  1
  V  V35  1  -0.01633627  0.35742036  0.39164997  1
  V  V36  1  0.26790462  0.71628539  0.50471937  1
  V  V37  1  0.86120900  0.60954679  0.23176461  1
  V  V38  1  -0.06300356  0.21546290  0.19608776  1
  V  V39  1  0.73684735  0.25792296  0.51575851  1
  V  V40  1  0.24117439  0.37408533  0.63840639  1
  V  V41  1  0.64750303  0.49017123  0.08027713  1
  V  V42  1  0.87527122  0.37341880  0.51982961  1
  V  V43  1  0.87389267  0.23865100  0.63983430  1
  V  V44  1  0.13686092  0.59802722  0.46857974  1
  V  V45  1  0.49401599  0.36890342  0.85846401  1
  V  V46  1  0.75326559  0.50715414  0.76148389  1
  V  V47  1  0.51292685  0.75816988  0.25423897  1
  V  V48  1  0.15575283  0.09065406  -0.00609459  1
  V  V49  1  0.88521430  0.51808393  0.40288439  1
  V  V50  1  0.34866311  0.88963821  0.48893306  1
  Zn  Zn51  1  0.10782295  0.15400114  0.50015617  1
  Zn  Zn52  1  0.05702336  0.30683973  0.57292948  1
  Zn  Zn53  1  1.00932574  0.89356127  0.63258156  1
  Zn  Zn54  1  0.17448739  0.78904525  0.39258016  1
  Zn  Zn55  1  0.68788543  0.70236178  0.22719521  1
  Zn  Zn56  1  0.15472245  0.68304013  0.12369320  1
  Zn  Zn57  1  0.65522341  0.77927877  0.63040541  1
  Zn  Zn58  1  0.92105275  0.18596287  0.44775298  1
  Zn  Zn59  1  0.04459897  0.56272414  0.31710572  1
  Zn  Zn60  1  0.28494684  0.12729885  0.13568493  1
  Zn  Zn61  1  0.66897852  0.19935277  0.68025946  1
  Zn  Zn62  1  0.36851488  0.09222589  -0.02944535  1
  Zn  Zn63  1  0.54549325  0.32431463  0.06693289  1
  Zn  Zn64  1  0.02840153  0.07024801  0.83489446  1
  Zn  Zn65  1  0.54933220  0.76553828  0.04123796  1
  Zn  Zn66  1  0.89723599  0.71986615  0.92054871  1
  Zn  Zn67  1  0.92716895  0.44482497  0.69574293  1
  Zn  Zn68  1  0.16777575  0.46761637  0.91298880  1
  Zn  Zn69  1  0.69694433  0.45294142  0.48473308  1
  Zn  Zn70  1  0.34128517  0.80851185  0.76443042  1
  Zn  Zn71  1  0.16520342  0.38871099  0.45313367  1
  Zn  Zn72  1  0.06841228  0.76061153  0.54311703  1
  Zn  Zn73  1  0.06700090  0.56614532  0.80321597  1
  Zn  Zn74  1  0.65725590  1.00443427  0.42830001  1
  Zn  Zn75  1  0.82502070  0.08750464  0.08740282  1
  Zn  Zn76  1  0.15652765  0.89353261  0.92644926  1
  Zn  Zn77  1  0.22747932  0.03057755  0.53318917  1
  Zn  Zn78  1  0.69252642  0.90760442  0.91792401  1
  Zn  Zn79  1  0.51678228  0.89406666  0.14257932  1
  Zn  Zn80  1  0.56262963  0.52680612  0.79293781  1
  Zn  Zn81  1  0.81696154  0.33541094  0.81514296  1
  Zn  Zn82  1  0.50816510  0.86854490  0.41308005  1
  Zn  Zn83  1  0.24257593  0.28091201  0.23692357  1
  Zn  Zn84  1  0.81035060  0.08253509  0.55846948  1
  Zn  Zn85  1  0.56858189  0.56541544  0.23370301  1
  Zn  Zn86  1  0.12135848  0.25132015  0.12026264  1
  Zn  Zn87  1  0.57383759  0.09615554  0.29795501  1
  Zn  Zn88  1  0.18953568  0.70107893  0.70332064  1
  Zn  Zn89  1  0.87346868  0.56225634  0.58569957  1
  Zn  Zn90  1  0.45457372  0.85001104  0.61990708  1
  Zn  Zn91  1  0.28521279  0.54587624  0.58583102  1
  Zn  Zn92  1  0.15790696  0.21356863  0.68630521  1
  Zn  Zn93  1  0.65828159  0.20315432  0.19699141  1
  Zn  Zn94  1  0.76303437  0.78092489  0.78508463  1
  Zn  Zn95  1  0.36670546  0.76140271  0.34437768  1
  Zn  Zn96  1  0.87881361  0.40694233  0.23634136  1
  Zn  Zn97  1  0.80737714  0.56407961  0.03950833  1
  Zn  Zn98  1  0.39954899  0.45722180  0.12673160  1
  Zn  Zn99  1  0.35499838  0.28035566  0.37510661  1
  Zn  Zn100  1  0.76786089  0.29870280  0.28268635  1
  Zn  Zn101  1  0.52304260  0.16666851  0.90822624  1
  O  O102  1  0.21759929  0.06088552  0.07518253  1
  O  O103  1  0.09952498  0.13719067  0.62693410  1
  O  O104  1  0.14775662  0.52828170  0.01579924  1
  O  O105  1  0.12465752  0.60162531  0.67796524  1
  O  O106  1  0.61720031  0.12416355  0.13117066  1
  O  O107  1  0.62447950  0.10648853  0.63791729  1
  O  O108  1  0.65608997  0.54383322  0.15859163  1
  O  O109  1  0.66371113  0.66581004  0.61179882  1
  O  O110  1  0.35206650  0.53388054  0.37757841  1
  O  O111  1  0.40006936  0.36306998  0.89162766  1
  O  O112  1  0.36546941  0.86069127  0.39510395  1
  O  O113  1  0.32993123  0.98143872  0.85714955  1
  O  O114  1  0.88405270  0.38445751  0.40038312  1
  O  O115  1  0.88087157  0.40700777  0.86638868  1
  O  O116  1  0.90702402  0.91241824  0.37883501  1
  O  O117  1  1.05029081  0.87315589  0.98015506  1
  O  O118  1  0.22857085  -0.02285266  0.32363892  1
  O  O119  1  0.29500772  -0.05621559  0.80922247  1
  O  O120  1  0.40057841  0.58437025  0.37483394  1
  O  O121  1  0.16244193  0.55490754  0.84873709  1
  O  O122  1  0.75945972  0.02514037  0.37957854  1
  O  O123  1  0.79391240  -0.05287445  0.89384245  1
  O  O124  1  0.76021250  0.50511839  0.40281132  1
  O  O125  1  0.73147596  0.51378646  0.85260022  1
  O  O126  1  0.26671069  0.43321961  0.03849256  1
  O  O127  1  0.21851494  0.47210144  0.62803713  1
  O  O128  1  0.33961206  0.95249281  0.14939916  1
  O  O129  1  0.22040729  0.95339257  0.61478812  1
  O  O130  1  0.74092642  0.47031504  0.04735806  1
  O  O131  1  0.77309903  0.53585077  0.63388742  1
  O  O132  1  0.75184250  1.03306876  0.15866086  1
  O  O133  1  0.73428098  1.02125873  0.60971960  1
  O  O134  1  -0.01444067  0.38837919  0.27606672  1
  O  O135  1  0.01804621  0.39591067  0.75180976  1
  O  O136  1  -0.02247519  0.78971674  0.30164243  1
  O  O137  1  0.00766880  0.84552936  0.73645525  1
  O  O138  1  0.46946759  0.36860316  0.14818453  1
  O  O139  1  0.45356172  0.35670124  0.76907204  1
  O  O140  1  0.53074746  0.87927988  0.25431938  1
  O  O141  1  0.42420200  0.86447094  0.72436827  1
  O  O142  1  0.48587532  0.10404679  0.22396179  1
  O  O143  1  0.45434986  0.10040030  0.76998504  1
  O  O144  1  0.57863285  0.67424237  0.25591343  1
  O  O145  1  0.46430348  0.56955661  0.73827257  1
  O  O146  1  0.99855584  0.14204726  0.26127293  1
  O  O147  1  0.99616159  0.10225504  0.73394509  1
  O  O148  1  0.97154457  0.62308424  0.25087084  1
  O  O149  1  0.99196793  0.63234434  0.75001617  1
  O  O150  1  0.41379558  0.17589085  -0.08217840  1
  O  O151  1  0.33174405  0.25040188  0.48013261  1
  O  O152  1  0.35597254  0.77877128  0.01076338  1
  O  O153  1  0.36264614  0.70383788  0.51267880  1
  O  O154  1  0.94037273  0.21479231  -0.03484981  1
  O  O155  1  0.86881766  0.26278680  0.52038158  1
  O  O156  1  0.84901537  0.74499228  0.02271096  1
  O  O157  1  0.82485815  0.74397712  0.53781656  1
  O  O158  1  0.13538197  0.26339280  0.49516511  1
  O  O159  1  0.13816807  0.18793521  1.01979482  1
  O  O160  1  0.14906184  0.71716509  0.47895758  1
  O  O161  1  0.18677685  0.78958978  0.90048067  1
  O  O162  1  0.64408273  0.27355644  0.51917096  1
  O  O163  1  0.62166036  0.24537153  1.03288835  1
  O  O164  1  0.67849806  0.81552627  0.50270931  1
  O  O165  1  0.62315203  0.73512371  0.95870565  1
  O  O166  1  0.49048308  0.21850424  0.10184306  1
  O  O167  1  0.49712551  0.21310497  0.52346663  1
  O  O168  1  0.53362056  0.77999290  0.15238232  1
  O  O169  1  0.54582454  0.78883631  0.62767211  1
  O  O170  1  1.01261008  0.25421683  0.14615849  1
  O  O171  1  0.97983058  0.23268161  0.62806072  1
  O  O172  1  0.95526300  0.75588266  0.13799392  1
  O  O173  1  1.01887872  0.71794287  0.63657050  1
  O  O174  1  -0.01753428  0.26122322  0.38326701  1
  O  O175  1  -0.04010493  0.24302362  0.90291614  1
  O  O176  1  -0.01172539  0.77268373  0.45831499  1
  O  O177  1  -0.01209228  0.75312734  0.86766277  1
  O  O178  1  0.43759006  0.33231325  0.30742592  1
  O  O179  1  0.53257589  0.27344096  0.85932679  1
  O  O180  1  0.50465749  0.77569563  0.35592289  1
  O  O181  1  0.51282348  0.80045492  0.86228284  1
  O  O182  1  0.22349404  0.14027341  0.51027527  1
  O  O183  1  0.25571621  0.10994182  0.95862429  1
  O  O184  1  0.24169512  0.60757735  0.50389584  1
  O  O185  1  0.27352062  0.66664261  0.95654437  1
  O  O186  1  0.74826776  0.15375182  0.49157597  1
  O  O187  1  0.74567068  0.15083911  1.03237639  1
  O  O188  1  0.71380722  0.65809652  0.44914551  1
  O  O189  1  0.73194948  0.64413975  1.01799262  1
  O  O190  1  0.24949122  0.40400028  -0.02828140  1
  O  O191  1  0.23591548  0.35595468  0.52825805  1
  O  O192  1  0.24700058  0.86957396  -0.00825005  1
  O  O193  1  0.24995331  0.83394316  0.50109990  1
  O  O194  1  0.77218087  0.31161067  0.02788332  1
  O  O195  1  0.76815254  0.36558856  0.50688318  1
  O  O196  1  0.71301839  0.83394849  0.00633236  1
  O  O197  1  0.73430775  0.85226217  0.47672602  1
  O  O198  1  0.04551307  0.45413776  0.11442853  1
  O  O199  1  0.07726366  0.44899448  0.73963377  1
  O  O200  1  0.16448729  0.99480704  0.29895396  1
  O  O201  1  0.11732080  0.98993569  0.79384721  1
  O  O202  1  0.63314560  0.51409993  0.31185416  1
  O  O203  1  0.64671612  0.53008077  0.71908363  1
  O  O204  1  0.63537819  1.01497368  0.25033343  1
  O  O205  1  0.64927380  0.99793870  0.73514527  1
  O  O206  1  0.40243125  0.01355048  0.33411986  1
  O  O207  1  0.27813173  0.06299050  0.70754486  1
  O  O208  1  0.32285894  0.52475555  0.18945178  1
  O  O209  1  0.32477930  0.52078920  0.79419571  1
  O  O210  1  0.86024004  0.02441771  0.27575322  1
  O  O211  1  0.86395004  -0.01524491  0.74101090  1
  O  O212  1  0.86701128  0.51463881  0.29191508  1
  O  O213  1  0.86902507  0.51857009  0.76379883  1
  O  O214  1  0.09533279  0.37510141  0.36973712  1
  O  O215  1  0.13138928  0.37490930  0.86918124  1
  O  O216  1  0.09133710  0.85778113  0.37067283  1
  O  O217  1  0.11869489  0.91988082  0.81961253  1
  O  O218  1  0.60670849  0.40099618  0.43466428  1
  O  O219  1  0.58116826  0.40579060  0.80895088  1
  O  O220  1  0.60751526  0.91980356  0.37705681  1
  O  O221  1  0.66658365  0.82784352  0.83058468  1
  O  O222  1  0.39047353  0.10444741  0.08488793  1
  O  O223  1  0.39288297  0.10269254  0.58778287  1
  O  O224  1  0.26674700  0.55762354  0.14833255  1
  O  O225  1  0.35182202  0.58154269  0.66623044  1
  O  O226  1  0.88797505  0.15699688  0.14000863  1
  O  O227  1  0.87754997  0.13415436  0.62970795  1
  O  O228  1  0.85790487  0.58067597  0.14164203  1
  O  O229  1  0.88058645  0.65424211  0.64584719  1
  O  O230  1  0.22345360  0.22014700  0.15196411  1
  O  O231  1  0.25460348  0.23959447  0.62402423  1
  O  O232  1  0.21106995  0.74202740  0.04456201  1
  O  O233  1  0.23229579  0.72799204  0.60401880  1
  O  O234  1  0.72676915  0.28654551  0.17898235  1
  O  O235  1  0.75761431  0.24081695  0.61767128  1
  O  O236  1  0.74480848  0.73737538  0.13868975  1
  O  O237  1  0.75912098  0.78598530  0.67385050  1
  O  O238  1  0.26165269  0.31992278  0.33091770  1
  O  O239  1  0.24006567  0.16855801  0.77025338  1
  O  O240  1  0.27001774  0.73092203  0.39154150  1
  O  O241  1  0.32040515  0.78572306  0.87538087  1
  O  O242  1  0.73883041  0.25115234  0.38167667  1
  O  O243  1  0.75431160  0.26527961  0.87261373  1
  O  O244  1  0.68065123  0.69626716  0.39924170  1
  O  O245  1  0.78344456  0.74365768  0.89123223  1
  O  O246  1  0.08017708  0.06040522  0.05077719  1
  O  O247  1  -0.00454811  0.12941091  0.51379582  1
  O  O248  1  0.07673124  0.63128522  0.05952111  1
  O  O249  1  0.05812737  0.61112006  0.53604276  1
  O  O250  1  0.53692773  0.10667889  0.00889938  1
  O  O251  1  0.50232823  0.15761271  0.48181906  1
  O  O252  1  0.48560546  0.67304620  0.04028527  1
  O  O253  1  0.53559031  0.68291782  0.48792943  1
  O  O254  1  0.55112555  0.45864490  0.43160925  1
  O  O255  1  0.52645547  0.35890191  0.95687219  1
  O  O256  1  0.45581655  0.88785954  0.50985592  1
  O  O257  1  0.52274339  0.88146545  1.02930483  1
  O  O258  1  0.98781763  0.36331404  0.49808820  1
  O  O259  1  1.05271268  0.33653593  0.99377588  1
  O  O260  1  1.00876238  0.91794818  0.48462336  1
  O  O261  1  1.05554394  0.86014279  1.05117535  1
  O  O262  1  0.48995812  0.44352926  0.39700331  1
  O  O263  1  0.49079775  0.47602029  0.87221163  1
  O  O264  1  0.46807144  1.00190157  0.36171115  1
  O  O265  1  0.59397642  0.96700251  0.91836552  1
  O  O266  1  0.98387729  0.49643088  0.39035651  1
  O  O267  1  1.00296804  0.50409925  0.87674777  1
  O  O268  1  0.97684032  1.04299583  0.39872598  1
  O  O269  1  0.94896011  1.00952063  0.87916078  1
  O  O270  1  0.04938433  0.10564633  0.22146932  1
  O  O271  1  0.00025964  0.01231052  0.60264413  1
  O  O272  1  -0.01206539  0.46437365  0.07485039  1
  O  O273  1  -0.02521156  0.52884391  0.63432841  1
  O  O274  1  0.53097599  0.00572225  0.11082710  1
  O  O275  1  0.53352148  0.00115681  0.63539131  1
  O  O276  1  0.48771140  0.55105945  0.16227780  1
  O  O277  1  0.53767259  0.39688302  0.59294780  1
  O  O278  1  0.11021488  0.49406866  0.25339997  1
  O  O279  1  0.22370111  0.36065220  0.74559058  1
  O  O280  1  0.24575946  0.82473703  0.20997001  1
  O  O281  1  0.24271956  0.82321767  0.71233380  1
  O  O282  1  0.75631598  0.41610531  0.27225569  1
  O  O283  1  0.76307515  0.41002954  0.74506350  1
  O  O284  1  0.74345352  0.92196196  0.27661649  1
  O  O285  1  0.84897273  0.91569037  0.74535863  1
  O  O286  1  0.31173283  0.09329154  0.23802213  1
  O  O287  1  0.29494689  0.11772665  0.75130700  1
  O  O288  1  0.23997087  0.62485855  0.17838609  1
  O  O289  1  0.27549134  0.65340573  0.76736788  1
  O  O290  1  0.73271061  0.13765767  0.27450678  1
  O  O291  1  0.71642408  0.15836694  0.77103488  1
  O  O292  1  0.75471279  0.60590371  0.26508807  1
  O  O293  1  0.77168841  0.63199795  0.75688530  1
  O  O294  1  0.39394622  0.16829696  0.35558871  1
  O  O295  1  0.51609375  0.10410633  0.80617181  1
  O  O296  1  0.44604642  0.52880859  0.53231400  1
  O  O297  1  0.40089404  0.61457891  0.85673538  1
  O  O298  1  0.85008309  0.13213928  0.38222455  1
  O  O299  1  0.81545977  0.11144479  0.88899733  1
  O  O300  1  0.88009243  0.61127231  0.41364804  1
  O  O301  1  0.88684589  0.61964351  0.86113288  1
  O  O302  1  0.13809267  0.34076952  0.20846325  1
  O  O303  1  0.12875921  0.32810025  0.65011922  1
  O  O304  1  0.20326749  0.87718835  0.18404331  1
  O  O305  1  0.11668750  0.84521614  0.60210989  1
  O  O306  1  0.63216399  0.39165631  0.10402778  1
  O  O307  1  0.48373545  0.36014135  0.56971803  1
  O  O308  1  0.64691804  0.90977356  0.15677818  1
  O  O309  1  0.64834711  0.89844290  0.64621373  1
  O  O310  1  0.19660174  0.16217230  0.32449081  1
  O  O311  1  0.10615169  0.25005843  0.78029639  1
  O  O312  1  0.08988718  0.72137838  0.20442958  1
  O  O313  1  0.10935171  0.72970451  0.77260766  1
  O  O314  1  0.55792724  0.25062138  0.23950784  1
  O  O315  1  0.57901021  0.25454108  0.69530362  1
  O  O316  1  0.66217593  0.80112025  0.28171991  1
  O  O317  1  0.59601387  0.68901631  0.77658677  1
  O  O318  1  0.38570027  0.23156588  0.21260642  1
  O  O319  1  0.40390321  0.16096151  0.62373127  1
  O  O320  1  0.41736440  0.73312799  0.24822184  1
  O  O321  1  0.39311135  0.70680396  0.74243425  1
  O  O322  1  0.87894212  0.27896664  0.24967657  1
  O  O323  1  0.86089397  0.26225640  0.73144887  1
  O  O324  1  0.85599627  0.71136281  0.22935844  1
  O  O325  1  0.88337719  0.74203353  0.75678047  1
  O  O326  1  0.38485835  0.49208100  0.53435160  1
  O  O327  1  0.40902162  0.53004666  1.03598500  1
  O  O328  1  0.31741950  0.98345012  0.48214277  1
  O  O329  1  0.44171075  1.00360383  0.96134539  1
  O  O330  1  0.87189848  0.48241413  0.50761674  1
  O  O331  1  0.88283538  0.52016857  0.97436413  1
  O  O332  1  0.86244328  1.01022666  0.49141891  1
  O  O333  1  0.86786271  1.01855615  1.01535887  1
  O  O334  1  0.16564208  -0.00391792  -0.04907446  1
  O  O335  1  0.11757172  0.03075194  0.48387262  1
  O  O336  1  0.10990036  0.34553737  0.03498424  1
  O  O337  1  0.14574393  0.49934729  0.46624200  1
  O  O338  1  0.66159533  0.01914061  0.03597181  1
  O  O339  1  0.63370567  -0.00869176  0.53271820  1
  O  O340  1  0.57435953  0.53103763  0.02010317  1
  O  O341  1  0.63962189  0.52067506  0.55013906  1
  O  O342  1  0.31338701  0.38809651  0.08127028  1
  O  O343  1  0.33676716  0.36925554  0.64153865  1
  O  O344  1  0.37797430  0.89182996  0.16060935  1
  O  O345  1  0.34159663  0.85485362  0.59285835  1
  O  O346  1  0.84091232  0.39169277  0.13567147  1
  O  O347  1  0.88766937  0.36938834  0.61927095  1
  O  O348  1  0.83598835  0.86250472  0.13680663  1
  O  O349  1  0.90935960  0.84150877  0.61504553  1
  O  O350  1  0.12964727  0.15735813  0.34890995  1
  O  O351  1  0.10640702  0.11236938  0.90731616  1
  O  O352  1  0.11088385  0.62284770  0.37631034  1
  O  O353  1  0.09235179  0.58208275  1.00323244  1
  O  O354  1  0.63531227  0.11290750  0.38905645  1
  O  O355  1  0.64097586  0.14981786  0.91422648  1
  O  O356  1  0.53909996  0.62133740  0.45545154  1
  O  O357  1  0.58551106  0.63522745  0.83545479  1
