# generated using pymatgen
data_V51Zn51O256
_symmetry_space_group_name_H-M   'P 1'
_cell_length_a   17.77933534
_cell_length_b   17.81726251
_cell_length_c   17.74330573
_cell_angle_alpha   90.36503274
_cell_angle_beta   90.41725440
_cell_angle_gamma   88.57767418
_symmetry_Int_Tables_number   1
_chemical_formula_structural   V51Zn51O256
_chemical_formula_sum   'V51 Zn51 O256'
_cell_volume   5618.71965478
_cell_formula_units_Z   1
loop_
 _symmetry_equiv_pos_site_id
 _symmetry_equiv_pos_as_xyz
  1  'x, y, z'
loop_
 _atom_site_type_symbol
 _atom_site_label
 _atom_site_symmetry_multiplicity
 _atom_site_fract_x
 _atom_site_fract_y
 _atom_site_fract_z
 _atom_site_occupancy
  V  V0  1  0.28570092  0.43630120  0.61870147  1
  V  V1  1  0.42746217  0.04026177  0.37762317  1
  V  V2  1  0.41498958  0.12814640  0.22181649  1
  V  V3  1  0.01728404  0.79708554  0.32599046  1
  V  V4  1  0.89066970  0.48120321  0.86066303  1
  V  V5  1  0.11410743  0.53298673  0.64539259  1
  V  V6  1  0.86809835  0.41542028  0.50142951  1
  V  V7  1  0.79477414  0.11266466  0.44924848  1
  V  V8  1  0.61083084  0.39771320  0.74603839  1
  V  V9  1  0.21644256  0.12860670  0.32328460  1
  V  V10  1  0.54877559  0.82502337  0.74169037  1
  V  V11  1  0.66805796  0.24786258  0.42680376  1
  V  V12  1  0.76810300  0.49332774  0.27183057  1
  V  V13  1  0.20927243  0.87131760  0.53855950  1
  V  V14  1  0.90542961  0.07524149  0.19582640  1
  V  V15  1  0.35279463  -0.06249775  0.91837074  1
  V  V16  1  0.74730413  0.02147629  0.23291918  1
  V  V17  1  0.13412816  0.93206732  0.28031864  1
  V  V18  1  0.40253398  0.11111826  0.67949371  1
  V  V19  1  0.12468416  0.14428791  0.02274990  1
  V  V20  1  0.91106488  0.38046194  0.03196662  1
  V  V21  1  0.19829961  0.59596205  0.90974671  1
  V  V22  1  0.77486331  0.02440625  0.77042108  1
  V  V23  1  0.74772840  0.44815541  0.63363046  1
  V  V24  1  0.63329274  0.10661357  0.56123119  1
  V  V25  1  0.28015348  0.59133094  0.34421349  1
  V  V26  1  0.76113532  0.66811527  0.37368276  1
  V  V27  1  0.85915549  0.78582194  0.61426844  1
  V  V28  1  -0.04986399  0.25156381  0.23111964  1
  V  V29  1  0.23137786  0.51667261  0.77259422  1
  V  V30  1  0.91374124  0.04057716  0.90179700  1
  V  V31  1  0.09677081  0.33589423  0.24658638  1
  V  V32  1  0.63403206  0.62361014  0.46977759  1
  V  V33  1  0.55421055  0.64233455  0.10479205  1
  V  V34  1  0.80371009  0.73676187  0.09741778  1
  V  V35  1  0.30983454  0.36919672  0.10416909  1
  V  V36  1  0.14550496  0.36983165  0.72372131  1
  V  V37  1  0.14809757  0.26527677  0.89436058  1
  V  V38  1  0.00514220  0.34268860  0.81704548  1
  V  V39  1  0.27691224  0.75551840  0.45349626  1
  V  V40  1  0.08680044  0.65236418  0.02792822  1
  V  V41  1  0.36866971  0.52248169  0.90363266  1
  V  V42  1  0.04426220  0.37231730  0.41776889  1
  V  V43  1  -0.09581031  0.71924710  0.78282164  1
  V  V44  1  0.28436921  0.19395733  0.47993533  1
  V  V45  1  0.89377017  0.54073795  0.38595867  1
  V  V46  1  0.42267944  0.33237011  -0.05343098  1
  V  V47  1  0.13035034  0.77884884  0.90179002  1
  V  V48  1  0.14887105  0.00568695  0.10994133  1
  V  V49  1  0.40785526  0.62686068  0.62359137  1
  V  V50  1  0.78154255  0.24646458  -0.05399001  1
  Zn  Zn51  1  0.31043691  0.34047038  0.82272975  1
  Zn  Zn52  1  0.23584543  0.61817765  0.55252946  1
  Zn  Zn53  1  0.28171854  0.26046555  0.27002063  1
  Zn  Zn54  1  0.17580390  0.32684849  0.56387916  1
  Zn  Zn55  1  0.63800111  0.17887827  0.75887059  1
  Zn  Zn56  1  0.28305796  0.18112235  0.12871611  1
  Zn  Zn57  1  0.77769011  0.87433490  0.36872500  1
  Zn  Zn58  1  0.17773654  0.47878744  0.47715392  1
  Zn  Zn59  1  0.45348734  0.17106820  0.51726592  1
  Zn  Zn60  1  0.10694347  -0.02047215  0.91522124  1
  Zn  Zn61  1  0.62819618  0.26829402  0.61689103  1
  Zn  Zn62  1  0.61333857  0.58210686  0.29745166  1
  Zn  Zn63  1  0.48105447  0.72903524  0.94771341  1
  Zn  Zn64  1  0.68268241  0.73818689  0.62854761  1
  Zn  Zn65  1  0.59327917  0.25901383  -0.07444382  1
  Zn  Zn66  1  0.72724225  0.53744041  0.07513969  1
  Zn  Zn67  1  0.71494509  0.74074848  0.81173231  1
  Zn  Zn68  1  0.96604982  0.22506080  0.96009109  1
  Zn  Zn69  1  0.54943206  0.93271928  0.91268675  1
  Zn  Zn70  1  0.06471018  0.61025627  0.34567203  1
  Zn  Zn71  1  0.79334208  0.31597195  0.34561373  1
  Zn  Zn72  1  0.08260369  0.12809244  0.22596406  1
  Zn  Zn73  1  0.27718301  0.94262051  0.38358047  1
  Zn  Zn74  1  0.44998373  0.59110995  0.44712190  1
  Zn  Zn75  1  0.42915871  0.48917244  0.73880758  1
  Zn  Zn76  1  0.34060756  0.00969695  0.54155024  1
  Zn  Zn77  1  0.82007384  0.59905423  0.55158640  1
  Zn  Zn78  1  0.38729123  0.52858471  0.10359390  1
  Zn  Zn79  1  0.53011091  0.72449267  0.55133451  1
  Zn  Zn80  1  0.70007907  0.44636867  0.42570228  1
  Zn  Zn81  1  0.58078283  0.10821564  0.31503178  1
  Zn  Zn82  1  0.32327415  0.72589686  0.91372040  1
  Zn  Zn83  1  0.11607884  0.37129829  0.06008625  1
  Zn  Zn84  1  0.92017581  0.24101299  0.41320813  1
  Zn  Zn85  1  0.30364938  0.94587171  0.21137291  1
  Zn  Zn86  1  0.48450680  0.64532642  0.80533527  1
  Zn  Zn87  1  0.52597720  0.08754700  0.84555157  1
  Zn  Zn88  1  0.86639768  0.89582915  0.21152879  1
  Zn  Zn89  1  0.95489489  0.43999031  0.67661577  1
  Zn  Zn90  1  0.80272652  0.06744884  0.04416915  1
  Zn  Zn91  1  0.81245801  0.33945992  0.79255794  1
  Zn  Zn92  1  0.29770085  0.25418096  0.68126784  1
  Zn  Zn93  1  0.02250898  0.84534272  0.52281919  1
  Zn  Zn94  1  0.90284354  0.66742624  0.93440483  1
  Zn  Zn95  1  0.89903092  0.42136911  0.22309536  1
  Zn  Zn96  1  0.09983062  0.65993966  0.77901453  1
  Zn  Zn97  1  0.44566369  0.22119460  0.80386410  1
  Zn  Zn98  1  0.35189419  0.01491761  0.08184434  1
  Zn  Zn99  1  0.64229870  0.78523904  -0.01027675  1
  Zn  Zn100  1  0.75780726  0.96638368  0.56180194  1
  Zn  Zn101  1  0.71207169  0.44918052  0.91839135  1
  O  O102  1  0.10045875  0.10086276  0.12136275  1
  O  O103  1  0.12318609  0.08611007  0.67624820  1
  O  O104  1  0.08860217  0.67058484  0.11723355  1
  O  O105  1  0.10977348  0.62443770  0.67770247  1
  O  O106  1  0.63191257  0.11808994  0.01050858  1
  O  O107  1  0.63515524  0.16136712  0.64783272  1
  O  O108  1  0.61812947  0.56118533  0.09703672  1
  O  O109  1  0.63128354  0.67795489  0.55824721  1
  O  O110  1  0.50867402  0.46099377  0.25400865  1
  O  O111  1  0.37390601  0.40315278  0.89128865  1
  O  O112  1  0.42536586  0.74156049  0.28581115  1
  O  O113  1  0.32885592  0.84642153  0.89550099  1
  O  O114  1  0.96171346  0.42142110  0.44010145  1
  O  O115  1  0.92063035  0.31428260  0.78206645  1
  O  O116  1  0.91179558  0.84043797  0.30291711  1
  O  O117  1  0.77897677  0.87675588  0.82744247  1
  O  O118  1  0.24858598  0.04480961  0.35621019  1
  O  O119  1  0.26838493  -0.03280275  0.87970357  1
  O  O120  1  0.20840388  0.51209588  0.37329655  1
  O  O121  1  0.21040985  0.50180512  0.88644541  1
  O  O122  1  0.77662310  0.05369306  0.37959848  1
  O  O123  1  0.74544521  -0.06024766  0.83879031  1
  O  O124  1  0.80094522  0.48402381  0.38892516  1
  O  O125  1  0.80320055  0.43272345  0.85624924  1
  O  O126  1  0.35168624  0.44205632  0.15272497  1
  O  O127  1  0.24250016  0.52232779  0.67075711  1
  O  O128  1  0.24598282  1.00908095  0.12882178  1
  O  O129  1  0.26064821  0.94285353  0.57198254  1
  O  O130  1  0.76022240  0.51361629  0.17759887  1
  O  O131  1  0.78384247  0.53534465  0.63769635  1
  O  O132  1  0.75124769  1.01554156  0.13600508  1
  O  O133  1  0.77844766  0.99239920  0.68247638  1
  O  O134  1  -0.02135969  0.34895459  0.24381156  1
  O  O135  1  0.03707725  0.37176974  0.71816905  1
  O  O136  1  -0.07626021  0.76133167  0.29702268  1
  O  O137  1  -0.18302084  0.69731870  0.81272153  1
  O  O138  1  0.59001107  0.34000941  0.22597092  1
  O  O139  1  0.44767102  0.32455777  0.62559631  1
  O  O140  1  0.42360688  0.80626358  0.26153692  1
  O  O141  1  0.45274289  0.83049975  0.72906109  1
  O  O142  1  0.51014230  0.12912106  0.22664253  1
  O  O143  1  0.44466174  0.11139090  0.77367862  1
  O  O144  1  0.59208526  0.63324466  0.20190771  1
  O  O145  1  0.44486099  0.59720398  0.71543912  1
  O  O146  1  0.97063512  0.13849033  0.23811084  1
  O  O147  1  1.12500557  0.01945801  0.69221541  1
  O  O148  1  1.06322100  0.71160313  0.32159764  1
  O  O149  1  0.97628099  0.63407866  0.77412395  1
  O  O150  1  0.40636004  0.24733057  -0.09318427  1
  O  O151  1  0.36526166  0.23972551  0.50278294  1
  O  O152  1  0.38877064  0.74642531  -0.00288920  1
  O  O153  1  0.36864110  0.75120423  0.45188141  1
  O  O154  1  0.87006262  0.29151867  -0.01541978  1
  O  O155  1  0.85295130  0.33262556  0.44835942  1
  O  O156  1  0.83829866  0.73139342  -0.00042115  1
  O  O157  1  0.92656143  0.82804909  0.56347464  1
  O  O158  1  0.20612533  0.23299467  0.52328634  1
  O  O159  1  0.14904984  0.31419043  0.97464956  1
  O  O160  1  0.05068726  0.70749268  0.55589089  1
  O  O161  1  0.07855454  0.74171689  0.98115438  1
  O  O162  1  0.63134741  0.28158409  0.51436324  1
  O  O163  1  0.69354353  0.28927996  0.96040329  1
  O  O164  1  0.53536318  0.65326242  0.45938423  1
  O  O165  1  0.68481050  0.73066827  0.91031564  1
  O  O166  1  0.53960644  0.20346750  0.01905554  1
  O  O167  1  0.50202003  0.34602174  0.59052906  1
  O  O168  1  0.62476684  0.69027083  0.05347759  1
  O  O169  1  0.44013470  0.71508175  0.60165946  1
  O  O170  1  0.90407717  0.25399081  0.15168778  1
  O  O171  1  1.02286045  0.23562867  0.59633307  1
  O  O172  1  0.89453694  0.71433849  0.12784275  1
  O  O173  1  0.88714760  0.79247930  0.71206580  1
  O  O174  1  0.02163977  0.27992602  0.41571294  1
  O  O175  1  0.02960171  0.26464909  0.87765554  1
  O  O176  1  0.02265387  0.82637245  0.41656328  1
  O  O177  1  -0.05600322  0.74538593  0.86785366  1
  O  O178  1  0.40467328  0.36018248  0.34224521  1
  O  O179  1  0.56109595  0.19334626  0.83751079  1
  O  O180  1  0.52572759  0.83091621  0.48720663  1
  O  O181  1  0.55375613  0.68233332  0.88437416  1
  O  O182  1  0.29021804  0.10323518  0.50850753  1
  O  O183  1  0.20743134  0.18151085  1.05361292  1
  O  O184  1  0.23924977  0.66474183  0.45311795  1
  O  O185  1  0.17994194  0.60716623  1.00891581  1
  O  O186  1  0.81005993  0.05531060  0.52817622  1
  O  O187  1  0.77607838  0.15902465  0.98388260  1
  O  O188  1  0.74401047  0.63978552  0.47356927  1
  O  O189  1  0.71671222  0.55121850  0.96544626  1
  O  O190  1  0.22843474  0.40149742  0.06541536  1
  O  O191  1  0.27811212  0.46534153  0.52680015  1
  O  O192  1  0.31699324  0.63196427  0.09799739  1
  O  O193  1  0.23307077  0.86030377  0.43921387  1
  O  O194  1  0.70365521  0.29459538  0.14445980  1
  O  O195  1  0.76347717  0.42203586  0.53547105  1
  O  O196  1  0.63391855  0.88825326  -0.03776571  1
  O  O197  1  0.76976252  0.90628212  0.46845279  1
  O  O198  1  0.06774090  0.55409130  0.21526542  1
  O  O199  1  0.12988543  0.49281924  0.74754965  1
  O  O200  1  0.11730918  1.00844722  0.21939153  1
  O  O201  1  0.17509244  1.02256709  0.84510215  1
  O  O202  1  0.67407024  0.49069784  0.30657395  1
  O  O203  1  0.51803096  0.42345109  0.74780973  1
  O  O204  1  0.66209860  1.05424532  0.26129257  1
  O  O205  1  0.55507575  0.91414539  0.70620998  1
  O  O206  1  0.38768391  0.05083609  0.28253389  1
  O  O207  1  0.39488805  -0.02582126  0.83911616  1
  O  O208  1  0.46903270  0.50343855  0.29701552  1
  O  O209  1  0.33122144  0.50496476  0.79835155  1
  O  O210  1  0.92863186  -0.01909185  0.20372582  1
  O  O211  1  0.86668657  0.03567971  0.80769658  1
  O  O212  1  0.88303186  0.51599528  0.28476903  1
  O  O213  1  0.90853868  0.48531470  0.76496654  1
  O  O214  1  0.07657656  0.40142487  0.33007976  1
  O  O215  1  0.11952030  0.34247064  0.82144906  1
  O  O216  1  0.11490424  0.96162158  0.36475223  1
  O  O217  1  0.13771404  0.87244967  0.91751715  1
  O  O218  1  0.68847320  0.34139961  0.38971810  1
  O  O219  1  0.65062815  0.41449934  0.83152859  1
  O  O220  1  0.57647034  0.86750308  0.30767023  1
  O  O221  1  0.54208889  0.84301208  0.84018352  1
  O  O222  1  0.37535600  0.11637340  0.12782679  1
  O  O223  1  0.45380867  0.17304367  0.62762353  1
  O  O224  1  0.52259412  0.72843064  0.13937849  1
  O  O225  1  0.31190745  0.63915596  0.62128162  1
  O  O226  1  0.89209839  0.09523226  0.10397684  1
  O  O227  1  1.02118029  0.21482984  0.66196728  1
  O  O228  1  0.77872356  0.64249076  0.07549110  1
  O  O229  1  0.85932187  0.69247367  0.59211273  1
  O  O230  1  0.29252912  0.28973867  0.16079205  1
  O  O231  1  0.28475606  0.33727952  0.61024333  1
  O  O232  1  0.32066235  0.67988151  0.14907277  1
  O  O233  1  0.24675219  0.78093376  0.55557486  1
  O  O234  1  0.66511879  0.24609670  0.11538842  1
  O  O235  1  0.86880035  0.18856680  0.59997953  1
  O  O236  1  0.72938758  0.79693864  0.05412017  1
  O  O237  1  0.75639340  0.79831780  0.57405294  1
  O  O238  1  0.26303526  0.20297437  0.37703713  1
  O  O239  1  0.23778883  0.26665827  0.86098127  1
  O  O240  1  0.25720071  0.75767214  0.34469741  1
  O  O241  1  0.21796930  0.72856748  0.90756409  1
  O  O242  1  0.75859418  0.21420556  0.39961813  1
  O  O243  1  0.78820566  0.24792834  0.84869073  1
  O  O244  1  0.76770135  0.76239742  0.35829327  1
  O  O245  1  0.70599378  0.69382971  0.71833055  1
  O  O246  1  0.04445836  0.19987301  0.03258825  1
  O  O247  1  -0.00796281  0.07222945  0.60651783  1
  O  O248  1  -0.02067120  0.63038264  0.01440414  1
  O  O249  1  0.01673431  0.66119951  0.51736330  1
  O  O250  1  0.57506312  0.14300916  0.04713422  1
  O  O251  1  0.54771648  0.11551467  0.51841304  1
  O  O252  1  0.50474799  0.63567846  0.01624438  1
  O  O253  1  0.43875477  0.56687827  0.55444074  1
  O  O254  1  0.46731571  0.33168103  0.33210463  1
  O  O255  1  0.51827609  0.34060386  0.94610899  1
  O  O256  1  0.53478321  0.89793073  0.50547942  1
  O  O257  1  0.53758658  0.80242005  1.00059645  1
  O  O258  1  1.12113104  0.38633053  0.48159323  1
  O  O259  1  1.00678798  0.36868142  1.03534331  1
  O  O260  1  1.11598610  1.09155147  0.51264399  1
  O  O261  1  0.97801913  0.86317155  1.00950003  1
  O  O262  1  0.50972881  0.55708900  0.33884987  1
  O  O263  1  0.45053721  0.55437779  0.86933018  1
  O  O264  1  0.52172758  1.02556828  0.36540408  1
  O  O265  1  0.44779088  0.89873654  0.93984631  1
  O  O266  1  0.99159177  0.55127182  0.38611604  1
  O  O267  1  0.98464915  0.42113742  0.87083420  1
  O  O268  1  0.97712536  1.02409510  0.47225187  1
  O  O269  1  0.99888326  0.99228015  0.90279630  1
  O  O270  1  -0.03157739  -0.08638938  0.05579854  1
  O  O271  1  -0.04554330  0.03402525  0.64817828  1
  O  O272  1  0.01666355  0.53003501  0.17549583  1
  O  O273  1  0.02442660  0.50904172  0.62935367  1
  O  O274  1  0.59545128  -0.07594512  0.14013467  1
  O  O275  1  0.40097801  0.02614044  0.63112820  1
  O  O276  1  0.47324731  0.59120490  0.12996839  1
  O  O277  1  0.50716608  0.38235704  0.44244886  1
  O  O278  1  0.18528094  0.31155832  0.27845795  1
  O  O279  1  0.23957081  0.40030055  0.75733084  1
  O  O280  1  0.23563547  0.90863990  0.28043453  1
  O  O281  1  0.22199564  0.88500401  0.73095572  1
  O  O282  1  0.79614268  0.39491361  0.26681644  1
  O  O283  1  0.78986847  0.38425743  0.69256516  1
  O  O284  1  0.77427629  0.92836386  0.26974701  1
  O  O285  1  0.64850167  0.81969581  0.77396865  1
  O  O286  1  0.23863954  0.15040381  0.23018868  1
  O  O287  1  0.31114839  0.14724734  0.68109375  1
  O  O288  1  0.31060287  0.56488229  0.26185313  1
  O  O289  1  0.21735387  0.61163996  0.79414447  1
  O  O290  1  0.81866623  0.09169546  0.24420699  1
  O  O291  1  0.71297903  0.09762254  0.78205168  1
  O  O292  1  0.76206803  0.60956197  0.29520283  1
  O  O293  1  0.67172249  0.57538775  0.80865565  1
  O  O294  1  0.41968201  0.12501423  0.41928547  1
  O  O295  1  0.36720776  0.02876030  0.97398790  1
  O  O296  1  0.35462274  0.57641276  0.40501387  1
  O  O297  1  0.31042394  0.60826433  0.91636170  1
  O  O298  1  0.88703083  0.14827885  0.44507537  1
  O  O299  1  0.92723428  0.13274101  0.92010730  1
  O  O300  1  0.86390854  0.63386202  0.39337495  1
  O  O301  1  0.88087168  0.57194365  0.89041194  1
  O  O302  1  0.10987791  0.38570152  0.16726421  1
  O  O303  1  0.15835932  0.41935417  0.62874007  1
  O  O304  1  0.12087262  0.91932066  0.09804317  1
  O  O305  1  0.11463481  0.88179756  0.55815288  1
  O  O306  1  0.54092310  0.32484681  0.17997211  1
  O  O307  1  0.65208968  0.44924081  0.66777282  1
  O  O308  1  0.58948141  0.97877453  0.09826304  1
  O  O309  1  0.58366929  0.79548683  0.64642850  1
  O  O310  1  0.06167324  0.24322015  0.22380265  1
  O  O311  1  0.17071143  0.28392592  0.68686915  1
  O  O312  1  0.07006016  0.85542364  0.26379465  1
  O  O313  1  0.09530929  0.76464925  0.81209683  1
  O  O314  1  0.60383443  0.20150554  0.37104267  1
  O  O315  1  0.62644537  0.30010250  0.72028459  1
  O  O316  1  0.58411416  0.80493313  0.33606898  1
  O  O317  1  0.53835211  0.72294000  0.74492942  1
  O  O318  1  0.38290212  0.21034310  0.26082869  1
  O  O319  1  0.37554011  0.28729096  0.75213806  1
  O  O320  1  0.27840756  0.69579159  0.30605910  1
  O  O321  1  0.41664339  0.72096910  0.85777701  1
  O  O322  1  0.88316115  0.25340769  0.30611932  1
  O  O323  1  0.87929599  0.18762068  0.66831387  1
  O  O324  1  0.75408224  0.71938180  0.17784716  1
  O  O325  1  0.94049727  0.64874279  0.70642148  1
  O  O326  1  0.44396212  0.41004724  0.45266923  1
  O  O327  1  0.38608948  0.50484305  0.99813213  1
  O  O328  1  0.37582569  0.97297791  0.43286551  1
  O  O329  1  0.32163671  0.92390969  1.01717680  1
  O  O330  1  0.87981817  0.52058284  0.49652462  1
  O  O331  1  0.88805437  0.45160166  0.97195390  1
  O  O332  1  0.94290374  0.96809879  0.49045203  1
  O  O333  1  0.85121646  1.00519825  0.96593464  1
  O  O334  1  0.13869985  0.03900242  0.00683410  1
  O  O335  1  0.07531562  0.14471344  0.49480128  1
  O  O336  1  0.02363996  0.56563759  0.01617223  1
  O  O337  1  0.14810751  0.55698082  0.54883209  1
  O  O338  1  0.51801128  0.03408743  -0.06089452  1
  O  O339  1  0.65562125  0.01432947  0.57341481  1
  O  O340  1  0.71763899  0.44115770  0.02601811  1
  O  O341  1  0.63611417  0.52766335  0.47204841  1
  O  O342  1  0.37943638  0.33420486  0.03754946  1
  O  O343  1  0.37457304  0.45189169  0.64921348  1
  O  O344  1  0.39227365  0.94974924  0.15802061  1
  O  O345  1  0.23387533  0.81651141  0.73242439  1
  O  O346  1  0.87923345  0.41149357  0.11712508  1
  O  O347  1  0.90839593  0.39330886  0.58482055  1
  O  O348  1  0.83471631  0.82821226  0.13088113  1
  O  O349  1  0.77623575  0.86075385  0.62174889  1
  O  O350  1  0.12150931  0.13334351  0.33068357  1
  O  O351  1  0.13702577  0.16765530  0.92067700  1
  O  O352  1  0.17048320  0.57664742  0.33892736  1
  O  O353  1  0.10594703  0.61972196  0.88427869  1
  O  O354  1  0.69582833  0.14689289  0.49461590  1
  O  O355  1  0.58645936  -0.00220172  0.83329763  1
  O  O356  1  0.65055968  0.65604411  0.37251061  1
  O  O357  1  0.60628084  0.56999741  0.78582835  1
