# generated using pymatgen
data_V51Zn51O256
_symmetry_space_group_name_H-M   'P 1'
_cell_length_a   17.17849244
_cell_length_b   17.54263665
_cell_length_c   17.34409592
_cell_angle_alpha   90.75482154
_cell_angle_beta   90.02321264
_cell_angle_gamma   88.38065417
_symmetry_Int_Tables_number   1
_chemical_formula_structural   V51Zn51O256
_chemical_formula_sum   'V51 Zn51 O256'
_cell_volume   5224.20746463
_cell_formula_units_Z   1
loop_
 _symmetry_equiv_pos_site_id
 _symmetry_equiv_pos_as_xyz
  1  'x, y, z'
loop_
 _atom_site_type_symbol
 _atom_site_label
 _atom_site_symmetry_multiplicity
 _atom_site_fract_x
 _atom_site_fract_y
 _atom_site_fract_z
 _atom_site_occupancy
  V  V0  1  0.80979954  0.00710365  0.79376231  1
  V  V1  1  0.73517455  0.58689173  0.35597510  1
  V  V2  1  0.79462079  0.75915085  0.44136597  1
  V  V3  1  0.52962243  -0.00692796  0.50349880  1
  V  V4  1  0.61999443  0.62379574  -0.01835362  1
  V  V5  1  0.27448723  0.89984649  0.14708666  1
  V  V6  1  -0.01273259  0.06133766  0.58390356  1
  V  V7  1  0.58538370  0.38388931  0.75452608  1
  V  V8  1  0.64670318  0.85809636  0.73533198  1
  V  V9  1  0.13873907  0.35020224  0.27932369  1
  V  V10  1  0.51160223  0.46544666  0.03736942  1
  V  V11  1  0.15103501  0.49686170  0.12163191  1
  V  V12  1  0.62489142  0.83237772  0.23054628  1
  V  V13  1  0.24713637  0.50065467  0.30338595  1
  V  V14  1  0.87563626  0.59139204  0.21712409  1
  V  V15  1  0.20360976  0.76685442  0.50912511  1
  V  V16  1  0.10076608  0.23485080  0.43252904  1
  V  V17  1  0.49844760  0.00723230  0.01758066  1
  V  V18  1  0.73306412  0.13363411  0.88395296  1
  V  V19  1  -0.00249011  0.88481582  0.31753559  1
  V  V20  1  0.91997960  0.13527112  0.20947587  1
  V  V21  1  0.39659870  0.35832540  0.51341244  1
  V  V22  1  0.37483094  0.64206971  0.29498505  1
  V  V23  1  0.36734093  0.00851350  0.37018247  1
  V  V24  1  0.31307192  0.91597173  0.51118015  1
  V  V25  1  0.37598069  0.87584298  -0.01501664  1
  V  V26  1  0.36765406  0.75898992  0.59757383  1
  V  V27  1  0.13153694  0.15354390  -0.00666511  1
  V  V28  1  0.27816018  0.37623512  0.12895877  1
  V  V29  1  0.20646139  0.65353410  0.38604699  1
  V  V30  1  0.05986996  0.49843746  0.48697817  1
  V  V31  1  0.74650115  0.27287785  0.50660416  1
  V  V32  1  0.48973100  0.11508531  0.62863806  1
  V  V33  1  0.14481156  0.38004662  0.77297858  1
  V  V34  1  0.37602190  0.24164368  0.15795453  1
  V  V35  1  0.65210511  0.10968902  0.52996730  1
  V  V36  1  0.55756851  0.23028829  0.29344795  1
  V  V37  1  0.51167969  0.63703923  0.61226297  1
  V  V38  1  0.23992922  0.12755478  0.38343451  1
  V  V39  1  0.91899413  0.41158650  0.46416487  1
  V  V40  1  0.36205494  0.72100516  0.11310353  1
  V  V41  1  0.86322672  0.46840477  0.85065554  1
  V  V42  1  0.89717274  0.72189587  0.65958288  1
  V  V43  1  0.90451196  0.21532285  0.67798996  1
  V  V44  1  0.48000426  0.76717125  0.75029547  1
  V  V45  1  0.00003136  0.60443927  0.61236507  1
  V  V46  1  0.63652571  0.73681544  0.85586508  1
  V  V47  1  0.61171806  0.73468672  0.38024312  1
  V  V48  1  0.34101791  0.63955176  0.72685306  1
  V  V49  1  0.24058712  0.01249921  0.76539025  1
  V  V50  1  0.73184210  0.27185493  0.00749557  1
  Zn  Zn51  1  0.83417452  0.28048919  0.33586329  1
  Zn  Zn52  1  0.53251375  0.67355081  0.19043492  1
  Zn  Zn53  1  0.38636121  0.49484936  0.62966237  1
  Zn  Zn54  1  0.66221434  0.39746218  0.37652435  1
  Zn  Zn55  1  0.28396696  0.11408225  0.57382291  1
  Zn  Zn56  1  0.07259001  0.75712121  0.64189421  1
  Zn  Zn57  1  0.44680852  0.16369597  0.45463052  1
  Zn  Zn58  1  0.67294232  0.45038595  0.93243288  1
  Zn  Zn59  1  0.89705973  0.94796236  0.16920833  1
  Zn  Zn60  1  0.45110922  0.20045164  0.97649014  1
  Zn  Zn61  1  0.93630720  0.22476862  0.98507312  1
  Zn  Zn62  1  0.77091593  0.29991571  0.80941540  1
  Zn  Zn63  1  0.54723023  0.55408734  0.33384301  1
  Zn  Zn64  1  0.19736971  0.59371878  0.59521348  1
  Zn  Zn65  1  0.81566503  0.57143522  0.03471003  1
  Zn  Zn66  1  0.04698375  0.32238569  0.59077130  1
  Zn  Zn67  1  0.42618468  0.93929020  0.67124644  1
  Zn  Zn68  1  0.79422584  0.05974098  0.05627906  1
  Zn  Zn69  1  0.03711390  1.06928072  0.38307646  1
  Zn  Zn70  1  0.56280056  0.80681546  0.56131718  1
  Zn  Zn71  1  0.90160993  0.61367971  0.46692071  1
  Zn  Zn72  1  0.22782154  0.64988316  0.17979721  1
  Zn  Zn73  1  0.38403032  0.71462949  0.91060971  1
  Zn  Zn74  1  0.23727416  0.41612401  0.95651428  1
  Zn  Zn75  1  0.94026173  0.40543062  0.27345602  1
  Zn  Zn76  1  0.66605741  0.92720689  0.91970625  1
  Zn  Zn77  1  0.30040717  0.81766298  0.79452649  1
  Zn  Zn78  1  0.20448899  0.19378676  0.20136363  1
  Zn  Zn79  1  0.44108083  0.69367882  0.44131798  1
  Zn  Zn80  1  0.47161566  0.86953686  0.14082180  1
  Zn  Zn81  1  0.96681802  0.89749716  0.70913029  1
  Zn  Zn82  1  0.57754242  0.28145456  0.58003608  1
  Zn  Zn83  1  0.39512111  0.04090326  0.17527015  1
  Zn  Zn84  1  0.35400301  0.29075792  0.86081299  1
  Zn  Zn85  1  0.79814561  0.87530719  0.30767485  1
  Zn  Zn86  1  0.30276234  0.82155869  0.33631202  1
  Zn  Zn87  1  0.38485632  0.51891796  0.16656639  1
  Zn  Zn88  1  0.55688496  0.77295839  0.04546412  1
  Zn  Zn89  1  0.80231397  0.07738648  0.62187137  1
  Zn  Zn90  1  0.54408190  0.58554753  0.78335935  1
  Zn  Zn91  1  0.98558070  0.77660224  0.48586682  1
  Zn  Zn92  1  0.22817535  1.00312129  0.97540679  1
  Zn  Zn93  1  0.08051017  0.88943340  0.16566039  1
  Zn  Zn94  1  0.60275004  0.30418571  0.10719113  1
  Zn  Zn95  1  0.80923476  0.78295368  0.78789381  1
  Zn  Zn96  1  0.66500000  0.90598049  0.43091093  1
  Zn  Zn97  1  0.70099676  0.71537458  0.62363589  1
  Zn  Zn98  1  0.23536399  0.20875368  0.74055823  1
  Zn  Zn99  1  0.63003158  0.05771642  0.73348700  1
  Zn  Zn100  1  0.05049835  0.21652644  0.81378178  1
  Zn  Zn101  1  0.75970537  0.34674507  0.19729260  1
  O  O102  1  0.14603364  0.16713421  0.09182583  1
  O  O103  1  0.12668932  0.18020564  0.73988734  1
  O  O104  1  0.17537411  0.59397387  0.10351918  1
  O  O105  1  0.09544542  0.64654573  0.63195725  1
  O  O106  1  0.65369018  0.03486841  0.16787803  1
  O  O107  1  0.63087204  0.09233846  0.62314959  1
  O  O108  1  0.57125790  0.65413645  0.06651506  1
  O  O109  1  0.61082282  0.64768240  0.63011155  1
  O  O110  1  0.39032482  0.36703413  0.41339510  1
  O  O111  1  0.31133725  0.38735701  0.87992930  1
  O  O112  1  0.34351065  0.90639665  0.41004614  1
  O  O113  1  0.34264110  0.82762018  0.89969198  1
  O  O114  1  0.90966378  0.36036064  0.37922411  1
  O  O115  1  0.83306631  0.36985263  0.86952903  1
  O  O116  1  0.90014468  0.89291473  0.26914498  1
  O  O117  1  0.84211265  0.82367296  0.90090232  1
  O  O118  1  0.26176007  0.02808324  0.36004223  1
  O  O119  1  0.25976046  -0.00257791  0.86666408  1
  O  O120  1  0.23219818  0.54988924  0.39266560  1
  O  O121  1  0.25232514  0.54020516  0.93869505  1
  O  O122  1  0.71316951  -0.01448184  0.32701429  1
  O  O123  1  0.75055027  -0.03046808  0.86201912  1
  O  O124  1  0.71574799  0.49272925  0.34791129  1
  O  O125  1  0.75475729  0.48811347  0.86187608  1
  O  O126  1  0.29289539  0.47376906  0.12156966  1
  O  O127  1  0.28401976  0.51802873  0.59390964  1
  O  O128  1  0.29794984  0.99469419  0.14221622  1
  O  O129  1  0.21850838  1.03760674  0.66995447  1
  O  O130  1  0.76549548  0.47324231  0.08068226  1
  O  O131  1  0.69296554  0.49165830  0.56244500  1
  O  O132  1  0.68340394  1.08597034  0.12944468  1
  O  O133  1  0.75795618  1.03040764  0.70825347  1
  O  O134  1  0.05131636  0.39532917  0.27294087  1
  O  O135  1  0.05491191  0.32765885  0.78662032  1
  O  O136  1  0.05945300  0.83466851  0.25694940  1
  O  O137  1  0.06996948  0.85214405  0.90708471  1
  O  O138  1  0.58405752  0.32385367  0.32459469  1
  O  O139  1  0.48554151  0.40540538  0.75259519  1
  O  O140  1  0.50897493  0.87797421  0.25785445  1
  O  O141  1  0.47685740  0.86529371  0.73747416  1
  O  O142  1  0.53948027  0.13255228  0.28796473  1
  O  O143  1  0.51474817  0.08522218  0.71907173  1
  O  O144  1  0.47633407  0.61085204  0.26727068  1
  O  O145  1  0.47677066  0.65464106  0.72581001  1
  O  O146  1  1.00383729  0.09324092  0.17062831  1
  O  O147  1  0.96880290  0.18204489  0.74661907  1
  O  O148  1  0.93686187  0.64847165  0.25908176  1
  O  O149  1  0.96449552  0.66145978  0.70551643  1
  O  O150  1  0.42960409  0.24647137  0.07735587  1
  O  O151  1  0.40663790  0.25641745  0.51180158  1
  O  O152  1  0.36615170  0.69620631  0.01742675  1
  O  O153  1  0.37440934  0.76404525  0.49850681  1
  O  O154  1  0.83104647  0.22352376  -0.00119693  1
  O  O155  1  0.84035255  0.36146880  0.52632711  1
  O  O156  1  0.79253075  0.80612606  -0.04328279  1
  O  O157  1  0.89279170  0.72563055  0.43405442  1
  O  O158  1  0.11101503  0.25574573  0.52953246  1
  O  O159  1  0.16213716  0.24240702  0.97215064  1
  O  O160  1  0.10581035  0.77658817  0.52700618  1
  O  O161  1  0.10346746  0.62093983  0.87865271  1
  O  O162  1  0.64859634  0.21584009  0.51802485  1
  O  O163  1  0.64016938  0.23532469  1.02519226  1
  O  O164  1  0.61709280  0.74634371  0.47736576  1
  O  O165  1  0.62436393  0.73739468  0.95999300  1
  O  O166  1  0.57228276  0.23656109  0.19065668  1
  O  O167  1  0.51765983  0.21154174  0.63360542  1
  O  O168  1  0.45845427  0.74933630  0.14580587  1
  O  O169  1  0.48225090  0.75785626  0.62071336  1
  O  O170  1  1.01621859  0.35572519  0.07744871  1
  O  O171  1  0.95304837  0.28843263  0.63611690  1
  O  O172  1  0.91887959  0.78724229  0.04370391  1
  O  O173  1  0.95631910  0.77518912  0.59208483  1
  O  O174  1  0.00684427  0.23659302  0.41707998  1
  O  O175  1  -0.02087753  0.25332575  0.89172267  1
  O  O176  1  -0.00581472  0.84681445  0.40666417  1
  O  O177  1  -0.03854580  0.68862185  0.93518351  1
  O  O178  1  0.51949290  0.21939796  0.38817417  1
  O  O179  1  0.45720639  0.28037907  0.90175314  1
  O  O180  1  0.51375317  0.73298837  0.36870593  1
  O  O181  1  0.47157238  0.75129489  0.84667293  1
  O  O182  1  0.25640696  0.16300893  0.47457250  1
  O  O183  1  0.23244946  0.11561270  0.97788778  1
  O  O184  1  0.21157838  0.66158162  0.49781377  1
  O  O185  1  0.25039086  0.56618069  0.87256395  1
  O  O186  1  0.75058992  0.09764699  0.52637000  1
  O  O187  1  0.73079351  0.09356825  0.97397632  1
  O  O188  1  0.79480575  0.59002415  0.43516170  1
  O  O189  1  0.71653567  0.61202022  0.99748498  1
  O  O190  1  0.28427991  0.35026429  0.03241970  1
  O  O191  1  0.29599856  0.35072957  0.52102363  1
  O  O192  1  0.27513823  0.91473858  0.00551881  1
  O  O193  1  0.22316325  0.87663857  0.50881937  1
  O  O194  1  0.71662334  0.36585655  -0.01548732  1
  O  O195  1  0.68972920  0.35515226  0.47845519  1
  O  O196  1  0.75335394  0.86226762  -0.00912672  1
  O  O197  1  0.77689329  0.86024634  0.41785479  1
  O  O198  1  0.18111647  0.52676276  0.23521290  1
  O  O199  1  0.10524340  0.47035763  0.76299474  1
  O  O200  1  0.14645527  1.02812977  0.19101041  1
  O  O201  1  0.14081874  1.01381583  0.78100198  1
  O  O202  1  0.60687156  0.54613831  0.20841299  1
  O  O203  1  0.59619372  0.48738453  0.74651594  1
  O  O204  1  0.56623929  0.92859417  0.25959334  1
  O  O205  1  0.61214725  0.94837153  0.73003732  1
  O  O206  1  0.40159416  -0.00174918  0.28104001  1
  O  O207  1  0.34060184  -0.00595068  0.73303992  1
  O  O208  1  0.34344198  0.52291310  0.27508550  1
  O  O209  1  0.36531429  0.54224429  0.72885161  1
  O  O210  1  0.86844856  0.04482551  0.22360363  1
  O  O211  1  0.89630949  -0.03922016  0.77719477  1
  O  O212  1  0.89870828  0.49710744  0.23459154  1
  O  O213  1  0.86587105  0.43605870  0.75425756  1
  O  O214  1  0.14073170  0.31082587  0.37813869  1
  O  O215  1  0.15411943  0.40804909  0.87185222  1
  O  O216  1  0.03495011  0.97490837  0.32599460  1
  O  O217  1  0.15683769  0.74729455  0.97310716  1
  O  O218  1  0.73598759  0.33679642  0.30745918  1
  O  O219  1  0.60168039  0.40277923  0.85559992  1
  O  O220  1  0.62945642  0.83324182  0.34914518  1
  O  O221  1  0.63452252  0.84347063  0.85110086  1
  O  O222  1  0.38447908  0.14815949  0.18929687  1
  O  O223  1  0.39051451  0.12075441  0.61585712  1
  O  O224  1  0.35768778  0.63288040  0.16703250  1
  O  O225  1  0.37762123  0.65936849  0.61537581  1
  O  O226  1  0.85562591  0.12563549  0.12741291  1
  O  O227  1  0.90183915  0.12522824  0.61652335  1
  O  O228  1  0.87109448  0.60966732  0.11610272  1
  O  O229  1  0.90033672  0.63779697  0.58238842  1
  O  O230  1  0.27622817  0.24454050  0.13749350  1
  O  O231  1  0.24164352  0.19733656  0.63392433  1
  O  O232  1  0.26815573  0.75017860  0.13982506  1
  O  O233  1  0.25804345  0.76527660  0.59843602  1
  O  O234  1  0.75720933  0.27920458  0.10845513  1
  O  O235  1  0.78618649  0.24989142  0.59231757  1
  O  O236  1  0.80098258  0.77147997  0.11446458  1
  O  O237  1  0.76319218  0.74596457  0.53181710  1
  O  O238  1  0.25832876  0.18555384  0.30841787  1
  O  O239  1  0.34644712  0.20856909  0.92869128  1
  O  O240  1  0.23122872  0.76340232  0.40462598  1
  O  O241  1  0.19424371  0.75935947  0.82576013  1
  O  O242  1  0.80164607  0.23764506  0.43116013  1
  O  O243  1  0.73164019  0.23688079  0.89237711  1
  O  O244  1  0.73698859  0.71697734  0.37199408  1
  O  O245  1  0.73126407  0.71647484  0.83815709  1
  O  O246  1  0.03194666  0.16888336  0.01281009  1
  O  O247  1  0.06594439  0.10214287  0.61564530  1
  O  O248  1  0.08845653  0.59301296  -0.05877663  1
  O  O249  1  0.01960952  0.59952091  0.50340507  1
  O  O250  1  0.49218540  0.10320877  0.01071427  1
  O  O251  1  0.52313025  0.10912490  0.51676400  1
  O  O252  1  0.44333545  0.58032581  -0.08094300  1
  O  O253  1  0.50290781  0.63856658  0.51414955  1
  O  O254  1  0.50299628  0.34355449  0.52099712  1
  O  O255  1  0.54567836  0.37294899  1.04580026  1
  O  O256  1  0.57476277  0.89913168  0.50230418  1
  O  O257  1  0.46823950  0.83139004  0.99986712  1
  O  O258  1  1.01232114  0.40096362  0.51452563  1
  O  O259  1  0.95520591  0.33020683  1.04825627  1
  O  O260  1  0.87007588  0.98926199  0.40602344  1
  O  O261  1  1.11104887  0.73133183  1.02394208  1
  O  O262  1  0.56647369  0.45969141  0.37781930  1
  O  O263  1  0.45208390  0.54315921  0.85789584  1
  O  O264  1  0.46172758  0.98849342  0.43256372  1
  O  O265  1  0.49026784  1.04218358  0.86161948  1
  O  O266  1  1.09421291  0.48496449  0.40060913  1
  O  O267  1  0.95472149  0.44144343  0.88380585  1
  O  O268  1  0.85612254  1.05474098  0.42928675  1
  O  O269  1  1.02852334  0.86339326  0.96424283  1
  O  O270  1  -0.00531482  -0.06163301  0.12207028  1
  O  O271  1  -0.02623440  -0.02729336  0.62530561  1
  O  O272  1  0.05685441  0.49665652  0.13463640  1
  O  O273  1  -0.00466629  0.51365259  0.63192707  1
  O  O274  1  0.47724261  -0.01717528  0.11546967  1
  O  O275  1  0.48883613  -0.00544232  0.59716489  1
  O  O276  1  0.48610143  0.50138183  0.12824045  1
  O  O277  1  0.48893195  0.54000548  0.62537591  1
  O  O278  1  0.23368770  0.40295861  0.31016753  1
  O  O279  1  0.23632044  0.39994281  0.73597007  1
  O  O280  1  0.28393045  0.87739695  0.24261333  1
  O  O281  1  0.24148584  0.90856431  0.75421922  1
  O  O282  1  0.86299966  0.33125328  0.23609481  1
  O  O283  1  0.69158372  0.36077408  0.75508286  1
  O  O284  1  0.72050992  0.85800107  0.22878813  1
  O  O285  1  0.74452692  0.86523579  0.74241479  1
  O  O286  1  0.17332380  0.08260229  0.22866524  1
  O  O287  1  0.26295159  0.10859000  0.79044330  1
  O  O288  1  0.25688800  0.65505519  0.28965801  1
  O  O289  1  0.24792905  0.63810698  0.69355671  1
  O  O290  1  0.85381976  0.18303235  0.27746111  1
  O  O291  1  0.82157281  0.10244842  0.83560854  1
  O  O292  1  0.66302327  0.51403600  0.17609289  1
  O  O293  1  0.79752830  0.70641021  0.68380194  1
  O  O294  1  0.37580065  0.10646279  0.39638961  1
  O  O295  1  0.45387901  0.10201857  0.85130138  1
  O  O296  1  0.37523912  0.62044772  0.39025714  1
  O  O297  1  0.33171351  0.66763669  0.82487306  1
  O  O298  1  0.97477347  0.12522113  0.29677140  1
  O  O299  1  0.90585405  0.07930023  0.96769259  1
  O  O300  1  0.77988707  0.60637815  0.26604214  1
  O  O301  1  0.88684466  0.55361309  0.81021864  1
  O  O302  1  0.17987012  0.38611576  0.16819003  1
  O  O303  1  0.12291537  0.34826833  0.67561898  1
  O  O304  1  0.17783680  0.89127961  0.12058349  1
  O  O305  1  0.06577753  0.84410058  0.70523958  1
  O  O306  1  0.65499011  0.37270060  0.17551031  1
  O  O307  1  0.59625601  0.36884405  0.65288364  1
  O  O308  1  0.59042696  0.83907774  0.13245537  1
  O  O309  1  0.64427259  0.81732316  0.63904956  1
  O  O310  1  0.12532430  0.26356324  0.23580440  1
  O  O311  1  0.19528151  0.28849845  0.81036902  1
  O  O312  1  -0.03216227  0.76672928  0.09103119  1
  O  O313  1  -0.01597938  0.71431541  0.87386863  1
  O  O314  1  0.65566015  0.20594434  0.30331273  1
  O  O315  1  0.56106575  0.29128244  0.77406936  1
  O  O316  1  0.61434431  0.73303959  0.24291668  1
  O  O317  1  0.59223907  0.75250157  0.75677246  1
  O  O318  1  0.46414202  0.26767021  0.25899039  1
  O  O319  1  0.33679111  0.24684133  0.76274617  1
  O  O320  1  0.37598085  0.74000308  0.29571626  1
  O  O321  1  0.36594575  0.76563524  0.71914762  1
  O  O322  1  0.94432646  0.22140082  0.17223251  1
  O  O323  1  0.82646318  0.24256766  0.73673262  1
  O  O324  1  0.83164011  0.75163768  0.17485480  1
  O  O325  1  0.90329193  0.80195564  0.72920562  1
  O  O326  1  0.40967253  0.46039787  0.51007667  1
  O  O327  1  0.43039178  0.45770847  0.98824471  1
  O  O328  1  0.30144947  1.01046915  0.52944429  1
  O  O329  1  0.41299621  0.96890058  0.96704926  1
  O  O330  1  0.93571383  0.50319298  0.43625185  1
  O  O331  1  0.85305370  0.51191991  0.94651468  1
  O  O332  1  0.79387176  0.94827653  0.56009345  1
  O  O333  1  0.94773309  1.02627908  0.94020571  1
  O  O334  1  0.12373200  0.04620383  -0.00222970  1
  O  O335  1  -0.00416649  0.05707482  0.48379485  1
  O  O336  1  0.16197864  0.45533978  0.02630808  1
  O  O337  1  0.13723623  0.50596837  0.54810193  1
  O  O338  1  0.58595411  -0.03101946  -0.01477669  1
  O  O339  1  0.63020229  0.02396840  0.46868940  1
  O  O340  1  0.59386291  0.51887088  -0.01839943  1
  O  O341  1  0.65585275  0.53816918  0.52482465  1
  O  O342  1  0.36101335  0.34604454  0.18553244  1
  O  O343  1  0.39153040  0.37837085  0.61958270  1
  O  O344  1  0.36256940  0.84994988  0.09686053  1
  O  O345  1  0.36728155  0.87852091  0.59290354  1
  O  O346  1  0.81221119  0.43093556  0.11790854  1
  O  O347  1  0.82614669  0.43844729  0.51571864  1
  O  O348  1  0.81999435  0.96244776  0.09321850  1
  O  O349  1  0.84880652  0.90179992  0.56533661  1
  O  O350  1  0.13025643  0.13612213  0.39027676  1
  O  O351  1  0.10120926  0.14730358  0.89094135  1
  O  O352  1  0.11551057  0.65888876  0.36521288  1
  O  O353  1  0.12820929  0.75433937  0.79720192  1
  O  O354  1  0.72864902  0.05191753  0.34764127  1
  O  O355  1  0.65472112  0.11123701  0.82863153  1
  O  O356  1  0.63115375  0.62409583  0.36422167  1
  O  O357  1  0.60082348  0.63182463  0.87017471  1
