# generated using pymatgen
data_V51Zn51O256
_symmetry_space_group_name_H-M   'P 1'
_cell_length_a   17.61638474
_cell_length_b   17.33969467
_cell_length_c   17.37334436
_cell_angle_alpha   89.59459573
_cell_angle_beta   88.54223402
_cell_angle_gamma   91.52534846
_symmetry_Int_Tables_number   1
_chemical_formula_structural   V51Zn51O256
_chemical_formula_sum   'V51 Zn51 O256'
_cell_volume   5303.15214287
_cell_formula_units_Z   1
loop_
 _symmetry_equiv_pos_site_id
 _symmetry_equiv_pos_as_xyz
  1  'x, y, z'
loop_
 _atom_site_type_symbol
 _atom_site_label
 _atom_site_symmetry_multiplicity
 _atom_site_fract_x
 _atom_site_fract_y
 _atom_site_fract_z
 _atom_site_occupancy
  V  V0  1  -0.05711368  0.17416308  0.62061239  1
  V  V1  1  0.48978259  0.33863036  0.36725565  1
  V  V2  1  0.70787114  0.77409739  -0.01170284  1
  V  V3  1  0.49570299  0.62592810  0.11273411  1
  V  V4  1  0.15355222  0.46656060  0.12502949  1
  V  V5  1  0.76421142  0.50820291  0.74736142  1
  V  V6  1  -0.04413196  -0.00466669  -0.03115914  1
  V  V7  1  0.38813549  0.22145586  0.12025013  1
  V  V8  1  0.25628062  0.12759291  0.86313691  1
  V  V9  1  0.37206061  0.70656871  0.59878061  1
  V  V10  1  0.08599465  0.35583364  0.22716183  1
  V  V11  1  0.72949657  0.65277899  0.87212751  1
  V  V12  1  0.40100759  0.78445976  0.13441325  1
  V  V13  1  0.66790928  0.42263247  0.61367407  1
  V  V14  1  0.61198245  0.48003097  0.11170203  1
  V  V15  1  0.08070502  0.14856004  -0.05997521  1
  V  V16  1  0.84516142  0.26467681  0.09262559  1
  V  V17  1  0.11973093  0.27210954  0.39550427  1
  V  V18  1  0.47207931  0.42219790  0.52984927  1
  V  V19  1  0.12023618  -0.01183589  0.64451789  1
  V  V20  1  -0.00409490  0.41447108  0.85570646  1
  V  V21  1  0.10859511  0.36809828  0.74520803  1
  V  V22  1  0.87085669  0.73545546  0.57120454  1
  V  V23  1  0.12826768  0.52723068  0.64402709  1
  V  V24  1  0.61082441  0.22309609  0.35374853  1
  V  V25  1  0.48175492  0.09386085  0.65052705  1
  V  V26  1  0.21167188  0.56097846  0.47199596  1
  V  V27  1  0.14557596  0.63162462  -0.00300298  1
  V  V28  1  0.76292044  0.86789553  0.58402369  1
  V  V29  1  0.51308169  0.72419223  0.72646011  1
  V  V30  1  0.61223868  0.78668195  0.35291706  1
  V  V31  1  0.72509876  0.29565787  -0.02028642  1
  V  V32  1  0.77064630  0.14299090  0.40219448  1
  V  V33  1  0.36002757  0.61829655  0.25011731  1
  V  V34  1  0.63613456  0.84750489  0.73938731  1
  V  V35  1  0.77348521  -0.03216716  0.74999805  1
  V  V36  1  0.53588652  0.19868484  0.78361069  1
  V  V37  1  0.24491671  0.02440613  0.29831422  1
  V  V38  1  0.84209150  0.74095555  0.08889314  1
  V  V39  1  0.39158742  0.37598886  -0.01026849  1
  V  V40  1  0.88261157  0.48552088  0.31212624  1
  V  V41  1  0.06828313  0.04161853  0.14314869  1
  V  V42  1  0.63055013  -0.01628093  0.60437897  1
  V  V43  1  0.05742324  0.75537677  0.25209036  1
  V  V44  1  -0.00531553  0.72728408  0.72219654  1
  V  V45  1  0.70328953  0.52734607  0.28590078  1
  V  V46  1  0.61217928  0.14108364  0.00526267  1
  V  V47  1  0.73865178  0.04913685  0.25192997  1
  V  V48  1  -0.01584871  0.52747675  -0.01573564  1
  V  V49  1  0.27024813  0.63256286  0.87655890  1
  V  V50  1  0.52180908  0.60970179  0.57579036  1
  Zn  Zn51  1  0.61268254  0.39305522  0.78446098  1
  Zn  Zn52  1  0.07491193  0.60272032  0.81996601  1
  Zn  Zn53  1  0.96707820  0.15147052  0.43471163  1
  Zn  Zn54  1  0.40020346  0.92732734  0.28061722  1
  Zn  Zn55  1  0.60100318  0.56589871  0.76294061  1
  Zn  Zn56  1  0.69492179  0.67476786  0.64141858  1
  Zn  Zn57  1  0.64098685  0.07267447  0.75505147  1
  Zn  Zn58  1  0.42627458  0.18093609  0.95714444  1
  Zn  Zn59  1  0.89651751  0.66696636  0.90890347  1
  Zn  Zn60  1  0.32152495  0.55367632  0.05822543  1
  Zn  Zn61  1  0.64401185  0.42463381  0.41255516  1
  Zn  Zn62  1  0.55469764  0.29057432  0.64232037  1
  Zn  Zn63  1  0.93195104  0.89039225  0.68153238  1
  Zn  Zn64  1  0.43818570  0.72503144  0.94517300  1
  Zn  Zn65  1  0.96518754  0.89073183  0.11568622  1
  Zn  Zn66  1  0.70795007  0.95777373  0.42424323  1
  Zn  Zn67  1  0.80006651  0.35241786  0.84326905  1
  Zn  Zn68  1  0.45638603  0.91144381  0.68262335  1
  Zn  Zn69  1  1.00153129  0.79254614  0.44586164  1
  Zn  Zn70  1  0.86613524  0.05551423  0.10971576  1
  Zn  Zn71  1  0.92779814  0.41327968  0.14621265  1
  Zn  Zn72  1  0.66749761  0.48891706  0.92070582  1
  Zn  Zn73  1  0.13549787  0.93104546  0.44418863  1
  Zn  Zn74  1  0.38420237  0.62041889  0.44981716  1
  Zn  Zn75  1  0.54448657  0.30377475  0.05381208  1
  Zn  Zn76  1  0.07447059  0.31701814  0.59417401  1
  Zn  Zn77  1  0.81830221  0.78774292  0.79461444  1
  Zn  Zn78  1  0.76648794  0.96614839  0.95885076  1
  Zn  Zn79  1  -0.00407754  0.06497045  0.78762182  1
  Zn  Zn80  1  0.96054340  0.52520570  0.69428642  1
  Zn  Zn81  1  0.67662780  0.20517696  0.16830848  1
  Zn  Zn82  1  0.18178907  0.18611054  0.68258682  1
  Zn  Zn83  1  0.26722677  0.34287616  0.83810767  1
  Zn  Zn84  1  0.39088497  0.77169624  0.38768680  1
  Zn  Zn85  1  0.33544120  0.79227914  0.76525698  1
  Zn  Zn86  1  0.46230355  0.44737955  0.20578554  1
  Zn  Zn87  1  0.05988858  0.44551709  0.40723006  1
  Zn  Zn88  1  0.23450991  0.84327998  0.30262068  1
  Zn  Zn89  1  0.76220903  0.10022753  0.61840895  1
  Zn  Zn90  1  0.77169635  0.32956846  0.31693071  1
  Zn  Zn91  1  0.31041127  0.27188718  0.32860580  1
  Zn  Zn92  1  0.19547912  0.69133313  0.71151057  1
  Zn  Zn93  1  0.56568903  0.03778595  0.32001603  1
  Zn  Zn94  1  0.03521106  0.32485126  0.03143692  1
  Zn  Zn95  1  0.31309326  -0.00413848  0.72676160  1
  Zn  Zn96  1  0.56999954  0.80157378  0.56601277  1
  Zn  Zn97  1  0.18269198  0.18403646  0.17843379  1
  Zn  Zn98  1  0.67584683  0.69593046  0.17578085  1
  Zn  Zn99  1  0.11232996  0.09530274  0.32903417  1
  Zn  Zn100  1  0.53934083  0.58572002  0.37296965  1
  Zn  Zn101  1  0.46980633  0.21907946  0.49945322  1
  O  O102  1  0.10212625  0.13406569  0.11963170  1
  O  O103  1  0.11996753  0.09445821  0.64971686  1
  O  O104  1  0.12059502  0.56535100  0.09453751  1
  O  O105  1  0.19756218  0.56295917  0.57978697  1
  O  O106  1  0.62202833  0.13145955  0.10152194  1
  O  O107  1  0.65102747  0.08090154  0.62819133  1
  O  O108  1  0.58968291  0.64179137  0.13281206  1
  O  O109  1  0.61722771  0.62113097  0.57074809  1
  O  O110  1  0.39212372  0.32319314  0.37750220  1
  O  O111  1  0.34482487  0.36088670  0.90426930  1
  O  O112  1  0.33695969  0.84661546  0.33445709  1
  O  O113  1  0.42258768  0.99501535  0.86932129  1
  O  O114  1  0.86391335  0.39180324  0.34082474  1
  O  O115  1  0.90262845  0.38995388  0.84478172  1
  O  O116  1  0.91174651  0.94277659  0.48444058  1
  O  O117  1  1.02821617  0.77436259  0.90446401  1
  O  O118  1  0.18115976  0.01636264  0.38377312  1
  O  O119  1  0.26451315  0.04303099  0.81353013  1
  O  O120  1  0.26016576  0.43521028  0.31248740  1
  O  O121  1  0.27736230  0.54991487  0.83374454  1
  O  O122  1  0.75679928  0.04136592  0.35967680  1
  O  O123  1  0.76332628  -0.03879611  0.84765549  1
  O  O124  1  0.79717691  0.53928613  0.32536654  1
  O  O125  1  0.74910196  0.54604341  0.85491533  1
  O  O126  1  0.24757123  0.47577747  0.11694391  1
  O  O127  1  0.28667362  0.35357662  0.62204991  1
  O  O128  1  0.16488319  0.99539601  0.11374080  1
  O  O129  1  0.21964929  1.00213064  0.65898497  1
  O  O130  1  0.67480780  0.49475811  0.18948116  1
  O  O131  1  0.75645666  0.45904387  0.64659317  1
  O  O132  1  0.79894417  1.00581838  0.18746192  1
  O  O133  1  0.75263231  0.96840675  0.61755314  1
  O  O134  1  -0.00797242  0.35375649  0.22381467  1
  O  O135  1  0.02869970  0.44050114  0.74876687  1
  O  O136  1  0.02380207  0.83877538  0.19860907  1
  O  O137  1  0.09322837  0.79715401  0.88643118  1
  O  O138  1  0.50317499  0.37155467  0.27599296  1
  O  O139  1  0.56230844  0.29949267  0.75891074  1
  O  O140  1  0.49181956  0.96116199  0.32942927  1
  O  O141  1  0.53140155  0.83638021  0.70529519  1
  O  O142  1  0.49571585  0.08691812  0.21501275  1
  O  O143  1  0.52710564  0.08610844  0.74610408  1
  O  O144  1  0.48183097  0.57563797  0.27634773  1
  O  O145  1  0.52514554  0.62195639  0.69957548  1
  O  O146  1  0.92745549  0.12679870  0.24750614  1
  O  O147  1  0.96488929  0.12248605  0.70256995  1
  O  O148  1  1.11310088  0.67888625  0.27964489  1
  O  O149  1  0.98179585  0.62851619  0.74372759  1
  O  O150  1  0.37627450  0.26528675  0.02368492  1
  O  O151  1  0.34908464  0.21105476  0.50791846  1
  O  O152  1  0.41617131  0.79248231  0.03675917  1
  O  O153  1  0.37422926  0.72972337  0.49512146  1
  O  O154  1  0.83128555  0.29416353  -0.00530293  1
  O  O155  1  0.96539400  0.43164631  0.47856502  1
  O  O156  1  0.87372315  0.73457064  -0.00598916  1
  O  O157  1  0.90390480  0.75466872  0.47798904  1
  O  O158  1  0.10415873  0.29768500  0.48887254  1
  O  O159  1  0.08011228  0.24011588  0.97502673  1
  O  O160  1  0.18851654  0.64617750  0.44039570  1
  O  O161  1  0.15306219  0.71818782  1.03124810  1
  O  O162  1  0.86816213  0.31218856  0.49695315  1
  O  O163  1  0.62330596  0.24694162  0.99075546  1
  O  O164  1  0.59245085  0.79182922  0.45511706  1
  O  O165  1  0.61533892  0.77634122  0.99203677  1
  O  O166  1  0.48542019  0.24071111  0.12882226  1
  O  O167  1  0.49325142  0.19949601  0.68092393  1
  O  O168  1  0.47111093  0.71863397  0.16386157  1
  O  O169  1  0.50159968  0.71547327  0.58755765  1
  O  O170  1  0.93951880  0.31073156  0.09115675  1
  O  O171  1  0.97700266  0.26924074  0.62167512  1
  O  O172  1  1.03995584  0.71301160  0.16402597  1
  O  O173  1  0.96319211  0.74040330  0.62673523  1
  O  O174  1  -0.03754816  0.18865640  0.23977276  1
  O  O175  1  -0.11961880  0.19108867  0.87694004  1
  O  O176  1  0.04290962  0.81293598  0.34323259  1
  O  O177  1  -0.00030108  0.70609157  0.85605887  1
  O  O178  1  0.50117119  0.22910401  0.38642375  1
  O  O179  1  0.46948047  0.20561926  0.85443013  1
  O  O180  1  0.51297300  0.81463084  0.34272016  1
  O  O181  1  0.49735274  0.72294951  0.82108781  1
  O  O182  1  0.32161398  0.19573330  0.57840081  1
  O  O183  1  0.17701147  0.11492939  0.92974642  1
  O  O184  1  0.30564363  0.54536691  0.44645564  1
  O  O185  1  0.24665105  0.60112186  0.99048251  1
  O  O186  1  0.74813997  0.12543783  0.49328859  1
  O  O187  1  0.70028553  0.12143473  0.94154081  1
  O  O188  1  0.80623371  0.54988628  0.48690627  1
  O  O189  1  0.72176165  0.65491850  0.97039776  1
  O  O190  1  0.34877701  0.38447918  0.10478379  1
  O  O191  1  0.25039009  0.35344075  0.56291875  1
  O  O192  1  0.31913302  0.84538250  -0.08502980  1
  O  O193  1  0.26132724  0.90849650  0.50731468  1
  O  O194  1  0.71089241  0.39072316  -0.03276832  1
  O  O195  1  0.80382439  0.31758058  0.52419312  1
  O  O196  1  0.73917794  0.86951109  0.00220249  1
  O  O197  1  0.76380960  0.88504449  0.48756437  1
  O  O198  1  0.12665675  0.45775442  0.22471834  1
  O  O199  1  0.14508567  0.58276304  0.72775798  1
  O  O200  1  0.06821548  1.03736372  0.23987310  1
  O  O201  1  0.09124313  0.99582209  0.74576856  1
  O  O202  1  0.63058265  0.53111467  0.35984054  1
  O  O203  1  0.60303441  0.45517191  0.68214761  1
  O  O204  1  0.64719201  1.01591592  0.24415094  1
  O  O205  1  0.64508807  0.95589420  0.72507740  1
  O  O206  1  0.34066924  0.02322644  0.30939987  1
  O  O207  1  0.48357933  -0.03681418  0.86701377  1
  O  O208  1  0.41424927  0.52445285  0.28042861  1
  O  O209  1  0.41121225  0.52265752  0.76983178  1
  O  O210  1  0.85167576  -0.10842751  0.32845708  1
  O  O211  1  0.86936805  -0.03306388  0.73080017  1
  O  O212  1  0.89783015  0.49318417  0.21701086  1
  O  O213  1  0.85909103  0.51638286  0.74048350  1
  O  O214  1  0.08881746  0.35562781  0.34269663  1
  O  O215  1  0.05763838  0.33328053  0.83061771  1
  O  O216  1  0.02065891  0.96714777  0.39639168  1
  O  O217  1  0.26437077  0.86343142  0.87282678  1
  O  O218  1  0.60085193  0.32048242  0.39584080  1
  O  O219  1  0.59144719  0.48415612  0.84153927  1
  O  O220  1  0.64951944  0.88278928  0.35735029  1
  O  O221  1  0.61969910  0.84464805  0.83096991  1
  O  O222  1  0.37943772  0.12999988  0.09785972  1
  O  O223  1  0.39002382  0.06364622  0.66996395  1
  O  O224  1  0.38726894  0.59599319  0.14361331  1
  O  O225  1  0.39325441  0.61278714  0.59896007  1
  O  O226  1  0.86244354  0.16854055  0.09891494  1
  O  O227  1  0.84609320  0.16926358  0.61179154  1
  O  O228  1  0.86705138  0.66630763  0.14100697  1
  O  O229  1  0.85895759  0.64155838  0.58444183  1
  O  O230  1  0.28348907  0.24592241  0.16357919  1
  O  O231  1  0.24407145  0.18899498  0.58218171  1
  O  O232  1  0.30336400  0.73750265  0.13671956  1
  O  O233  1  0.27961270  0.71534800  0.63319522  1
  O  O234  1  0.73401451  0.25685022  0.08518038  1
  O  O235  1  0.82955443  0.31948282  0.67360634  1
  O  O236  1  0.73658829  0.74413953  0.09384868  1
  O  O237  1  0.76200538  0.75415748  0.58978310  1
  O  O238  1  0.21313451  0.25494554  0.37532184  1
  O  O239  1  0.22518194  0.23236047  0.83418789  1
  O  O240  1  0.17914568  0.84262798  0.39813726  1
  O  O241  1  0.38141033  0.81601354  0.87464229  1
  O  O242  1  0.72450396  0.23325867  0.37076484  1
  O  O243  1  0.74076896  0.26543040  0.88584464  1
  O  O244  1  0.69526747  0.74155157  0.38084871  1
  O  O245  1  0.73972028  0.76916082  0.88459960  1
  O  O246  1  -0.00974103  0.10547842  -0.00634604  1
  O  O247  1  -0.01548314  0.13319494  0.53904032  1
  O  O248  1  0.03734428  0.61659627  -0.00959778  1
  O  O249  1  0.05612456  0.68837365  0.48906767  1
  O  O250  1  0.51949630  0.12403462  -0.01677621  1
  O  O251  1  0.49125304  0.12572484  0.55478341  1
  O  O252  1  0.48508964  0.64527086  0.01912710  1
  O  O253  1  0.49354456  0.60540391  0.47271569  1
  O  O254  1  0.49017652  0.32202132  0.55690990  1
  O  O255  1  0.48738884  0.36537107  0.98028256  1
  O  O256  1  0.47580590  0.87032593  0.52021756  1
  O  O257  1  0.37726137  0.95178072  1.00191741  1
  O  O258  1  0.97758376  0.42946051  0.55538087  1
  O  O259  1  1.00773209  0.40851134  0.95854562  1
  O  O260  1  1.06651733  0.86096376  0.49831481  1
  O  O261  1  0.98014424  0.90695764  1.00114744  1
  O  O262  1  0.50308000  0.42528920  0.42806991  1
  O  O263  1  0.43749179  0.50428005  0.83124471  1
  O  O264  1  0.39431420  0.99937798  0.48766821  1
  O  O265  1  0.50233983  0.94358861  1.00670012  1
  O  O266  1  0.99147421  0.50473508  0.33915711  1
  O  O267  1  1.02087351  0.51658139  0.87209172  1
  O  O268  1  1.01099834  1.03922316  0.38657120  1
  O  O269  1  0.96061804  0.99683729  0.87052894  1
  O  O270  1  -0.02996115  0.00808831  0.12474039  1
  O  O271  1  0.02079285  -0.03703072  0.63609349  1
  O  O272  1  -0.03568068  0.49158447  0.07478299  1
  O  O273  1  0.04221365  0.55257581  0.61426804  1
  O  O274  1  0.48990875  0.04573296  0.15819956  1
  O  O275  1  0.52671522  -0.01100979  0.62872542  1
  O  O276  1  0.51301442  0.51223879  0.12800431  1
  O  O277  1  0.50217388  0.50294738  0.58522154  1
  O  O278  1  0.28261470  0.38659828  0.26582063  1
  O  O279  1  0.19292079  0.39672556  0.78382656  1
  O  O280  1  0.22477483  0.94310893  0.24692111  1
  O  O281  1  0.35598756  0.89694276  0.72201568  1
  O  O282  1  0.70768380  0.41757813  0.31686238  1
  O  O283  1  0.72975482  0.41466688  0.78823039  1
  O  O284  1  0.82944237  0.83881915  0.28628054  1
  O  O285  1  0.74911220  0.85385501  0.73014181  1
  O  O286  1  0.21012810  0.11321104  0.26052040  1
  O  O287  1  0.25726684  0.18911751  0.76767460  1
  O  O288  1  0.27531979  0.58129487  0.25837959  1
  O  O289  1  0.26253834  0.70978495  0.79869257  1
  O  O290  1  0.74502177  0.14594495  0.23504586  1
  O  O291  1  0.75345490  0.06757414  0.73561203  1
  O  O292  1  0.70236605  0.62237836  0.25249129  1
  O  O293  1  0.71035724  0.58660776  0.71151095  1
  O  O294  1  0.35017475  0.04991400  0.47118082  1
  O  O295  1  0.33342292  0.13575465  0.91658453  1
  O  O296  1  0.38128258  0.66937434  0.33880642  1
  O  O297  1  0.36097499  0.65675262  0.90505825  1
  O  O298  1  0.86651904  0.16169989  0.39596371  1
  O  O299  1  0.85419842  0.14512396  0.83079938  1
  O  O300  1  0.94025758  0.55268943  0.37644380  1
  O  O301  1  0.82551869  0.67709297  0.82133731  1
  O  O302  1  0.10867645  0.37042077  0.11198226  1
  O  O303  1  0.12435657  0.42119617  0.64246604  1
  O  O304  1  0.10917912  0.94324221  0.10196937  1
  O  O305  1  0.14312468  0.89213495  0.65065962  1
  O  O306  1  0.60069328  0.38272351  0.10857718  1
  O  O307  1  0.66008239  0.32299335  0.62061033  1
  O  O308  1  0.57662357  0.88643775  0.13416789  1
  O  O309  1  0.64997579  0.86720677  0.60445618  1
  O  O310  1  0.12719963  0.26746381  0.22819522  1
  O  O311  1  0.12460755  0.27983361  0.69262307  1
  O  O312  1  0.15342817  0.79892231  0.24164885  1
  O  O313  1  0.09133220  0.74280262  0.71637477  1
  O  O314  1  0.61091421  0.23460949  0.25739906  1
  O  O315  1  0.62152700  0.16685249  0.81586770  1
  O  O316  1  0.63963003  0.78636310  0.25434737  1
  O  O317  1  0.62549695  0.74126968  0.70648015  1
  O  O318  1  0.33637130  0.22767456  0.22405130  1
  O  O319  1  0.36145204  0.31102369  0.74473462  1
  O  O320  1  0.32566464  0.72718651  0.21290853  1
  O  O321  1  0.41282974  0.74128966  0.69601918  1
  O  O322  1  0.81599664  0.29449005  0.20574917  1
  O  O323  1  0.83121131  0.28028156  0.73287381  1
  O  O324  1  0.97491533  0.71469668  0.29661900  1
  O  O325  1  0.93278705  0.80627903  0.75889962  1
  O  O326  1  0.38135160  0.42905668  0.52594498  1
  O  O327  1  0.37969276  0.47373626  1.00604505  1
  O  O328  1  0.26335784  0.85112155  0.54979829  1
  O  O329  1  0.44024450  0.97325079  1.03167135  1
  O  O330  1  0.81752279  0.48119900  0.48337463  1
  O  O331  1  0.90073746  0.56118266  0.95248566  1
  O  O332  1  0.89152912  1.00890311  0.49520724  1
  O  O333  1  0.85889464  1.01371547  1.00040331  1
  O  O334  1  0.05365376  0.04951521  -0.00480045  1
  O  O335  1  0.12524273  -0.00207223  0.54418961  1
  O  O336  1  0.11512537  0.50750589  0.03102264  1
  O  O337  1  0.14963318  0.48729367  0.44371683  1
  O  O338  1  0.63347694  -0.07469233  0.11712498  1
  O  O339  1  0.63582477  -0.01416926  0.50626338  1
  O  O340  1  0.64339459  0.51644843  0.02633806  1
  O  O341  1  0.64953694  0.44925193  0.51967893  1
  O  O342  1  0.40072555  0.36142435  0.15289356  1
  O  O343  1  0.40330415  0.36773020  0.72843124  1
  O  O344  1  0.40903016  0.87275758  0.17793334  1
  O  O345  1  0.41991808  0.86375279  0.56813846  1
  O  O346  1  0.81696795  0.35986895  0.15737577  1
  O  O347  1  0.92014126  0.45217559  0.59817440  1
  O  O348  1  0.87833322  0.82694389  0.12864611  1
  O  O349  1  0.86343438  0.85351150  0.60223098  1
  O  O350  1  0.06330059  0.18595743  0.37832903  1
  O  O351  1  0.05159621  0.14437200  0.84850978  1
  O  O352  1  0.02348400  0.62554982  0.47746820  1
  O  O353  1  0.15552695  0.63905041  0.89140132  1
  O  O354  1  0.60943814  0.12409876  0.37446621  1
  O  O355  1  0.67643416  0.05035088  0.97520006  1
  O  O356  1  0.57048633  0.69259744  0.34345686  1
  O  O357  1  0.64098758  0.65207282  0.83607154  1
