# generated using pymatgen
data_V51Zn51O256
_symmetry_space_group_name_H-M   'P 1'
_cell_length_a   17.71219533
_cell_length_b   17.31386199
_cell_length_c   17.53031855
_cell_angle_alpha   90.46663611
_cell_angle_beta   90.41886918
_cell_angle_gamma   90.16270651
_symmetry_Int_Tables_number   1
_chemical_formula_structural   V51Zn51O256
_chemical_formula_sum   'V51 Zn51 O256'
_cell_volume   5375.61698517
_cell_formula_units_Z   1
loop_
 _symmetry_equiv_pos_site_id
 _symmetry_equiv_pos_as_xyz
  1  'x, y, z'
loop_
 _atom_site_type_symbol
 _atom_site_label
 _atom_site_symmetry_multiplicity
 _atom_site_fract_x
 _atom_site_fract_y
 _atom_site_fract_z
 _atom_site_occupancy
  V  V0  1  0.59893176  0.74605722  0.86478703  1
  V  V1  1  0.51873127  0.02230229  0.46328943  1
  V  V2  1  0.03657629  0.13011152  0.63636149  1
  V  V3  1  0.50062867  0.02550832  -0.02404593  1
  V  V4  1  0.83104058  0.82267002  0.15588092  1
  V  V5  1  0.86615267  0.51658190  0.83057730  1
  V  V6  1  0.12667321  0.53065063  0.12293685  1
  V  V7  1  0.03143613  0.28238380  0.29168160  1
  V  V8  1  0.48066154  0.83812850  0.41053823  1
  V  V9  1  0.68717616  -0.05092475  0.13931462  1
  V  V10  1  0.88535121  0.09182272  0.73179645  1
  V  V11  1  0.20371088  0.83020447  0.54741042  1
  V  V12  1  0.24183653  0.61203778  0.87302439  1
  V  V13  1  -0.08021936  0.00177896  0.01447652  1
  V  V14  1  0.75502955  0.77591026  -0.01633198  1
  V  V15  1  0.13682962  0.78918144  0.89624008  1
  V  V16  1  0.79580516  0.01957041  0.39084382  1
  V  V17  1  0.69793035  0.73279384  0.51546900  1
  V  V18  1  0.03262027  0.14815383  0.43849790  1
  V  V19  1  0.09877007  0.76118871  0.38225352  1
  V  V20  1  0.06758636  0.19438395  0.02158190  1
  V  V21  1  0.53050937  0.37167998  0.33366864  1
  V  V22  1  0.63655344  0.62784680  0.00200643  1
  V  V23  1  -0.01897362  0.92448053  0.88889063  1
  V  V24  1  0.91015592  0.42932294  0.35763099  1
  V  V25  1  0.35834686  0.46818753  0.88884524  1
  V  V26  1  0.75328337  0.09364976  0.85104931  1
  V  V27  1  0.61706020  0.00765887  0.62035647  1
  V  V28  1  0.62181929  0.37381180  0.73285905  1
  V  V29  1  0.87694202  0.76862425  0.48384196  1
  V  V30  1  -0.05602364  0.10538809  0.14815430  1
  V  V31  1  0.70792703  0.18625724  0.43038902  1
  V  V32  1  0.13633442  -0.08289644  0.15167882  1
  V  V33  1  0.74615885  0.64658899  0.83475127  1
  V  V34  1  0.82191284  0.39923904  0.52929141  1
  V  V35  1  -0.01964320  0.56516738  -0.02300430  1
  V  V36  1  0.14261192  0.31974956  0.81608396  1
  V  V37  1  0.24913529  -0.00321817  0.27145675  1
  V  V38  1  0.72928620  -0.02943569  0.73125294  1
  V  V39  1  0.38805713  0.81405878  0.70623682  1
  V  V40  1  0.07297539  0.47115600  0.50711408  1
  V  V41  1  0.32524679  0.64593629  0.72325224  1
  V  V42  1  -0.03313540  0.25821747  0.75551851  1
  V  V43  1  0.20018169  0.16515634  0.92132950  1
  V  V44  1  0.37489222  0.76747970  0.07947214  1
  V  V45  1  0.84586057  0.22897734  0.61574754  1
  V  V46  1  -0.00018990  0.77350916  0.78277359  1
  V  V47  1  0.01239657  0.61661416  0.67090842  1
  V  V48  1  0.62826334  0.71472162  0.35501283  1
  V  V49  1  0.48821908  0.61439021  0.63877892  1
  V  V50  1  0.41097596  0.15981610  0.71970405  1
  Zn  Zn51  1  0.64888271  0.93992718  0.91085129  1
  Zn  Zn52  1  0.54807040  0.82449788  0.59574752  1
  Zn  Zn53  1  0.90260636  0.70872386  0.91114017  1
  Zn  Zn54  1  0.43452668  0.41211192  0.60295928  1
  Zn  Zn55  1  0.76532719  0.08549198  0.20781277  1
  Zn  Zn56  1  0.11678948  0.95877198  0.43121874  1
  Zn  Zn57  1  0.78428306  0.81891397  0.34592170  1
  Zn  Zn58  1  0.69421872  0.70933917  0.16921177  1
  Zn  Zn59  1  0.45298370  0.61833440  0.84237073  1
  Zn  Zn60  1  1.01869137  0.95007748  0.71506647  1
  Zn  Zn61  1  0.93448601  0.14538595  0.91219293  1
  Zn  Zn62  1  0.97605759  0.43849156  0.67400315  1
  Zn  Zn63  1  0.55382869  0.34156320  -0.08303798  1
  Zn  Zn64  1  0.81511718  0.83048874  0.81892362  1
  Zn  Zn65  1  1.07344396  0.46289185  0.29497589  1
  Zn  Zn66  1  0.69498847  0.47385614  0.89743346  1
  Zn  Zn67  1  0.88011167  0.25504771  0.41384095  1
  Zn  Zn68  1  0.31893984  0.55326620  0.05822527  1
  Zn  Zn69  1  0.26838972  0.46015062  0.52285923  1
  Zn  Zn70  1  0.47142901  0.46111676  0.15319220  1
  Zn  Zn71  1  0.79048213  0.09049264  0.04349042  1
  Zn  Zn72  1  0.06921132  0.05524306  0.28074206  1
  Zn  Zn73  1  0.77530754  0.08469825  0.57611348  1
  Zn  Zn74  1  0.83570704  0.60331391  0.56039378  1
  Zn  Zn75  1  0.67204383  0.17630658  0.70364804  1
  Zn  Zn76  1  0.54041741  0.17117544  0.33407677  1
  Zn  Zn77  1  0.96970391  0.61171317  0.44291475  1
  Zn  Zn78  1  0.59418393  0.32304126  0.52917068  1
  Zn  Zn79  1  0.79147990  0.56874238  0.02655240  1
  Zn  Zn80  1  0.83123934  0.34035790  0.77990024  1
  Zn  Zn81  1  0.73291174  0.36904539  0.37227651  1
  Zn  Zn82  1  0.65775441  0.71223506  0.68240474  1
  Zn  Zn83  1  0.07238124  0.51723078  0.82238092  1
  Zn  Zn84  1  0.41718754  0.13537322  0.51705738  1
  Zn  Zn85  1  0.31402885  0.81387101  0.89651411  1
  Zn  Zn86  1  0.15602986  0.72581098  0.70051891  1
  Zn  Zn87  1  0.09963664  0.65270561  0.23415343  1
  Zn  Zn88  1  0.03779814  0.34495969  0.12269678  1
  Zn  Zn89  1  0.01895537  0.29637369  0.55335120  1
  Zn  Zn90  1  0.32803751  0.33981426  0.76027916  1
  Zn  Zn91  1  0.36626985  0.25582617  0.33188227  1
  Zn  Zn92  1  0.16113389  0.73467164  0.07928956  1
  Zn  Zn93  1  0.56356002  0.83429572  0.01485668  1
  Zn  Zn94  1  0.38334090  0.75191171  0.54667253  1
  Zn  Zn95  1  0.09882143  0.06355060  0.85818908  1
  Zn  Zn96  1  0.21056391  0.96145350  0.97158856  1
  Zn  Zn97  1  0.18744215  0.17833096  0.30809255  1
  Zn  Zn98  1  1.01271170  0.81729827  0.05592782  1
  Zn  Zn99  1  0.43065737  0.96810284  0.62176358  1
  Zn  Zn100  1  0.41813215  0.55331365  0.50994024  1
  Zn  Zn101  1  0.20439093  0.18899355  0.72456562  1
  O  O102  1  0.02663441  0.14466756  0.10038360  1
  O  O103  1  0.12295868  0.17081329  0.64913054  1
  O  O104  1  0.12801933  0.64132295  0.12480557  1
  O  O105  1  0.08722077  0.66572730  0.63393424  1
  O  O106  1  0.71664495  0.04968698  0.11427029  1
  O  O107  1  0.60623142  0.09996713  0.65099544  1
  O  O108  1  0.64115235  0.64128071  0.10020316  1
  O  O109  1  0.58006449  0.63925321  0.64612998  1
  O  O110  1  0.43397497  0.34301266  0.34125783  1
  O  O111  1  0.35641538  0.37172648  0.86005024  1
  O  O112  1  0.39834521  0.83037501  0.37066849  1
  O  O113  1  0.45592936  0.92163970  0.77793623  1
  O  O114  1  0.89024039  0.37193349  0.46137731  1
  O  O115  1  0.84558925  0.42277127  0.85848954  1
  O  O116  1  0.88249445  0.81367815  0.39601801  1
  O  O117  1  0.89459024  0.91077989  0.85262630  1
  O  O118  1  0.23055773  -0.00502059  0.38149646  1
  O  O119  1  0.18227577  0.06229473  0.93756801  1
  O  O120  1  0.34787712  0.48698508  0.33103058  1
  O  O121  1  0.27636904  0.51295344  0.84767975  1
  O  O122  1  0.75675160  -0.06820715  0.37893551  1
  O  O123  1  0.71816052  -0.00787394  0.84028110  1
  O  O124  1  0.81835452  0.41863462  0.32648554  1
  O  O125  1  0.75366429  0.53406614  0.82951591  1
  O  O126  1  0.21831312  0.51979992  0.10119561  1
  O  O127  1  0.21461534  0.44992802  0.70249626  1
  O  O128  1  0.22282962  0.91886925  0.20552405  1
  O  O129  1  0.30114134  1.09996211  0.50587054  1
  O  O130  1  0.69154552  0.43110936  0.15522778  1
  O  O131  1  0.63940190  0.51912593  0.49901411  1
  O  O132  1  0.78258423  0.91249281  0.14970490  1
  O  O133  1  0.71976915  0.99446522  0.61702268  1
  O  O134  1  0.10002645  0.35049429  0.28875502  1
  O  O135  1  -0.06110282  0.35645322  0.73765249  1
  O  O136  1  -0.02945910  0.79647225  0.25713429  1
  O  O137  1  0.04928023  0.97020214  0.82297669  1
  O  O138  1  0.51682787  0.41621551  0.24251044  1
  O  O139  1  0.52499241  0.38707954  0.72592457  1
  O  O140  1  0.46985120  0.92424363  0.23538827  1
  O  O141  1  0.52240032  0.90132684  0.78340617  1
  O  O142  1  0.57020152  0.13832560  0.21338397  1
  O  O143  1  0.49873609  0.15694043  0.75931699  1
  O  O144  1  0.48483328  0.53764242  0.40808597  1
  O  O145  1  0.44460968  0.63294727  0.72633941  1
  O  O146  1  0.97315264  0.09754553  0.23912800  1
  O  O147  1  0.98094235  0.14110363  0.73728305  1
  O  O148  1  0.98698332  0.65130090  0.18628101  1
  O  O149  1  0.99713796  0.67116384  0.75507174  1
  O  O150  1  0.23899891  0.29299879  0.14162283  1
  O  O151  1  0.36039884  0.28675151  0.49599051  1
  O  O152  1  0.37722996  0.76265769  -0.02638514  1
  O  O153  1  0.29487651  0.80931049  0.52247580  1
  O  O154  1  0.80692606  0.28169480  -0.05175516  1
  O  O155  1  0.85961372  0.21781053  0.52034888  1
  O  O156  1  0.85098919  0.78628008  -0.02868635  1
  O  O157  1  0.87847356  0.66469461  0.47598959  1
  O  O158  1  0.06357296  0.23981248  0.46968324  1
  O  O159  1  0.03625725  0.28752134  1.02851588  1
  O  O160  1  0.14561824  0.75197346  0.49779787  1
  O  O161  1  0.10214117  0.76602323  0.98858909  1
  O  O162  1  0.65598921  0.23531524  0.49693728  1
  O  O163  1  0.65447284  0.31916881  0.96509646  1
  O  O164  1  0.61293584  0.70594246  0.47259899  1
  O  O165  1  0.63158830  0.73995882  0.98009673  1
  O  O166  1  0.38861307  0.32961336  0.06213703  1
  O  O167  1  0.49708243  0.32808097  0.57615329  1
  O  O168  1  0.47384178  0.78097676  0.06046401  1
  O  O169  1  0.47917385  0.79251591  0.67854625  1
  O  O170  1  1.00114504  0.27406618  0.19797130  1
  O  O171  1  0.97248074  0.23263715  0.63097532  1
  O  O172  1  0.92070655  0.65339311  0.22194957  1
  O  O173  1  1.00249171  0.83967823  0.71216013  1
  O  O174  1  -0.05512562  0.15887712  0.40354193  1
  O  O175  1  -0.05205926  0.24503950  0.84885991  1
  O  O176  1  0.02575919  0.69852898  0.39932709  1
  O  O177  1  0.01899834  0.82401028  0.87811531  1
  O  O178  1  0.55131701  0.28144651  0.29167637  1
  O  O179  1  0.48483971  0.26859244  0.90187814  1
  O  O180  1  0.53990775  0.77583211  0.36008011  1
  O  O181  1  0.51076590  0.70821005  0.86693802  1
  O  O182  1  0.39092046  0.23145022  0.45752414  1
  O  O183  1  0.16454028  0.19030201  1.02517306  1
  O  O184  1  0.26576561  0.57008214  0.42993214  1
  O  O185  1  0.25974444  0.60660591  0.96712354  1
  O  O186  1  0.88648335  0.00434898  0.45283482  1
  O  O187  1  0.74528053  0.11299084  0.94569458  1
  O  O188  1  0.73400562  0.64995002  0.55557685  1
  O  O189  1  0.75232740  0.66421329  0.98259991  1
  O  O190  1  0.25457743  0.35472129  0.17272427  1
  O  O191  1  0.18942759  0.51244477  0.68406894  1
  O  O192  1  0.30083810  0.91031277  -0.05428240  1
  O  O193  1  0.17145213  0.91873722  0.51833672  1
  O  O194  1  0.70299066  0.37503560  -0.03341332  1
  O  O195  1  0.73568720  0.39023767  0.48455006  1
  O  O196  1  0.72306635  0.86816757  -0.03281645  1
  O  O197  1  0.78734268  0.79316594  0.52486867  1
  O  O198  1  0.11703548  0.54140717  0.23179298  1
  O  O199  1  0.12084246  0.41454084  0.82848100  1
  O  O200  1  0.07417520  0.96736976  0.20632234  1
  O  O201  1  0.17205534  1.14258817  0.81844348  1
  O  O202  1  0.73712259  0.60215451  0.22904942  1
  O  O203  1  0.64636584  0.46819219  0.71126315  1
  O  O204  1  0.65643458  0.96455910  0.22547772  1
  O  O205  1  0.63253485  0.96424665  0.72058659  1
  O  O206  1  0.33098622  0.02924341  0.24598179  1
  O  O207  1  0.41351124  0.06321710  0.68177555  1
  O  O208  1  0.39497520  0.52934126  0.13726536  1
  O  O209  1  0.32225698  0.56881336  0.66736575  1
  O  O210  1  0.89948777  -0.09951253  0.23379699  1
  O  O211  1  0.91544088  0.00141439  0.72988268  1
  O  O212  1  0.96342427  0.44694967  0.27759751  1
  O  O213  1  0.88522954  0.50929920  0.73869903  1
  O  O214  1  0.23904338  0.39101893  0.40681512  1
  O  O215  1  0.16119748  0.27287594  0.90018670  1
  O  O216  1  0.08398695  0.85991112  0.38793862  1
  O  O217  1  0.16200140  0.88307924  0.89900166  1
  O  O218  1  0.62993328  0.39560928  0.33580500  1
  O  O219  1  0.61359175  0.39350151  0.83527809  1
  O  O220  1  0.52216246  0.87998565  0.22139707  1
  O  O221  1  0.58604555  0.84580797  0.90143881  1
  O  O222  1  0.37164452  0.21236723  0.18807210  1
  O  O223  1  0.43515584  0.17657051  0.61832176  1
  O  O224  1  0.36535285  0.66108107  0.07517997  1
  O  O225  1  0.33679657  0.73310448  0.66172247  1
  O  O226  1  0.84865484  0.13624418  0.15324701  1
  O  O227  1  0.87320930  0.11111144  0.63076579  1
  O  O228  1  0.82135484  0.55951612  0.14146422  1
  O  O229  1  0.92924174  0.61729359  0.62262355  1
  O  O230  1  0.26490169  0.24167640  0.33740735  1
  O  O231  1  0.25429726  0.33731939  0.58276753  1
  O  O232  1  0.27115744  0.75440775  0.08222253  1
  O  O233  1  0.18499514  0.81495110  0.64152013  1
  O  O234  1  0.55999167  0.26150658  0.07930638  1
  O  O235  1  0.75042117  0.19153725  0.62587356  1
  O  O236  1  0.76095370  0.76827243  0.09614096  1
  O  O237  1  0.65105415  0.78553214  0.59517744  1
  O  O238  1  0.20799334  0.32719334  0.41075875  1
  O  O239  1  0.28962146  0.18112700  0.92916609  1
  O  O240  1  0.18655829  0.72803780  0.43151687  1
  O  O241  1  0.22554389  0.74039170  0.89227225  1
  O  O242  1  0.76797247  0.25553681  0.38605472  1
  O  O243  1  0.79084263  0.26601536  0.88097747  1
  O  O244  1  0.71912655  0.74807478  0.40346414  1
  O  O245  1  0.74822302  0.75447504  0.86723822  1
  O  O246  1  -0.09981619  0.11060721  0.01731051  1
  O  O247  1  0.02071534  0.11312057  0.53457771  1
  O  O248  1  -0.01816739  0.66409803  -0.02939878  1
  O  O249  1  0.03636082  0.56084394  0.51980282  1
  O  O250  1  0.50409307  0.12486470  -0.02116745  1
  O  O251  1  0.64538540  0.15936971  0.36170932  1
  O  O252  1  0.54973197  0.59915301  -0.01776566  1
  O  O253  1  0.43814913  0.65460687  0.55611308  1
  O  O254  1  0.54501324  0.34201663  0.43152174  1
  O  O255  1  0.51500475  0.42070579  0.99360208  1
  O  O256  1  0.47169849  0.81503904  0.50976998  1
  O  O257  1  0.48765863  0.91926117  0.99289009  1
  O  O258  1  1.02126006  0.40574814  0.57366350  1
  O  O259  1  0.88227785  0.37021442  1.05962056  1
  O  O260  1  0.94752362  0.80075563  0.53911098  1
  O  O261  1  0.98203032  0.91095783  0.99556619  1
  O  O262  1  0.50673292  0.47211806  0.37611667  1
  O  O263  1  0.44277269  0.51083649  0.85997940  1
  O  O264  1  0.51422507  0.94045669  0.40339346  1
  O  O265  1  0.56092036  1.02102041  0.89120080  1
  O  O266  1  1.07047102  0.44888022  0.41206678  1
  O  O267  1  0.97238461  0.52620453  0.87787767  1
  O  O268  1  0.96061565  0.86815644  0.26634110  1
  O  O269  1  0.96389217  1.02608795  0.92256304  1
  O  O270  1  -0.05769580  0.00715518  0.11722225  1
  O  O271  1  0.05270582  0.03465499  0.65700001  1
  O  O272  1  -0.18233838  0.37343535  0.08439945  1
  O  O273  1  0.03954069  0.52318794  0.71049549  1
  O  O274  1  0.47638544  0.03668807  0.07150247  1
  O  O275  1  0.43942090  0.02251642  0.52422582  1
  O  O276  1  0.54259019  0.42885838  0.06164839  1
  O  O277  1  0.48404799  0.51711262  0.61075913  1
  O  O278  1  0.34422766  0.46147938  0.26536996  1
  O  O279  1  0.22365822  0.30200500  0.75688060  1
  O  O280  1  0.27060742  0.93083770  0.35637198  1
  O  O281  1  0.24976924  0.96848149  0.76339502  1
  O  O282  1  0.70890306  0.30487519  0.17392683  1
  O  O283  1  0.72089054  0.35307471  0.75455761  1
  O  O284  1  0.80950424  0.77924196  0.24089970  1
  O  O285  1  0.77390506  0.88445709  0.73218565  1
  O  O286  1  0.18212724  0.07666036  0.26305560  1
  O  O287  1  0.30854921  0.17374038  0.69260149  1
  O  O288  1  0.34031676  0.64788192  0.29482743  1
  O  O289  1  0.22910286  0.65806596  0.74765759  1
  O  O290  1  0.78107319  0.07474340  0.31151102  1
  O  O291  1  0.77804531  0.06342547  0.73412205  1
  O  O292  1  0.78149707  0.54852163  0.20525231  1
  O  O293  1  0.74111658  0.66338144  0.73997048  1
  O  O294  1  0.43155749  0.16713384  0.29469722  1
  O  O295  1  0.36941040  0.12428492  0.80137695  1
  O  O296  1  0.32540502  0.60901311  0.43759970  1
  O  O297  1  0.34106835  0.64295029  0.82953774  1
  O  O298  1  0.90031030  -0.00143179  0.37678494  1
  O  O299  1  0.85564726  0.11475250  0.83643280  1
  O  O300  1  0.91779833  0.51541898  0.40591253  1
  O  O301  1  0.84909494  0.62389111  0.85999953  1
  O  O302  1  0.09268612  0.43497927  0.13124293  1
  O  O303  1  0.20458866  0.28993745  0.56393582  1
  O  O304  1  0.10161090  0.82239852  0.13001061  1
  O  O305  1  0.21646373  0.99259715  0.70648078  1
  O  O306  1  0.50660831  0.23157752  0.11243361  1
  O  O307  1  0.63374947  0.35369552  0.63328372  1
  O  O308  1  0.62625769  0.88185317  0.09559201  1
  O  O309  1  0.53814989  0.94045079  0.61560972  1
  O  O310  1  0.07819332  0.19414478  0.32297501  1
  O  O311  1  0.06842572  0.27664862  0.76035878  1
  O  O312  1  0.13022342  0.73927690  0.29128896  1
  O  O313  1  0.10661526  0.75842956  0.79798032  1
  O  O314  1  0.63242270  0.16142936  0.19027216  1
  O  O315  1  0.61172646  0.26925127  0.74032859  1
  O  O316  1  0.65565396  0.74408817  0.26348812  1
  O  O317  1  0.61961688  0.76649054  0.77249448  1
  O  O318  1  0.41733343  0.16212879  0.21222557  1
  O  O319  1  0.40898137  0.26089681  0.73523554  1
  O  O320  1  0.40094907  0.75730306  0.17320344  1
  O  O321  1  0.36389211  0.80952388  0.80105381  1
  O  O322  1  0.95379223  0.31450043  0.34824967  1
  O  O323  1  0.85975724  0.23383053  0.72686014  1
  O  O324  1  0.91330325  0.62015040  0.28554575  1
  O  O325  1  0.90435696  0.76436420  0.81017630  1
  O  O326  1  0.37157757  0.45468132  0.51715092  1
  O  O327  1  0.35246916  0.47381636  0.98615642  1
  O  O328  1  0.50252869  1.11375125  0.42427330  1
  O  O329  1  0.42115641  1.01659122  0.92402509  1
  O  O330  1  0.83362666  0.49100070  0.56213247  1
  O  O331  1  0.89481686  0.53756810  1.01463313  1
  O  O332  1  0.85326638  0.93583857  0.57692066  1
  O  O333  1  0.83153302  0.97398521  1.00401249  1
  O  O334  1  0.15532699  -0.04020729  0.06696276  1
  O  O335  1  0.24606307  0.14582468  0.50467217  1
  O  O336  1  0.05835462  0.53888602  0.03144986  1
  O  O337  1  0.16711949  0.47316555  0.53659875  1
  O  O338  1  0.60454215  -0.00135853  0.00389058  1
  O  O339  1  0.60437655  0.02515035  0.51261978  1
  O  O340  1  0.69085579  0.53051768  -0.00857207  1
  O  O341  1  0.59651498  0.46583781  0.51519970  1
  O  O342  1  0.40610385  0.35349732  0.12668538  1
  O  O343  1  0.36171721  0.39847311  0.67869064  1
  O  O344  1  0.34923038  0.86285116  0.08970365  1
  O  O345  1  0.35978939  0.89636686  0.65819391  1
  O  O346  1  0.67196930  0.36046699  0.14224467  1
  O  O347  1  0.83037688  0.33432022  0.61131720  1
  O  O348  1  0.91701909  0.80715642  0.11301209  1
  O  O349  1  0.90216220  0.90044692  0.61112095  1
  O  O350  1  0.07664112  0.05763562  0.39662421  1
  O  O351  1  0.04566032  0.15247417  0.93263790  1
  O  O352  1  0.28203798  0.62771196  0.26141660  1
  O  O353  1  0.14642321  0.59224122  0.86009640  1
  O  O354  1  0.75553473  0.09281825  0.46449572  1
  O  O355  1  0.69108281  0.15602495  0.81032193  1
  O  O356  1  0.61297246  0.62188724  0.34677812  1
  O  O357  1  0.65051818  0.64236609  0.86906187  1
