# generated using pymatgen
data_V51Zn51O256
_symmetry_space_group_name_H-M   'P 1'
_cell_length_a   17.40497811
_cell_length_b   17.34524256
_cell_length_c   17.44089063
_cell_angle_alpha   89.92672964
_cell_angle_beta   89.20955566
_cell_angle_gamma   89.37574875
_symmetry_Int_Tables_number   1
_chemical_formula_structural   V51Zn51O256
_chemical_formula_sum   'V51 Zn51 O256'
_cell_volume   5264.47580195
_cell_formula_units_Z   1
loop_
 _symmetry_equiv_pos_site_id
 _symmetry_equiv_pos_as_xyz
  1  'x, y, z'
loop_
 _atom_site_type_symbol
 _atom_site_label
 _atom_site_symmetry_multiplicity
 _atom_site_fract_x
 _atom_site_fract_y
 _atom_site_fract_z
 _atom_site_occupancy
  V  V0  1  0.61744596  0.70716684  0.33043240  1
  V  V1  1  0.35644251  0.86505537  0.47285053  1
  V  V2  1  0.34348811  0.73644868  0.13940092  1
  V  V3  1  0.85587801  0.92491993  0.01036262  1
  V  V4  1  0.73439433  0.03230162  0.28792220  1
  V  V5  1  0.89784935  0.26330566  0.12970575  1
  V  V6  1  0.01637657  0.97909094  0.96294886  1
  V  V7  1  0.85410338  0.55386524  0.22887553  1
  V  V8  1  0.41639820  0.82548750  -0.01546240  1
  V  V9  1  0.05158449  0.29055957  0.23601114  1
  V  V10  1  0.89978878  0.49203697  0.85225331  1
  V  V11  1  0.23003690  0.44739439  0.76574688  1
  V  V12  1  0.89518484  0.11913910  0.28786233  1
  V  V13  1  0.49123813  0.00431774  0.51778230  1
  V  V14  1  0.89638723  0.23449232  0.60489002  1
  V  V15  1  0.35814396  0.21118519  0.02069484  1
  V  V16  1  0.38597822  0.05936692  0.74227372  1
  V  V17  1  0.47975918  0.70024090  0.24244111  1
  V  V18  1  0.58374444  0.37681250  0.25254088  1
  V  V19  1  0.78103194  0.86848102  0.17484657  1
  V  V20  1  -0.00062456  0.24208075  0.79518586  1
  V  V21  1  0.23813371  0.87617063  0.12744852  1
  V  V22  1  0.77571261  0.75798680  0.00701693  1
  V  V23  1  0.21388523  -0.03196535  0.76581754  1
  V  V24  1  0.75169840  0.12009418  0.86732031  1
  V  V25  1  0.39380282  -0.00089771  0.34678449  1
  V  V26  1  0.61199833  0.59051373  0.52647545  1
  V  V27  1  0.11104329  0.87730343  0.25609763  1
  V  V28  1  0.60403259  0.39408989  0.71383468  1
  V  V29  1  0.24957643  0.02527912  0.22583686  1
  V  V30  1  0.25626866  0.09228583  0.41762959  1
  V  V31  1  0.26510464  0.41277312  0.13790404  1
  V  V32  1  0.89047100  0.10612800  0.76033546  1
  V  V33  1  0.38085459  0.69297129  0.71105016  1
  V  V34  1  0.37336664  0.37433794  0.51793771  1
  V  V35  1  0.62985333  0.24618065  0.81026051  1
  V  V36  1  0.65550525  0.86733837  0.74102315  1
  V  V37  1  0.00057718  0.48665894  0.48983406  1
  V  V38  1  0.27962740  0.08641909  0.89670417  1
  V  V39  1  0.39154800  0.48864964  0.89725887  1
  V  V40  1  0.67121835  0.17881407  0.03576731  1
  V  V41  1  0.52503008  0.64671902  0.06820840  1
  V  V42  1  0.73889349  0.77305986  0.47128727  1
  V  V43  1  -0.00002711  0.72864904  0.74562291  1
  V  V44  1  0.54186786  0.02794919  0.00448484  1
  V  V45  1  0.73321690  0.35827352  0.58865408  1
  V  V46  1  0.47632155  0.23701996  0.72412852  1
  V  V47  1  0.59712809  0.90345778  0.22881552  1
  V  V48  1  0.35689380  0.50486419  0.39452775  1
  V  V49  1  0.24394882  0.25989727  0.53311486  1
  V  V50  1  0.13967542  0.24940419  0.37769510  1
  Zn  Zn51  1  0.23525225  0.90119427  0.35851792  1
  Zn  Zn52  1  -0.02666540  0.92842737  0.15025807  1
  Zn  Zn53  1  0.09660397  0.10594395  0.83140641  1
  Zn  Zn54  1  0.54997221  0.59650673  0.71413200  1
  Zn  Zn55  1  0.78533612  0.51970255  0.48856159  1
  Zn  Zn56  1  0.20018464  0.89758563  0.92844393  1
  Zn  Zn57  1  0.81165933  0.73140267  0.30704607  1
  Zn  Zn58  1  0.76624303  0.09426164  0.64563654  1
  Zn  Zn59  1  0.35761780  0.85476470  0.81059451  1
  Zn  Zn60  1  0.32152529  0.54434964  0.62424690  1
  Zn  Zn61  1  0.76867977  0.39994990  0.31746208  1
  Zn  Zn62  1  0.04772104  0.68072608  0.56350310  1
  Zn  Zn63  1  0.92519458  0.75064177  0.93470815  1
  Zn  Zn64  1  0.88313032  0.60063676  0.02961972  1
  Zn  Zn65  1  0.18966269  0.62906715  0.69615029  1
  Zn  Zn66  1  0.14879856  0.28633009  0.70602229  1
  Zn  Zn67  1  0.72004023  0.38978375  0.82967986  1
  Zn  Zn68  1  0.59266232  -0.03068841  0.36789000  1
  Zn  Zn69  1  0.81727801  0.26755723  0.41904783  1
  Zn  Zn70  1  0.52835114  0.31989005  0.06427415  1
  Zn  Zn71  1  0.93696366  0.15688857  0.95121735  1
  Zn  Zn72  1  0.03884299  0.38767335  0.07902742  1
  Zn  Zn73  1  0.98497195  0.39812044  0.68264759  1
  Zn  Zn74  1  0.09066221  0.55980685  0.82661902  1
  Zn  Zn75  1  0.23660209  0.21896208  0.19068441  1
  Zn  Zn76  1  0.82331874  0.11084084  0.09512410  1
  Zn  Zn77  1  0.28870411  -0.00480217  0.59230866  1
  Zn  Zn78  1  0.37818874  0.54782481  0.09120963  1
  Zn  Zn79  1  0.54770557  0.29346223  0.57059242  1
  Zn  Zn80  1  0.35274212  0.00691236  0.04706148  1
  Zn  Zn81  1  0.69997345  0.68462508  0.64946847  1
  Zn  Zn82  1  0.09958291  0.11044840  0.28938676  1
  Zn  Zn83  1  0.42410601  0.88741110  0.65632511  1
  Zn  Zn84  1  0.68734602  0.69609657  0.16342069  1
  Zn  Zn85  1  0.03230036  0.58651619  0.30936879  1
  Zn  Zn86  1  0.40001733  0.16565279  0.58228535  1
  Zn  Zn87  1  0.45906790  0.68538033  0.43972594  1
  Zn  Zn88  1  0.47186984  0.14474330  0.88475895  1
  Zn  Zn89  1  0.73500261  0.22947464  0.22629488  1
  Zn  Zn90  1  0.60853533  0.84466040  0.05411260  1
  Zn  Zn91  1  0.53573173  0.53546255  0.38547641  1
  Zn  Zn92  1  0.39535262  0.87604217  0.23876056  1
  Zn  Zn93  1  0.47295377  0.68701134  0.86990122  1
  Zn  Zn94  1  0.68284805  0.93874541  0.92028413  1
  Zn  Zn95  1  0.70083286  0.97512603  0.49535652  1
  Zn  Zn96  1  0.90485293  0.67221225  0.45513636  1
  Zn  Zn97  1  0.79358599  0.25201529  0.74792505  1
  Zn  Zn98  1  0.20075250  0.42354512  0.43406493  1
  Zn  Zn99  1  0.79313877  0.73575162  0.80047928  1
  Zn  Zn100  1  0.05708864  0.29564204  0.55026622  1
  Zn  Zn101  1  0.15998692  0.69697511  0.21224767  1
  O  O102  1  0.13885593  0.24429163  -0.01154585  1
  O  O103  1  0.06728960  0.02276376  0.62982306  1
  O  O104  1  0.17079746  0.64969634  0.08013097  1
  O  O105  1  0.12939383  0.63438326  0.60749357  1
  O  O106  1  0.72131778  0.17117289  0.12038746  1
  O  O107  1  0.64436178  0.17338458  0.55762039  1
  O  O108  1  0.62219731  0.64737954  0.09014777  1
  O  O109  1  0.62635313  0.60419633  0.62873926  1
  O  O110  1  0.37735135  0.40271422  0.41809171  1
  O  O111  1  0.44420832  0.39349923  0.93670418  1
  O  O112  1  0.36517696  0.89469462  0.35671279  1
  O  O113  1  0.42320023  0.79953709  0.88500040  1
  O  O114  1  0.85987158  0.36116533  0.36583750  1
  O  O115  1  0.89891311  0.39459760  0.88777379  1
  O  O116  1  0.94863142  0.87633298  0.40671912  1
  O  O117  1  0.92769025  0.93226891  0.93375644  1
  O  O118  1  0.24926661  0.01664764  0.34207822  1
  O  O119  1  0.25030427  -0.00168105  0.92526003  1
  O  O120  1  0.26052570  0.51516554  0.42266798  1
  O  O121  1  0.30270753  0.42885357  0.85442518  1
  O  O122  1  0.70254129  0.00688675  0.38105164  1
  O  O123  1  0.73623425  0.02615160  0.88050611  1
  O  O124  1  0.74177207  0.46257590  0.40424398  1
  O  O125  1  0.80305147  0.46060957  0.83065550  1
  O  O126  1  0.26089100  0.50707234  0.09456000  1
  O  O127  1  0.23324663  0.51126608  0.68663316  1
  O  O128  1  0.26913120  0.98581296  0.12607477  1
  O  O129  1  0.21873216  0.95307153  0.66927685  1
  O  O130  1  0.71631013  0.44881718  0.02956575  1
  O  O131  1  0.77075279  0.44859089  0.57529304  1
  O  O132  1  0.75602905  0.96620099  0.20653224  1
  O  O133  1  0.73423330  1.00867621  0.59167210  1
  O  O134  1  0.05206402  0.38129887  0.26272004  1
  O  O135  1  0.01502450  0.33869006  0.77174555  1
  O  O136  1  0.01362996  0.90154718  0.24225473  1
  O  O137  1  0.01217856  0.82052829  0.71500077  1
  O  O138  1  0.48553383  0.35564810  0.25330933  1
  O  O139  1  0.51426534  0.33333768  0.70743763  1
  O  O140  1  0.50311426  0.89104087  0.20666091  1
  O  O141  1  0.55887307  0.87033263  0.72362079  1
  O  O142  1  0.52242037  0.12292635  0.19835449  1
  O  O143  1  0.46964458  0.10983626  0.73355528  1
  O  O144  1  0.46641359  0.60837325  0.25216133  1
  O  O145  1  0.45773568  0.64881819  0.66738716  1
  O  O146  1  0.99191414  0.09790904  0.29547610  1
  O  O147  1  0.98862832  0.11975409  0.77753281  1
  O  O148  1  0.95440542  0.53688451  0.24646327  1
  O  O149  1  1.01836576  0.62212014  0.76971182  1
  O  O150  1  0.45369428  0.16906629  -0.00603787  1
  O  O151  1  0.34965070  0.26932537  0.55606677  1
  O  O152  1  0.35822799  0.75468805  0.03649553  1
  O  O153  1  0.40247889  0.77824897  0.47331368  1
  O  O154  1  0.89498001  0.19187601  0.05095742  1
  O  O155  1  0.86765651  0.22909464  0.51328717  1
  O  O156  1  0.87954117  0.80983033  0.01556066  1
  O  O157  1  0.82243089  0.73929358  0.41663816  1
  O  O158  1  0.13863233  0.25817656  0.48400223  1
  O  O159  1  0.15555434  0.28840142  0.93657227  1
  O  O160  1  -0.02331221  0.73303037  0.50627122  1
  O  O161  1  -0.01762469  0.75221449  1.12629402  1
  O  O162  1  0.61220451  0.21649361  0.50276012  1
  O  O163  1  0.61960712  0.26341156  1.02902901  1
  O  O164  1  0.65616752  0.74736975  0.41852376  1
  O  O165  1  0.67966222  0.77620863  0.99547905  1
  O  O166  1  0.43572237  0.26531925  0.07514362  1
  O  O167  1  0.49345828  0.21042424  0.62563425  1
  O  O168  1  0.47121448  0.71225488  0.13166058  1
  O  O169  1  0.50614054  0.79793823  0.59412149  1
  O  O170  1  1.07723487  0.30202335  0.13825174  1
  O  O171  1  0.99468206  0.21780427  0.59721757  1
  O  O172  1  1.03245415  0.70229924  0.13665688  1
  O  O173  1  0.97674888  0.69016155  0.65375144  1
  O  O174  1  0.04640362  0.26016126  0.35666351  1
  O  O175  1  -0.00979950  0.23719506  0.89253504  1
  O  O176  1  0.00503219  0.83450488  0.40929143  1
  O  O177  1  -0.00570629  0.74432860  0.84870116  1
  O  O178  1  0.47721207  0.19364768  0.36051128  1
  O  O179  1  0.52201927  0.22541517  0.82271931  1
  O  O180  1  0.50786541  0.72879924  0.34358999  1
  O  O181  1  0.55582766  0.66437930  0.79964586  1
  O  O182  1  0.24538449  0.03518577  0.49619768  1
  O  O183  1  0.32523845  0.10668202  0.98975470  1
  O  O184  1  0.28366634  0.66296798  0.48977564  1
  O  O185  1  0.22217546  0.65404608  1.03158611  1
  O  O186  1  0.71444653  0.14877486  0.54259368  1
  O  O187  1  0.74501290  0.16290631  0.96571373  1
  O  O188  1  0.70356777  0.59934924  0.48475393  1
  O  O189  1  0.78985714  0.66108297  1.02632371  1
  O  O190  1  0.30123409  0.35094302  0.06304373  1
  O  O191  1  0.25239506  0.36045462  0.51218311  1
  O  O192  1  0.22950760  0.86282465  0.03113455  1
  O  O193  1  0.26036179  0.85266318  0.45397652  1
  O  O194  1  0.71438541  0.39518114  -0.01784761  1
  O  O195  1  0.74254734  0.31962067  0.49999578  1
  O  O196  1  0.76990503  0.89509798  -0.02492239  1
  O  O197  1  0.74130548  0.87042116  0.47742111  1
  O  O198  1  0.11801086  0.60412820  0.25013618  1
  O  O199  1  0.17497971  0.62187454  0.80272387  1
  O  O200  1  0.15075624  1.03646952  0.22281152  1
  O  O201  1  0.12479113  1.00036600  0.79278918  1
  O  O202  1  0.56199788  0.47008883  0.28950031  1
  O  O203  1  0.56644411  0.48348140  0.71815235  1
  O  O204  1  0.62039059  1.00035967  0.24971942  1
  O  O205  1  0.66290581  0.96744519  0.75237409  1
  O  O206  1  0.36746749  -0.00351516  0.24969883  1
  O  O207  1  0.40305455  -0.04124308  0.75051238  1
  O  O208  1  0.35817501  0.50868906  0.30178793  1
  O  O209  1  0.29876471  0.51169020  0.83687331  1
  O  O210  1  0.83703054  0.03525703  0.31005495  1
  O  O211  1  0.88249916  0.01333517  0.74706042  1
  O  O212  1  0.83158394  0.45554787  0.23629976  1
  O  O213  1  0.92832699  0.47740671  0.75371265  1
  O  O214  1  0.18629933  0.33608780  0.36448728  1
  O  O215  1  0.13984874  0.46201525  0.80139344  1
  O  O216  1  0.12343178  0.91663481  0.34658951  1
  O  O217  1  0.09015170  0.92026359  0.93637636  1
  O  O218  1  0.59116302  0.32981823  0.33908067  1
  O  O219  1  0.60904676  0.35663790  0.81850447  1
  O  O220  1  0.61282578  0.86250700  0.31708602  1
  O  O221  1  0.64333116  0.86171924  0.84512194  1
  O  O222  1  0.28543288  0.20213473  0.09370251  1
  O  O223  1  0.34872163  0.07967179  0.64587367  1
  O  O224  1  0.33463660  0.63888173  0.14017887  1
  O  O225  1  0.29944829  0.64976135  0.66273282  1
  O  O226  1  0.86597995  0.14021638  0.19464954  1
  O  O227  1  0.86998002  0.13704177  0.64958884  1
  O  O228  1  0.88116059  0.55151776  0.12647795  1
  O  O229  1  0.85057181  0.60492939  0.52054979  1
  O  O230  1  0.27803799  0.32596302  0.19626245  1
  O  O231  1  0.20626491  0.23391182  0.61813438  1
  O  O232  1  0.24110078  0.75908232  0.15967035  1
  O  O233  1  0.14672938  0.83942756  0.59237546  1
  O  O234  1  0.80803174  0.29084208  0.16123288  1
  O  O235  1  0.78870660  0.28305295  0.64138705  1
  O  O236  1  0.76905917  0.77769793  0.12022438  1
  O  O237  1  0.74323803  0.73707053  0.56351425  1
  O  O238  1  0.27132548  0.18555689  0.46452743  1
  O  O239  1  0.32683416  0.25615421  0.94530555  1
  O  O240  1  0.12353880  0.70003976  0.42823961  1
  O  O241  1  0.16904064  0.75462719  0.92163379  1
  O  O242  1  0.74761489  0.29020558  0.32483568  1
  O  O243  1  0.73319991  0.27725982  0.83729607  1
  O  O244  1  0.70889283  0.71182732  0.27432302  1
  O  O245  1  0.81449276  0.74669185  0.90389180  1
  O  O246  1  0.04668080  0.14684810  0.08432325  1
  O  O247  1  -0.13474475  -0.00353025  0.46671584  1
  O  O248  1  -0.04190436  0.66314397  -0.01165935  1
  O  O249  1  0.01018272  0.58754739  0.50482965  1
  O  O250  1  0.60525247  0.10304813  0.03850780  1
  O  O251  1  0.46723882  0.09952730  0.51782841  1
  O  O252  1  0.50285917  0.66501555  -0.02619476  1
  O  O253  1  0.54989961  0.66360054  0.50001047  1
  O  O254  1  0.46829317  0.35534716  0.52786384  1
  O  O255  1  0.49235988  0.40909037  0.99162253  1
  O  O256  1  0.55817872  0.81968927  0.55025478  1
  O  O257  1  0.50466217  0.82820127  1.02381622  1
  O  O258  1  1.00263692  0.38281398  0.48720191  1
  O  O259  1  1.06008428  0.40469653  0.97723619  1
  O  O260  1  0.95025744  0.90233596  0.57885518  1
  O  O261  1  1.00482694  0.98062290  1.06142057  1
  O  O262  1  0.43091489  0.57438893  0.41918894  1
  O  O263  1  0.46240465  0.52806448  0.84911613  1
  O  O264  1  0.48960134  1.00989518  0.34060524  1
  O  O265  1  0.51850729  1.04360537  0.91159876  1
  O  O266  1  1.01887194  0.50148985  0.38698733  1
  O  O267  1  0.99912285  0.50583083  0.86375784  1
  O  O268  1  1.04367211  1.00594645  0.46813303  1
  O  O269  1  1.02145213  1.07394538  0.92636802  1
  O  O270  1  0.11689563  0.12417969  0.09122497  1
  O  O271  1  0.00809186  0.05699618  0.61380068  1
  O  O272  1  0.03908431  0.48873511  0.11289070  1
  O  O273  1  -0.01010909  0.48310159  0.59244713  1
  O  O274  1  0.46453100  0.01551189  0.06398671  1
  O  O275  1  0.48779615  -0.03325637  0.60729851  1
  O  O276  1  0.48862624  0.55732274  0.09238664  1
  O  O277  1  0.41411561  0.48735658  0.70221388  1
  O  O278  1  0.22033936  0.43943638  0.22465641  1
  O  O279  1  0.23097400  0.35571539  0.73244910  1
  O  O280  1  0.23056316  0.90416934  0.24349167  1
  O  O281  1  0.24701963  0.88314752  0.82071941  1
  O  O282  1  0.68033652  0.42371297  0.24989657  1
  O  O283  1  0.70518186  0.40351920  0.71547662  1
  O  O284  1  0.81703011  0.83223475  0.25562477  1
  O  O285  1  0.75479348  0.83781917  0.77187056  1
  O  O286  1  0.27807228  0.11879509  0.22650516  1
  O  O287  1  0.27359594  0.04805314  0.78030053  1
  O  O288  1  0.14949137  0.63894326  0.40212957  1
  O  O289  1  0.22569970  0.72021736  0.89457325  1
  O  O290  1  0.71499288  0.12593875  0.27100637  1
  O  O291  1  0.77135243  0.13088831  0.75865155  1
  O  O292  1  0.76347960  0.58346973  0.18969006  1
  O  O293  1  0.75191941  0.66116328  0.74051772  1
  O  O294  1  0.35862885  0.08960635  0.38885001  1
  O  O295  1  0.37385168  0.10624110  0.84218284  1
  O  O296  1  0.24401708  0.71360575  0.51950266  1
  O  O297  1  0.37984464  0.66676278  0.80455738  1
  O  O298  1  0.86449152  0.18566004  0.35285390  1
  O  O299  1  0.85970534  0.12627630  0.86784439  1
  O  O300  1  0.82159003  0.56096830  0.32599696  1
  O  O301  1  0.86008290  0.58533930  0.84074311  1
  O  O302  1  0.17718522  0.40082851  0.09256746  1
  O  O303  1  0.08135388  0.35600216  0.64045096  1
  O  O304  1  0.13670023  0.88027663  0.14806524  1
  O  O305  1  0.10493629  0.80173801  0.54990718  1
  O  O306  1  0.56721814  0.38750092  0.14847674  1
  O  O307  1  0.62727894  0.36137402  0.60735372  1
  O  O308  1  0.66037150  0.86539068  0.15361805  1
  O  O309  1  0.69232214  0.88479679  0.64967992  1
  O  O310  1  0.14193032  0.22483778  0.25354172  1
  O  O311  1  0.09722647  0.21055351  0.77119852  1
  O  O312  1  0.11660979  0.78003970  0.27301606  1
  O  O313  1  0.10298197  0.72817761  0.74188596  1
  O  O314  1  0.63041365  0.28786279  0.21847812  1
  O  O315  1  0.63917482  0.23281795  0.71711870  1
  O  O316  1  0.58242630  0.71970277  0.22670317  1
  O  O317  1  0.64410542  0.76545845  0.71871804  1
  O  O318  1  0.45481169  0.14216246  0.20345833  1
  O  O319  1  0.38463918  0.24985716  0.73554505  1
  O  O320  1  0.38579797  0.75332128  0.23923411  1
  O  O321  1  0.38716803  0.79748522  0.71339900  1
  O  O322  1  0.95417544  0.26082859  0.21824139  1
  O  O323  1  0.90570803  0.23652524  0.74843321  1
  O  O324  1  0.87416551  0.65608118  0.24223649  1
  O  O325  1  0.89719651  0.73763655  0.75997075  1
  O  O326  1  0.35816009  0.46194581  0.56289272  1
  O  O327  1  0.37313486  0.53738229  0.97902840  1
  O  O328  1  0.41537149  0.96046330  0.46329380  1
  O  O329  1  0.37402007  0.91391822  0.98248587  1
  O  O330  1  0.90231346  0.48436370  0.46989693  1
  O  O331  1  0.89007498  0.51902232  0.95374256  1
  O  O332  1  0.90181566  1.04338440  0.50309333  1
  O  O333  1  0.83717894  1.02077216  1.03240874  1
  O  O334  1  0.14985484  0.08463249  0.03792461  1
  O  O335  1  0.07825006  -0.04506744  0.50193469  1
  O  O336  1  0.08408842  0.58931021  -0.01219092  1
  O  O337  1  0.10576742  0.47320166  0.49031856  1
  O  O338  1  0.60559810  -0.05334786  -0.00063001  1
  O  O339  1  0.58509836  -0.01790478  0.48072743  1
  O  O340  1  0.64872175  0.54040761  -0.12334905  1
  O  O341  1  0.57613123  0.50629160  0.48732375  1
  O  O342  1  0.36317902  0.44809889  0.14953758  1
  O  O343  1  0.39424558  0.42309525  0.72543570  1
  O  O344  1  0.34304363  0.85576722  0.14167089  1
  O  O345  1  0.34643017  0.89353641  0.57176404  1
  O  O346  1  0.93369344  0.34372835  0.08643484  1
  O  O347  1  0.91028732  0.34200159  0.62656406  1
  O  O348  1  0.86537077  0.90141759  0.12069334  1
  O  O349  1  0.89507358  0.85902328  0.57243303  1
  O  O350  1  0.16691568  0.13986816  0.37796425  1
  O  O351  1  0.19753394  0.13813210  0.88290725  1
  O  O352  1  -0.03321665  0.65478804  0.36487043  1
  O  O353  1  0.13164562  0.56111421  0.94108075  1
  O  O354  1  0.54106925  0.16285627  0.35896829  1
  O  O355  1  0.65143503  0.15457700  0.85437630  1
  O  O356  1  0.61105756  0.61167459  0.34611173  1
  O  O357  1  0.67320797  0.58549858  0.92485069  1
