# generated using pymatgen
data_V51Zn51O256
_symmetry_space_group_name_H-M   'P 1'
_cell_length_a   17.94668504
_cell_length_b   17.87424448
_cell_length_c   17.14569071
_cell_angle_alpha   89.96601827
_cell_angle_beta   91.57601685
_cell_angle_gamma   91.48346272
_symmetry_Int_Tables_number   1
_chemical_formula_structural   V51Zn51O256
_chemical_formula_sum   'V51 Zn51 O256'
_cell_volume   5496.13024360
_cell_formula_units_Z   1
loop_
 _symmetry_equiv_pos_site_id
 _symmetry_equiv_pos_as_xyz
  1  'x, y, z'
loop_
 _atom_site_type_symbol
 _atom_site_label
 _atom_site_symmetry_multiplicity
 _atom_site_fract_x
 _atom_site_fract_y
 _atom_site_fract_z
 _atom_site_occupancy
  V  V0  1  0.90289591  0.00000868  0.87018567  1
  V  V1  1  0.35516016  0.50103057  0.87597762  1
  V  V2  1  0.39063934  0.95603636  0.51771163  1
  V  V3  1  0.68417660  0.20532474  0.95464284  1
  V  V4  1  0.73831119  0.49783470  0.19670439  1
  V  V5  1  0.78083118  0.78477422  0.61615849  1
  V  V6  1  0.24482417  0.38539546  0.62635688  1
  V  V7  1  0.65491487  0.39811043  0.83092425  1
  V  V8  1  0.63666339  0.00504281  0.67814331  1
  V  V9  1  0.71736181  0.62661619  0.90571208  1
  V  V10  1  0.54855460  0.24702152  0.26293687  1
  V  V11  1  0.76135387  0.56408415  0.41545365  1
  V  V12  1  0.13791351  0.54217203  0.09531833  1
  V  V13  1  -0.02296197  0.63796650  0.61900785  1
  V  V14  1  0.00332492  0.23745332  0.20176685  1
  V  V15  1  0.74480737  -0.01018184  0.19707761  1
  V  V16  1  0.89981979  0.10330160  0.18011474  1
  V  V17  1  0.45974983  0.90664697  0.34312383  1
  V  V18  1  0.92244785  0.52763396  0.36480668  1
  V  V19  1  0.75855441  0.04920607  0.79367257  1
  V  V20  1  0.61550553  0.08310738  0.48955438  1
  V  V21  1  0.21895142  0.06145626  0.18535655  1
  V  V22  1  -0.01018615  0.63952626  0.09810894  1
  V  V23  1  0.50084102  0.37802528  0.35788506  1
  V  V24  1  0.48565226  0.75562185  0.78214390  1
  V  V25  1  0.77906786  0.34598088  0.60461293  1
  V  V26  1  0.20750714  0.70677999  0.01104311  1
  V  V27  1  0.34885580  0.70833412  0.15717151  1
  V  V28  1  0.89978204  0.77511624  0.12201450  1
  V  V29  1  0.49404913  0.59618388  0.65707497  1
  V  V30  1  0.01528192  0.77120026  0.27857422  1
  V  V31  1  0.54466810  0.12905805  0.64970823  1
  V  V32  1  0.43526340  0.87527301  0.06784345  1
  V  V33  1  0.01106955  0.32907861  0.84580807  1
  V  V34  1  0.52369530  0.24841966  0.79822359  1
  V  V35  1  0.54020929  0.14225260  0.12617554  1
  V  V36  1  0.79157415  0.27608090  0.07923563  1
  V  V37  1  0.46682777  0.27799732  0.62009223  1
  V  V38  1  0.75429612  0.07421412  0.36430321  1
  V  V39  1  0.25515169  0.20414213  0.85172184  1
  V  V40  1  0.90309325  0.87211663  -0.02171980  1
  V  V41  1  0.42285830  -0.01384759  0.90514114  1
  V  V42  1  0.24661371  0.38739620  0.12219894  1
  V  V43  1  0.74961882  0.76816595  0.00796273  1
  V  V44  1  0.62192652  0.84994011  0.78763733  1
  V  V45  1  0.25176438  0.72317958  0.48785122  1
  V  V46  1  0.06473919  0.18976785  0.36918803  1
  V  V47  1  0.84460145  0.61914262  0.76108375  1
  V  V48  1  0.31439732  0.07182962  0.34629101  1
  V  V49  1  0.12892529  0.89410299  0.22848314  1
  V  V50  1  0.35416983  0.23269308  0.13359137  1
  Zn  Zn51  1  0.67036673  0.65410734  0.26658196  1
  Zn  Zn52  1  0.38310223  0.24887457  0.34366353  1
  Zn  Zn53  1  0.30087819  0.54814026  0.04740972  1
  Zn  Zn54  1  0.35711008  0.33942077  0.76259830  1
  Zn  Zn55  1  0.80855279  0.04519222  0.01292682  1
  Zn  Zn56  1  0.41251436  1.00904125  0.19770887  1
  Zn  Zn57  1  0.31036487  0.56624770  0.56582353  1
  Zn  Zn58  1  0.28935710  0.80888319  0.30372915  1
  Zn  Zn59  1  0.15898361  0.66270709  0.62116232  1
  Zn  Zn60  1  0.52764698  0.28481798  0.04266023  1
  Zn  Zn61  1  0.06795249  0.39748115  0.19786698  1
  Zn  Zn62  1  0.89118794  0.91187764  0.20895027  1
  Zn  Zn63  1  0.62871509  0.26830189  0.53158142  1
  Zn  Zn64  1  0.04628067  0.57399234  0.25146690  1
  Zn  Zn65  1  0.98736262  0.16375721  0.87455520  1
  Zn  Zn66  1  0.88459458  0.67092260  0.95072398  1
  Zn  Zn67  1  0.82341359  0.38660501  0.41959823  1
  Zn  Zn68  1  0.10169741  0.20066630  0.73062323  1
  Zn  Zn69  1  0.18906450  0.25848681  0.22325821  1
  Zn  Zn70  1  0.87790006  0.22292156  0.33934598  1
  Zn  Zn71  1  0.73508928  0.31996227  0.26163787  1
  Zn  Zn72  1  0.72511286  0.91504098  0.90264359  1
  Zn  Zn73  1  0.58075294  0.04809124  0.28773277  1
  Zn  Zn74  1  0.29953136  0.08190967  0.01391883  1
  Zn  Zn75  1  0.55396027  0.55587124  0.84771178  1
  Zn  Zn76  1  0.79450216  0.90882343  0.71050391  1
  Zn  Zn77  1  0.45792435  0.93717465  0.71193443  1
  Zn  Zn78  1  0.17928946  0.71281013  0.18924407  1
  Zn  Zn79  1  0.83558290  0.42880511  0.76609701  1
  Zn  Zn80  1  0.79420628  0.62152961  0.11318243  1
  Zn  Zn81  1  0.06007549  0.75978944  0.48239366  1
  Zn  Zn82  1  0.72911244  0.45491030  1.00065312  1
  Zn  Zn83  1  0.81881929  0.53004476  0.60142130  1
  Zn  Zn84  1  0.88008305  0.66403426  0.49683872  1
  Zn  Zn85  1  0.39749193  0.40242826  0.49427413  1
  Zn  Zn86  1  0.07104119  0.82178438  0.04964704  1
  Zn  Zn87  1  0.34373779  0.14808219  0.51183115  1
  Zn  Zn88  1  0.15518014  0.20129926  0.56011697  1
  Zn  Zn89  1  0.75807787  0.25581667  0.77251763  1
  Zn  Zn90  1  0.03868948  0.04040877  0.25559080  1
  Zn  Zn91  1  0.22746357  0.92954224  0.40536192  1
  Zn  Zn92  1  0.74769200  -0.02642170  0.54045955  1
  Zn  Zn93  1  0.71652418  0.80435094  0.18316462  1
  Zn  Zn94  1  0.81155429  0.78481304  0.82465803  1
  Zn  Zn95  1  0.88759417  0.38436221  0.25124301  1
  Zn  Zn96  1  0.43799063  0.37460506  0.16155108  1
  Zn  Zn97  1  0.53368283  0.78461572  0.22115519  1
  Zn  Zn98  1  0.70999656  0.15502383  0.19805804  1
  Zn  Zn99  1  0.66959888  0.67876987  0.72258616  1
  Zn  Zn100  1  0.58791084  0.07863222  0.86572829  1
  Zn  Zn101  1  0.44536438  0.16394400  0.93703664  1
  O  O102  1  0.02547191  0.11475634  -0.01393870  1
  O  O103  1  0.08847690  0.07301095  0.52355433  1
  O  O104  1  0.09520207  0.63916277  0.11524250  1
  O  O105  1  0.06568730  0.61069696  0.63845272  1
  O  O106  1  0.63277739  0.12294561  0.11965330  1
  O  O107  1  0.63682729  0.12592581  0.67052329  1
  O  O108  1  0.51710948  0.60059505  0.04395692  1
  O  O109  1  0.59483529  0.60675961  0.66848362  1
  O  O110  1  0.41028028  0.34889776  0.39896273  1
  O  O111  1  0.39238374  0.41636542  0.84032174  1
  O  O112  1  0.37558166  0.87387619  0.30681473  1
  O  O113  1  0.46153495  0.92366854  0.97704106  1
  O  O114  1  0.82890519  0.31888868  0.33012249  1
  O  O115  1  0.92680254  0.25998668  0.85607418  1
  O  O116  1  0.83021718  0.82194821  0.38788435  1
  O  O117  1  0.87761662  0.86395150  0.87854635  1
  O  O118  1  0.23151657  0.03788068  0.38001425  1
  O  O119  1  0.20555135  0.12223369  0.82710824  1
  O  O120  1  0.17588109  0.55589721  0.36716838  1
  O  O121  1  0.26587602  0.46434019  0.86237340  1
  O  O122  1  0.77990468  -0.00512417  0.31742230  1
  O  O123  1  0.76663227  0.02135933  0.89898228  1
  O  O124  1  0.75785725  0.47339565  0.38323886  1
  O  O125  1  0.74943289  0.53864504  0.92384480  1
  O  O126  1  0.22740340  0.49334517  0.11594635  1
  O  O127  1  0.23905824  0.47327204  0.57830233  1
  O  O128  1  0.22405127  1.05082422  0.08702745  1
  O  O129  1  0.19530888  0.94293205  0.69291443  1
  O  O130  1  0.75404663  0.51271791  0.09550698  1
  O  O131  1  0.62017970  0.48394493  0.52622856  1
  O  O132  1  0.75010201  1.00232547  0.09689118  1
  O  O133  1  0.74113305  1.01199176  0.68690626  1
  O  O134  1  -0.01780199  0.33992986  0.22857427  1
  O  O135  1  -0.06417158  0.38055236  0.81052134  1
  O  O136  1  0.04262944  0.90368849  0.26733636  1
  O  O137  1  -0.01473140  0.95576828  0.67457695  1
  O  O138  1  0.50256730  0.35510247  0.25325509  1
  O  O139  1  0.58398656  0.33031160  0.79727308  1
  O  O140  1  0.48794708  0.98238977  0.27982515  1
  O  O141  1  0.51665257  0.85438534  0.76165021  1
  O  O142  1  0.54534297  0.14603222  0.24520067  1
  O  O143  1  0.48930364  0.17319126  0.72002248  1
  O  O144  1  0.49852153  0.58386821  0.24277854  1
  O  O145  1  0.50207574  0.61844782  0.76598357  1
  O  O146  1  1.00525614  0.12879191  0.18902670  1
  O  O147  1  0.94717995  0.11886340  0.67111721  1
  O  O148  1  1.00293055  0.68020202  0.25727762  1
  O  O149  1  0.93457978  0.65269407  0.70857921  1
  O  O150  1  0.41242618  0.29178535  0.07934522  1
  O  O151  1  0.46884470  0.35987455  0.56893968  1
  O  O152  1  0.39506676  0.77305026  0.07173739  1
  O  O153  1  0.34354240  0.76362394  0.54255804  1
  O  O154  1  0.88278337  0.28272190  0.08715552  1
  O  O155  1  0.97117418  0.36891019  0.59497356  1
  O  O156  1  0.87880858  0.77046469  0.00509979  1
  O  O157  1  0.82187229  0.73943249  0.54002840  1
  O  O158  1  0.12002729  0.21105772  0.44993637  1
  O  O159  1  0.07991238  0.13232971  1.02906199  1
  O  O160  1  0.15543546  0.71530572  0.51539430  1
  O  O161  1  0.12762068  0.75545012  0.99008203  1
  O  O162  1  0.64552160  0.17494731  0.47999409  1
  O  O163  1  0.62258218  0.26606570  0.99423236  1
  O  O164  1  0.63645204  0.75954313  0.47533002  1
  O  O165  1  0.66644046  0.76715844  1.04620084  1
  O  O166  1  0.53945869  0.24744708  0.15533463  1
  O  O167  1  0.55514598  0.23623048  0.60743510  1
  O  O168  1  0.43509283  0.72658436  0.19876483  1
  O  O169  1  0.48885895  0.69688553  0.65419257  1
  O  O170  1  1.03483902  0.25452181  0.11564325  1
  O  O171  1  0.98207507  0.32601831  0.54084023  1
  O  O172  1  0.99724510  0.75296781  0.10344746  1
  O  O173  1  0.97989930  0.70970549  0.54598309  1
  O  O174  1  -0.02177558  0.22352263  0.38404231  1
  O  O175  1  0.03209380  0.27861046  0.75372636  1
  O  O176  1  0.01684991  0.77643436  0.37837744  1
  O  O177  1  0.15485933  0.62507507  0.86854373  1
  O  O178  1  0.50059382  0.24651761  0.35003610  1
  O  O179  1  0.46855266  0.25565083  0.87748011  1
  O  O180  1  0.52086499  0.83798709  0.32264523  1
  O  O181  1  0.48406179  0.73930283  0.87599408  1
  O  O182  1  0.24746550  0.16054375  0.55042618  1
  O  O183  1  0.21646691  0.20608997  0.94398000  1
  O  O184  1  0.28406291  0.63489066  0.48089481  1
  O  O185  1  0.20410886  0.60446985  1.02682221  1
  O  O186  1  0.71970006  0.04535850  0.46061183  1
  O  O187  1  0.76681122  0.19433387  1.01832458  1
  O  O188  1  0.75752507  0.56779607  0.51485191  1
  O  O189  1  0.77801240  0.65735619  1.00324170  1
  O  O190  1  0.23364732  0.37265730  0.02846144  1
  O  O191  1  0.30720483  0.36869860  0.54868220  1
  O  O192  1  0.36232852  0.81418790  0.01066350  1
  O  O193  1  0.30359936  0.91982486  0.48874413  1
  O  O194  1  0.76490010  0.35935912  0.03986060  1
  O  O195  1  0.82206123  0.33262242  0.51705728  1
  O  O196  1  0.77182180  0.86587792  -0.00799827  1
  O  O197  1  0.76409006  0.83541377  0.39574382  1
  O  O198  1  0.09690211  0.50039531  0.18587211  1
  O  O199  1  0.01205486  0.54823811  0.86607938  1
  O  O200  1  0.14083610  1.00503678  0.22031502  1
  O  O201  1  0.16127439  1.14105747  0.66724995  1
  O  O202  1  0.65161927  0.47735680  0.21599486  1
  O  O203  1  0.61948476  0.48392640  0.80665699  1
  O  O204  1  0.65337222  0.98997199  0.21744410  1
  O  O205  1  0.65534314  1.03207697  0.79165808  1
  O  O206  1  0.31162278  0.05054942  0.23590117  1
  O  O207  1  0.41009015  -0.04522689  0.81185407  1
  O  O208  1  0.29918047  0.47174152  0.32534444  1
  O  O209  1  0.34096735  0.55495783  0.79513758  1
  O  O210  1  0.92928007  0.01288181  0.22189914  1
  O  O211  1  0.84458750  -0.01024580  0.77753317  1
  O  O212  1  0.89757402  0.49513591  0.27418542  1
  O  O213  1  0.86445314  0.53089181  0.79087836  1
  O  O214  1  0.17848902  0.36508609  0.35836910  1
  O  O215  1  0.08024461  0.38793883  0.81485121  1
  O  O216  1  0.13415691  0.88398740  0.45361067  1
  O  O217  1  0.14472159  0.83065315  0.78132570  1
  O  O218  1  0.60780673  0.37642570  0.39111642  1
  O  O219  1  0.65902070  0.40038765  0.92932771  1
  O  O220  1  0.57883941  0.72510459  0.45616531  1
  O  O221  1  0.61567454  0.88855804  0.87800760  1
  O  O222  1  0.35009346  0.14784086  0.08538005  1
  O  O223  1  0.40131775  0.22115489  0.57619092  1
  O  O224  1  0.35000528  0.62009743  0.12049351  1
  O  O225  1  0.39714460  0.59663559  0.64326463  1
  O  O226  1  0.88671130  0.10014752  0.08287740  1
  O  O227  1  0.91069134  0.07840177  0.51253293  1
  O  O228  1  0.89396141  0.67001529  0.13135261  1
  O  O229  1  0.79552730  0.61263583  0.67377373  1
  O  O230  1  0.26672961  0.27488748  0.13710789  1
  O  O231  1  0.27485733  0.30307810  0.67939448  1
  O  O232  1  0.24975181  0.74161484  0.10186138  1
  O  O233  1  0.28582974  0.76847034  0.58890052  1
  O  O234  1  0.74836242  0.25361162  0.17198925  1
  O  O235  1  0.79534372  0.27598929  0.67306582  1
  O  O236  1  0.79354612  0.75989161  0.12151469  1
  O  O237  1  0.69793871  0.74167494  0.63759453  1
  O  O238  1  0.23924891  0.33252975  0.37204488  1
  O  O239  1  0.30159615  0.29524348  0.84669808  1
  O  O240  1  0.25553469  0.76978692  0.40243184  1
  O  O241  1  0.26420343  0.72129590  0.93979613  1
  O  O242  1  0.68498778  0.11506891  0.30557676  1
  O  O243  1  0.72128120  0.24503224  0.87245510  1
  O  O244  1  0.63805169  0.74958796  0.22769189  1
  O  O245  1  0.73419512  0.74279669  0.90469398  1
  O  O246  1  0.05597764  0.13117557  -0.20093391  1
  O  O247  1  -0.08670515  0.00968631  0.49484509  1
  O  O248  1  -0.03379298  0.62158470  0.00214048  1
  O  O249  1  -0.08114092  0.57220391  0.56872820  1
  O  O250  1  0.50309114  0.17312791  0.03227314  1
  O  O251  1  0.53360058  0.09953843  0.54898083  1
  O  O252  1  0.49215930  0.66341567  0.03706263  1
  O  O253  1  0.51401414  0.58128432  0.56227316  1
  O  O254  1  0.56724717  0.34751856  0.45044448  1
  O  O255  1  0.51008477  0.39512214  1.07121285  1
  O  O256  1  0.46068159  0.92008225  0.44819634  1
  O  O257  1  0.51093890  0.85065345  1.12485117  1
  O  O258  1  1.07365196  0.43998939  0.46514775  1
  O  O259  1  1.05575939  0.24829398  0.89841902  1
  O  O260  1  1.07222529  0.85444886  0.56030353  1
  O  O261  1  0.99717525  0.86829198  0.98034542  1
  O  O262  1  0.49262482  0.46831777  0.36334874  1
  O  O263  1  0.45562054  0.52421693  0.88068034  1
  O  O264  1  0.37805859  1.01431367  0.37755093  1
  O  O265  1  0.48241133  1.06732282  0.89751415  1
  O  O266  1  1.01371891  0.55664896  0.35942851  1
  O  O267  1  1.01810538  0.36837526  0.93590042  1
  O  O268  1  1.12682424  0.89644120  0.53233608  1
  O  O269  1  0.98764004  0.97959028  0.84929931  1
  O  O270  1  0.12406189  -0.01745686  -0.06211941  1
  O  O271  1  0.06657309  0.03789415  0.58018453  1
  O  O272  1  -0.02482339  0.55958247  0.14776450  1
  O  O273  1  0.02720145  0.54906566  0.79637606  1
  O  O274  1  0.48623463  0.06230585  0.13631223  1
  O  O275  1  0.53462310  0.02776311  0.68867412  1
  O  O276  1  0.52031519  0.54976025  0.18256471  1
  O  O277  1  0.48880750  0.50289555  0.68269521  1
  O  O278  1  0.26579412  0.28495811  0.31415478  1
  O  O279  1  0.17228851  0.41274169  0.68326383  1
  O  O280  1  0.21016329  0.88777256  0.29373663  1
  O  O281  1  0.18222967  0.76331693  0.68085442  1
  O  O282  1  0.78395140  0.41204535  0.21789327  1
  O  O283  1  0.74575508  0.37802280  0.79470007  1
  O  O284  1  0.77719770  0.89539457  0.20697281  1
  O  O285  1  0.72879562  0.86327980  0.79445768  1
  O  O286  1  0.19783444  0.14916619  0.20747832  1
  O  O287  1  0.31706751  0.17220255  0.78114058  1
  O  O288  1  0.15505866  0.62471481  0.25768624  1
  O  O289  1  0.24740077  0.60875867  0.63927464  1
  O  O290  1  0.80023895  0.08778856  0.20661691  1
  O  O291  1  0.78006425  0.13843183  0.77971654  1
  O  O292  1  0.75275727  0.59838525  0.21987154  1
  O  O293  1  0.73577456  0.63144659  0.80030896  1
  O  O294  1  0.33730294  0.15973974  0.39320389  1
  O  O295  1  0.33146511  0.16901691  0.91897885  1
  O  O296  1  0.33865697  0.52806670  0.33427320  1
  O  O297  1  0.33882860  0.58301753  0.93495024  1
  O  O298  1  0.82868846  0.13447670  0.37714771  1
  O  O299  1  0.90717294  0.09681962  0.88009900  1
  O  O300  1  0.85870194  0.60456741  0.39963805  1
  O  O301  1  0.86607336  0.68756409  0.84032116  1
  O  O302  1  0.16589984  0.36002501  0.18188737  1
  O  O303  1  0.18132673  0.32827469  0.57241164  1
  O  O304  1  0.12747258  0.87953702  0.12959762  1
  O  O305  1  0.04795926  0.95271037  0.70352319  1
  O  O306  1  0.57855106  0.43655311  0.09373636  1
  O  O307  1  0.68518119  0.34722497  0.58157502  1
  O  O308  1  0.62332671  0.91830864  0.04464380  1
  O  O309  1  0.62741267  0.91020425  0.69567113  1
  O  O310  1  0.08663805  0.23593815  0.27243706  1
  O  O311  1  0.08228325  0.23692604  0.62719971  1
  O  O312  1  0.10976420  0.78273557  0.24165423  1
  O  O313  1  0.12580524  0.78637579  0.72632035  1
  O  O314  1  0.63854299  0.27454793  0.28606985  1
  O  O315  1  0.58743716  0.18496723  0.82823894  1
  O  O316  1  0.54634924  0.62873909  0.28155948  1
  O  O317  1  0.60760794  0.75195425  0.78015041  1
  O  O318  1  0.38580108  0.22535251  0.22941110  1
  O  O319  1  0.44774271  0.30479609  0.72186241  1
  O  O320  1  0.28973259  0.72010331  0.23889091  1
  O  O321  1  0.39764790  0.75864544  0.75141591  1
  O  O322  1  0.90213407  0.20244344  0.22245663  1
  O  O323  1  0.93427165  0.17596136  0.63408620  1
  O  O324  1  0.92475088  0.80570552  0.22895756  1
  O  O325  1  0.83223663  0.79700459  0.70554793  1
  O  O326  1  0.37929583  0.50414037  0.51426651  1
  O  O327  1  0.35437294  0.46795903  0.97916020  1
  O  O328  1  0.38371561  1.05006146  0.53257973  1
  O  O329  1  0.33943030  1.01492308  0.94042785  1
  O  O330  1  0.91471812  0.45440458  0.42811071  1
  O  O331  1  0.90327620  0.46920925  1.00269532  1
  O  O332  1  0.86406900  0.96102585  0.52997508  1
  O  O333  1  0.88898171  0.97497647  0.97679405  1
  O  O334  1  0.15497878  -0.03868490  -0.12083815  1
  O  O335  1  0.22757397  -0.01870601  0.64425310  1
  O  O336  1  0.09205269  0.49939667  0.02557351  1
  O  O337  1  0.06311918  0.48445354  0.51851862  1
  O  O338  1  0.59983565  -0.01873143  0.04692777  1
  O  O339  1  0.64151051  0.00700671  0.57245033  1
  O  O340  1  0.59892735  0.48419819  0.04388468  1
  O  O341  1  0.60522317  0.52595166  0.47167103  1
  O  O342  1  0.33896008  0.41036993  0.15443938  1
  O  O343  1  0.31913172  0.42278099  0.69238682  1
  O  O344  1  0.38139980  0.93095259  0.12153336  1
  O  O345  1  0.41595661  0.92184276  0.60887514  1
  O  O346  1  0.92618093  0.43506408  0.06019361  1
  O  O347  1  0.81593769  0.43219011  0.64949620  1
  O  O348  1  0.89944828  0.87378800  0.09706573  1
  O  O349  1  0.76371542  0.88138536  0.59471573  1
  O  O350  1  0.05930195  0.09476750  0.35242514  1
  O  O351  1  0.18439541  0.25364258  0.80030540  1
  O  O352  1  0.20409158  0.60467256  0.32372789  1
  O  O353  1  0.16866154  0.65007352  0.80382724  1
  O  O354  1  0.57665035  0.05130176  0.40592354  1
  O  O355  1  0.65308303  0.11314194  0.94997996  1
  O  O356  1  0.69682896  0.62037304  0.37145331  1
  O  O357  1  0.62232719  0.61859550  0.90961632  1
