# generated using pymatgen
data_V51Zn51O256
_symmetry_space_group_name_H-M   'P 1'
_cell_length_a   17.48283478
_cell_length_b   17.67825567
_cell_length_c   17.89499616
_cell_angle_alpha   89.82866050
_cell_angle_beta   90.97928109
_cell_angle_gamma   91.60274547
_symmetry_Int_Tables_number   1
_chemical_formula_structural   V51Zn51O256
_chemical_formula_sum   'V51 Zn51 O256'
_cell_volume   5527.74657592
_cell_formula_units_Z   1
loop_
 _symmetry_equiv_pos_site_id
 _symmetry_equiv_pos_as_xyz
  1  'x, y, z'
loop_
 _atom_site_type_symbol
 _atom_site_label
 _atom_site_symmetry_multiplicity
 _atom_site_fract_x
 _atom_site_fract_y
 _atom_site_fract_z
 _atom_site_occupancy
  V  V0  1  0.45179828  0.35505639  0.36481067  1
  V  V1  1  0.62620301  0.61470190  -0.02879683  1
  V  V2  1  0.83832895  -0.03228459  0.85709488  1
  V  V3  1  0.34707434  0.49031037  0.38787568  1
  V  V4  1  0.28311250  0.09392016  0.82251308  1
  V  V5  1  0.26213959  0.74057504  0.47790972  1
  V  V6  1  0.18142521  0.44812560  0.12452857  1
  V  V7  1  0.49995661  -0.00434967  -0.02858272  1
  V  V8  1  0.50193278  0.45793625  0.51398269  1
  V  V9  1  0.39979905  0.76359848  0.60987858  1
  V  V10  1  0.91870068  0.04103745  0.41472613  1
  V  V11  1  0.41916381  0.33659677  -0.02461879  1
  V  V12  1  0.75310825  0.12949796  0.84097795  1
  V  V13  1  0.85089589  0.11782574  0.18579942  1
  V  V14  1  0.13306966  0.15616867  0.52466349  1
  V  V15  1  0.48315236  0.14540653  0.64485007  1
  V  V16  1  -0.02486795  0.52150010  0.55231802  1
  V  V17  1  0.34970228  0.27947199  0.63971626  1
  V  V18  1  0.62970954  0.38751036  0.74460713  1
  V  V19  1  0.86385032  0.36572538  0.49677652  1
  V  V20  1  0.28134828  0.51901430  0.76344928  1
  V  V21  1  0.57517645  0.87182612  0.38677967  1
  V  V22  1  0.54993689  0.55076234  0.16669740  1
  V  V23  1  0.51461255  0.40204947  0.86806395  1
  V  V24  1  0.49637091  0.60798503  0.62784467  1
  V  V25  1  0.20680516  0.40327972  0.62504548  1
  V  V26  1  0.02712786  0.91242478  0.32670053  1
  V  V27  1  0.77793337  0.37256658  0.64917958  1
  V  V28  1  0.02580721  0.37285558  0.40406807  1
  V  V29  1  0.76859511  0.59614165  0.40087690  1
  V  V30  1  0.08141682  0.15566938  0.16399764  1
  V  V31  1  0.03518736  -0.00253511  0.55324461  1
  V  V32  1  0.77157510  0.61490190  0.88374339  1
  V  V33  1  0.62927225  0.00453845  0.11423153  1
  V  V34  1  0.60405911  0.22914697  0.84602198  1
  V  V35  1  0.65599442  0.90056095  0.66795809  1
  V  V36  1  0.77003433  0.49843909  0.76503869  1
  V  V37  1  -0.02502313  0.21509724  0.71790115  1
  V  V38  1  0.91738101  0.87150440  0.51893351  1
  V  V39  1  0.22897214  -0.09108266  0.77631237  1
  V  V40  1  0.89634603  0.25704438  0.10692835  1
  V  V41  1  0.62020976  0.61548945  0.48196272  1
  V  V42  1  0.75396782  0.37152539  0.15157002  1
  V  V43  1  0.62107055  0.13330427  -0.01113048  1
  V  V44  1  0.39377894  0.79933746  0.19406153  1
  V  V45  1  0.24737717  0.11608973  0.40610095  1
  V  V46  1  -0.03665003  0.01386912  -0.02774083  1
  V  V47  1  0.84956987  0.62299908  0.23211249  1
  V  V48  1  0.21467680  0.83820307  0.61267565  1
  V  V49  1  0.02043576  0.38180130  0.89442934  1
  V  V50  1  0.09959000  0.69779923  0.36349765  1
  Zn  Zn51  1  0.17315684  0.20863739  0.70183250  1
  Zn  Zn52  1  0.06792861  0.79708208  0.51000705  1
  Zn  Zn53  1  0.73654712  0.55934864  0.08936977  1
  Zn  Zn54  1  0.41190251  0.64673264  0.47792101  1
  Zn  Zn55  1  0.46760866  0.95444829  0.63891738  1
  Zn  Zn56  1  0.27819058  0.71498639  0.72195700  1
  Zn  Zn57  1  0.44164016  0.17178460  0.91211480  1
  Zn  Zn58  1  0.49960473  0.55377588  0.36019488  1
  Zn  Zn59  1  0.78373014  0.05845529  0.01929328  1
  Zn  Zn60  1  0.57663921  0.56343437  0.79611797  1
  Zn  Zn61  1  0.91451268  0.74591243  0.33633642  1
  Zn  Zn62  1  0.93310721  0.93231345  0.69703733  1
  Zn  Zn63  1  0.03397459  0.31709509  0.57515669  1
  Zn  Zn64  1  0.34712722  0.38561665  0.22974940  1
  Zn  Zn65  1  0.77646409  0.50509748  0.55517373  1
  Zn  Zn66  1  0.03176280  0.53472659  0.32929670  1
  Zn  Zn67  1  0.92478708  0.19089989  0.92293418  1
  Zn  Zn68  1  0.04056525  0.17183933  0.36054762  1
  Zn  Zn69  1  0.86916816  0.42520749  0.31376473  1
  Zn  Zn70  1  0.72182535  0.18833420  0.13805982  1
  Zn  Zn71  1  0.92812191  0.67400837  0.48020879  1
  Zn  Zn72  1  0.29933968  -0.04255575  -0.05297413  1
  Zn  Zn73  1  0.41769267  0.19922636  0.47006943  1
  Zn  Zn74  1  0.65362348  0.60986470  0.27001324  1
  Zn  Zn75  1  0.76023603  0.94825221  0.44226210  1
  Zn  Zn76  1  0.58433633  0.42094084  0.05595863  1
  Zn  Zn77  1  0.56688713  0.02535342  0.29581877  1
  Zn  Zn78  1  0.67629845  0.20138712  0.69116194  1
  Zn  Zn79  1  0.79965278  0.28004600  0.77709477  1
  Zn  Zn80  1  0.44456357  0.44735000  0.70049770  1
  Zn  Zn81  1  0.65205124  0.96008826  0.90780405  1
  Zn  Zn82  1  0.28189474  0.58960130  0.59711838  1
  Zn  Zn83  1  0.55217530  0.80223799  -0.05395769  1
  Zn  Zn84  1  0.08013961  0.30864366  0.06534386  1
  Zn  Zn85  1  0.19490950  0.02641655  0.62719454  1
  Zn  Zn86  1  0.24945773  0.21449685  0.23642566  1
  Zn  Zn87  1  0.34122678  0.36859665  0.50304587  1
  Zn  Zn88  1  -0.06982350  0.53849449  0.85099183  1
  Zn  Zn89  1  0.69538004  0.42639920  0.92700614  1
  Zn  Zn90  1  0.58910150  0.77391173  0.56511550  1
  Zn  Zn91  1  0.17657750  0.47651554  0.48381621  1
  Zn  Zn92  1  0.50699219  0.89846511  0.10488098  1
  Zn  Zn93  1  0.18050962  0.49701159  0.93345286  1
  Zn  Zn94  1  0.18422403  0.79860787  0.21192878  1
  Zn  Zn95  1  0.04959453  0.92867542  0.85524575  1
  Zn  Zn96  1  0.72320264  0.80825472  0.85107923  1
  Zn  Zn97  1  0.47553599  0.69074757  1.05402827  1
  Zn  Zn98  1  0.18465268  0.93497974  0.44979393  1
  Zn  Zn99  1  0.99153664  0.99470966  0.16686821  1
  Zn  Zn100  1  0.54811720  0.04401702  0.78296854  1
  Zn  Zn101  1  0.11902162  1.00139088  0.04484910  1
  O  O102  1  0.17305511  0.18847769  0.15915332  1
  O  O103  1  0.15954689  0.12638960  0.62623582  1
  O  O104  1  0.00943485  0.78348167  0.09806237  1
  O  O105  1  0.07771261  0.66984990  0.67369762  1
  O  O106  1  0.63474915  0.14910705  0.08350633  1
  O  O107  1  0.57632392  0.17240028  0.65352680  1
  O  O108  1  0.64849623  0.57733266  0.15613148  1
  O  O109  1  0.58547104  0.61192082  0.58878390  1
  O  O110  1  0.35528618  0.37125888  0.39238482  1
  O  O111  1  0.41512382  0.37006911  0.87776958  1
  O  O112  1  0.47909808  0.85040389  0.39484467  1
  O  O113  1  0.45783591  0.84859271  0.79825167  1
  O  O114  1  0.84879017  0.36416902  0.40257059  1
  O  O115  1  0.92276438  0.38663242  0.87418589  1
  O  O116  1  0.95573489  0.84636926  0.34436329  1
  O  O117  1  0.81008470  0.87705170  0.87181587  1
  O  O118  1  0.24267579  0.01861461  0.41089397  1
  O  O119  1  0.26840975  -0.10552814  0.86403942  1
  O  O120  1  0.25487935  0.50119385  0.40993837  1
  O  O121  1  0.24863554  0.51946685  0.85403729  1
  O  O122  1  0.82628881  0.01911981  0.38763529  1
  O  O123  1  0.74094092  0.01450843  0.85589821  1
  O  O124  1  0.79847263  0.50982670  0.38632580  1
  O  O125  1  0.75304167  0.50036546  0.87614485  1
  O  O126  1  0.16880278  0.54069452  0.09966587  1
  O  O127  1  0.20960368  0.50092086  0.58846161  1
  O  O128  1  0.21858622  0.94443689  0.03156622  1
  O  O129  1  0.23074719  0.92921893  0.65707941  1
  O  O130  1  0.76028827  0.45345725  0.08868262  1
  O  O131  1  0.76157738  0.48523156  0.66291282  1
  O  O132  1  0.72743993  1.01354673  0.10099879  1
  O  O133  1  0.69818503  1.00039884  0.50331106  1
  O  O134  1  -0.01433590  0.43224578  0.33049019  1
  O  O135  1  0.04802119  0.38669423  0.80170495  1
  O  O136  1  0.04256858  0.92259480  0.23161654  1
  O  O137  1  -0.06249242  0.79872016  0.79539255  1
  O  O138  1  0.44885796  0.35154529  0.27072501  1
  O  O139  1  0.52125878  0.39405230  0.76116378  1
  O  O140  1  0.56054480  0.91027711  0.29057246  1
  O  O141  1  0.58229304  0.94671237  0.61409055  1
  O  O142  1  0.46438303  0.07279867  0.30825191  1
  O  O143  1  0.48345908  0.05043597  0.69096585  1
  O  O144  1  0.54588245  0.57077401  0.26619559  1
  O  O145  1  0.50992839  0.60891602  0.72204108  1
  O  O146  1  1.05546165  0.15006420  0.25474247  1
  O  O147  1  0.97304338  0.10557860  0.75199001  1
  O  O148  1  0.95283108  0.57384784  0.24465250  1
  O  O149  1  1.01993632  0.69848687  0.69704699  1
  O  O150  1  0.40156895  0.24036500  -0.01683939  1
  O  O151  1  0.36117614  0.26642064  0.54346093  1
  O  O152  1  0.38424893  0.73818197  0.11141214  1
  O  O153  1  0.36904423  0.74822946  0.50429986  1
  O  O154  1  0.89996529  0.24541324  0.01009539  1
  O  O155  1  0.86204994  0.27756000  0.52361359  1
  O  O156  1  0.76217240  0.76811039  0.06430834  1
  O  O157  1  0.95347065  0.77671964  0.51166317  1
  O  O158  1  0.10695822  0.24619178  0.53382111  1
  O  O159  1  0.12449336  0.25209793  0.98956419  1
  O  O160  1  0.13742134  0.73633542  0.45123521  1
  O  O161  1  -0.01056683  0.69768240  0.95568918  1
  O  O162  1  0.73751186  0.18189573  0.52063727  1
  O  O163  1  0.61747588  0.22633700  0.94909681  1
  O  O164  1  0.64661809  0.70694899  0.50583629  1
  O  O165  1  0.58848745  0.69220351  1.01538448  1
  O  O166  1  0.48885471  0.16408819  0.22110500  1
  O  O167  1  0.41525714  0.21357732  0.68166242  1
  O  O168  1  0.49787714  0.80273216  0.16555285  1
  O  O169  1  0.49440108  0.72283269  0.59428231  1
  O  O170  1  1.02521186  0.22538087  0.11388893  1
  O  O171  1  0.96588234  0.25447837  0.63267151  1
  O  O172  1  0.94150584  0.77681368  0.08066814  1
  O  O173  1  0.98808057  0.85832479  0.76712800  1
  O  O174  1  0.02766947  0.28248713  0.37434061  1
  O  O175  1  0.01371740  0.28229769  0.89178249  1
  O  O176  1  0.00073618  0.69192947  0.38186300  1
  O  O177  1  0.09188015  0.80311397  0.88776518  1
  O  O178  1  0.47554113  0.27014219  0.40583282  1
  O  O179  1  0.50820424  0.24060068  0.84707412  1
  O  O180  1  0.60116642  0.78996310  0.34586995  1
  O  O181  1  0.45936452  0.75152956  0.97077977  1
  O  O182  1  0.23355923  0.15546343  0.50393328  1
  O  O183  1  0.26658935  0.06947142  0.92964182  1
  O  O184  1  0.25056303  0.64662482  0.50649751  1
  O  O185  1  0.29714520  0.61927740  0.98864162  1
  O  O186  1  0.77619975  0.14130649  0.47682764  1
  O  O187  1  0.71452132  0.11914717  0.94973802  1
  O  O188  1  0.73320162  0.58482634  0.49847459  1
  O  O189  1  0.73032814  0.60906538  0.98601999  1
  O  O190  1  0.21466590  0.45038562  0.02460371  1
  O  O191  1  0.23827520  0.37298999  0.53762688  1
  O  O192  1  0.21627214  0.87140475  0.06916390  1
  O  O193  1  0.23257718  0.84963486  0.51203151  1
  O  O194  1  0.68323551  0.38601923  0.02408764  1
  O  O195  1  0.76791599  0.38823310  0.54747640  1
  O  O196  1  0.63773539  0.85032863  -0.10069472  1
  O  O197  1  0.83513933  0.87401648  0.46500771  1
  O  O198  1  0.15535881  0.70285779  0.13141547  1
  O  O199  1  0.01919625  0.60757610  0.81191624  1
  O  O200  1  0.24622180  0.96317819  0.23630439  1
  O  O201  1  0.13582155  0.92799398  0.79007591  1
  O  O202  1  0.68681107  0.29108532  0.34096761  1
  O  O203  1  0.64592379  0.48743082  0.76192523  1
  O  O204  1  0.61061001  1.04092032  0.20233495  1
  O  O205  1  0.73016397  0.96021205  0.64572644  1
  O  O206  1  0.34341413  0.09724638  0.13838706  1
  O  O207  1  0.43703298  -0.09129895  0.76884830  1
  O  O208  1  0.35325770  0.47527533  0.29234742  1
  O  O209  1  0.37755157  0.50670855  0.76218205  1
  O  O210  1  0.90155827  0.03856383  0.20981702  1
  O  O211  1  0.85930859  -0.02648836  0.76248371  1
  O  O212  1  0.88880047  0.54104183  0.28641516  1
  O  O213  1  0.86807406  0.49546741  0.77368556  1
  O  O214  1  0.11687176  0.40446801  0.42046954  1
  O  O215  1  0.12346085  0.40177458  0.90914025  1
  O  O216  1  0.11146417  0.89582355  0.37504861  1
  O  O217  1  0.21439491  0.74486389  0.92998121  1
  O  O218  1  0.63562553  0.31515064  0.37880549  1
  O  O219  1  0.61537267  0.37099909  0.86704065  1
  O  O220  1  0.67910821  0.88843120  0.39606639  1
  O  O221  1  0.61660184  0.95757739  0.73847054  1
  O  O222  1  0.40558785  0.11266917  0.11108971  1
  O  O223  1  0.31165128  0.05806575  0.58746879  1
  O  O224  1  0.42195532  0.73469725  0.25823063  1
  O  O225  1  0.39578565  0.61588706  0.58663348  1
  O  O226  1  0.83540384  0.13184119  0.08878723  1
  O  O227  1  0.92842293  0.11803538  0.69284600  1
  O  O228  1  0.82124072  0.60909925  0.14269744  1
  O  O229  1  0.75477899  0.69602831  0.66188060  1
  O  O230  1  0.17862307  0.34156534  0.11039732  1
  O  O231  1  0.25169152  0.28697059  0.66283541  1
  O  O232  1  0.29534962  0.78521993  0.19243414  1
  O  O233  1  0.27713978  0.75859093  0.61063536  1
  O  O234  1  0.78765661  0.27762036  0.11843760  1
  O  O235  1  0.75772845  0.27383430  0.66727628  1
  O  O236  1  0.71096843  0.81303562  0.05480733  1
  O  O237  1  0.79945361  0.72178803  0.61527174  1
  O  O238  1  0.21683349  0.34971392  0.32374975  1
  O  O239  1  0.24691482  0.16639696  0.77268525  1
  O  O240  1  0.27401491  0.74244260  0.38770100  1
  O  O241  1  0.20067181  0.69446901  0.88431195  1
  O  O242  1  0.69891180  0.23639273  0.49267373  1
  O  O243  1  0.73291904  0.22933914  0.85235624  1
  O  O244  1  0.70764792  0.77665742  0.22368605  1
  O  O245  1  0.75736882  0.70980631  0.87271279  1
  O  O246  1  -0.01665181  0.10867934  -0.03490387  1
  O  O247  1  0.04037652  0.09563916  0.53747651  1
  O  O248  1  0.05251380  0.70495540  -0.01474725  1
  O  O249  1  -0.05178070  0.61428716  0.56571565  1
  O  O250  1  0.51900084  0.10987096  -0.03238195  1
  O  O251  1  0.46618583  0.14044217  0.55203229  1
  O  O252  1  0.48926580  0.60976097  0.11980646  1
  O  O253  1  0.52509166  0.62848194  0.44481113  1
  O  O254  1  0.51449805  0.37019414  0.53654116  1
  O  O255  1  0.51877898  0.37146980  0.97714021  1
  O  O256  1  0.57419772  0.85130849  0.48352684  1
  O  O257  1  0.51438389  0.89667821  0.99403348  1
  O  O258  1  0.97879763  0.37319908  0.49570565  1
  O  O259  1  1.01580226  0.36452273  0.99470056  1
  O  O260  1  1.02208631  0.90094600  0.50585035  1
  O  O261  1  0.96037377  0.97855805  1.06232980  1
  O  O262  1  0.49992248  0.44300562  0.39583515  1
  O  O263  1  0.51479647  0.49577008  0.87045125  1
  O  O264  1  0.57338446  0.97817087  0.39766225  1
  O  O265  1  0.54117074  0.99062123  0.87684064  1
  O  O266  1  1.01665844  0.52131431  0.44752406  1
  O  O267  1  1.00474718  0.48207242  0.91185876  1
  O  O268  1  0.99044741  1.00030361  0.35788600  1
  O  O269  1  0.94813862  0.96451605  0.87838781  1
  O  O270  1  0.08185775  0.06009559  0.12517172  1
  O  O271  1  0.01982401  -0.01714101  0.64604214  1
  O  O272  1  -0.03778007  0.58355289  0.06984704  1
  O  O273  1  0.00501259  0.48955575  0.63319220  1
  O  O274  1  0.51336414  0.00876582  0.08203740  1
  O  O275  1  0.44256705  -0.00735796  0.52623937  1
  O  O276  1  0.53301211  0.45850405  0.14202862  1
  O  O277  1  0.48701479  0.50203893  0.61187969  1
  O  O278  1  0.16352014  0.46312416  0.21741791  1
  O  O279  1  0.23958815  0.43759246  0.71952622  1
  O  O280  1  0.21776610  0.90719736  0.26915619  1
  O  O281  1  0.23282409  0.81398501  0.73720622  1
  O  O282  1  0.80785239  0.39677751  0.22874807  1
  O  O283  1  0.74649319  0.38513183  0.76341301  1
  O  O284  1  0.79535458  0.91212987  0.23203864  1
  O  O285  1  0.70630803  0.85377282  0.73945650  1
  O  O286  1  0.22927483  0.14877085  0.31538083  1
  O  O287  1  0.27514015  0.00889543  0.76889771  1
  O  O288  1  0.18362103  0.69916645  0.06780706  1
  O  O289  1  0.26214647  0.60624779  0.71080178  1
  O  O290  1  0.76123830  0.13072184  0.22319391  1
  O  O291  1  0.74105949  0.12716689  0.74453628  1
  O  O292  1  0.76386620  0.61836825  0.28777754  1
  O  O293  1  0.75798317  0.59775910  0.78042351  1
  O  O294  1  0.34403001  0.14009540  0.41439476  1
  O  O295  1  0.37864850  0.11545548  0.84122290  1
  O  O296  1  0.39311474  0.58268434  0.38946102  1
  O  O297  1  0.35064340  0.59208010  1.02547058  1
  O  O298  1  0.94085567  0.13408223  0.40558829  1
  O  O299  1  0.84958335  0.13596841  0.85928304  1
  O  O300  1  0.84358140  0.66773649  0.40798353  1
  O  O301  1  0.86803935  0.60920776  0.89947727  1
  O  O302  1  0.07992907  0.42091335  0.11372894  1
  O  O303  1  0.11420785  0.37684869  0.62803518  1
  O  O304  1  0.16093976  0.86580469  0.11928420  1
  O  O305  1  0.12235913  0.80899873  0.60988655  1
  O  O306  1  0.66554017  0.35519092  0.17818749  1
  O  O307  1  0.63818081  0.38087100  0.65361392  1
  O  O308  1  0.61691639  0.90794386  0.12647004  1
  O  O309  1  0.68760795  0.84364566  0.59105686  1
  O  O310  1  0.16717559  0.30546746  0.29707169  1
  O  O311  1  0.07219787  0.22639550  0.74032554  1
  O  O312  1  0.12253907  0.75240128  0.28588627  1
  O  O313  1  0.08656166  0.75098472  0.84192961  1
  O  O314  1  0.44517249  0.13996665  0.27131023  1
  O  O315  1  0.62750393  0.27824688  0.75941036  1
  O  O316  1  0.65936528  0.72501084  0.21056604  1
  O  O317  1  0.58753908  0.81865430  0.67441427  1
  O  O318  1  0.31467326  0.28887249  0.19991905  1
  O  O319  1  0.34375610  0.08669568  0.64409418  1
  O  O320  1  0.39048410  0.86991623  0.26097454  1
  O  O321  1  0.38742632  0.73504844  0.70109374  1
  O  O322  1  0.90480633  0.20247377  0.19904247  1
  O  O323  1  0.90703273  0.25559566  0.77621650  1
  O  O324  1  0.87854229  0.71623020  0.23998116  1
  O  O325  1  0.89322682  0.76836657  0.74726021  1
  O  O326  1  0.39572598  0.47011810  0.49134494  1
  O  O327  1  0.37077533  0.38249857  1.03652144  1
  O  O328  1  0.38950376  0.95847733  0.49047657  1
  O  O329  1  0.40176436  0.99421100  0.96452630  1
  O  O330  1  0.88269788  0.47578351  0.52728777  1
  O  O331  1  1.01463647  0.61912828  1.10181643  1
  O  O332  1  0.92990760  0.99722594  0.50672358  1
  O  O333  1  0.85512749  1.01021696  0.95706717  1
  O  O334  1  0.06455555  -0.02443608  -0.04408455  1
  O  O335  1  0.13656092  -0.01430777  0.53847449  1
  O  O336  1  0.11914504  0.57379704  -0.03830784  1
  O  O337  1  0.07515594  0.53873944  0.50219798  1
  O  O338  1  0.62132058  0.01905059  -0.00083658  1
  O  O339  1  0.61175792  0.14463413  0.41499856  1
  O  O340  1  0.59389636  0.53038482  0.00547085  1
  O  O341  1  0.58998898  0.50627239  0.49824629  1
  O  O342  1  0.27554839  0.44175571  0.15765505  1
  O  O343  1  0.38178325  0.36944295  0.65287672  1
  O  O344  1  0.39699389  0.88535849  0.13160471  1
  O  O345  1  0.42006715  0.85904748  0.61592606  1
  O  O346  1  0.92700213  0.34325269  0.12494389  1
  O  O347  1  0.87025561  0.37724234  0.66070886  1
  O  O348  1  0.79474449  0.88725712  0.16849836  1
  O  O349  1  0.89155859  0.88062394  0.60915140  1
  O  O350  1  0.12504868  0.13302682  0.42364894  1
  O  O351  1  0.19756226  0.08100015  0.88895781  1
  O  O352  1  0.11708911  0.60452808  0.34125318  1
  O  O353  1  0.08720473  0.58869913  0.80258665  1
  O  O354  1  0.63589422  0.12204955  0.35447672  1
  O  O355  1  0.61035743  0.13274109  0.82279422  1
  O  O356  1  0.66185766  0.61090482  0.38343793  1
  O  O357  1  0.61923316  0.62459980  0.87503103  1
