# generated using pymatgen
data_V51Zn51O256
_symmetry_space_group_name_H-M   'P 1'
_cell_length_a   17.59593958
_cell_length_b   17.36498144
_cell_length_c   17.54058869
_cell_angle_alpha   88.24454760
_cell_angle_beta   90.78692623
_cell_angle_gamma   89.65590167
_symmetry_Int_Tables_number   1
_chemical_formula_structural   V51Zn51O256
_chemical_formula_sum   'V51 Zn51 O256'
_cell_volume   5356.45102772
_cell_formula_units_Z   1
loop_
 _symmetry_equiv_pos_site_id
 _symmetry_equiv_pos_as_xyz
  1  'x, y, z'
loop_
 _atom_site_type_symbol
 _atom_site_label
 _atom_site_symmetry_multiplicity
 _atom_site_fract_x
 _atom_site_fract_y
 _atom_site_fract_z
 _atom_site_occupancy
  V  V0  1  0.23237648  0.61476585  0.38142107  1
  V  V1  1  0.12956163  0.83002445  0.72173864  1
  V  V2  1  0.63966685  0.84255541  0.21329517  1
  V  V3  1  0.27026757  0.37129866  0.66824421  1
  V  V4  1  0.60337677  0.90598470  0.77297914  1
  V  V5  1  0.23391900  -0.01587337  0.76882743  1
  V  V6  1  -0.01539194  0.83060604  0.41019673  1
  V  V7  1  0.07077378  0.61953696  -0.06768882  1
  V  V8  1  0.20501798  0.85345557  0.14126691  1
  V  V9  1  0.08576748  0.23127123  0.37273071  1
  V  V10  1  0.49026442  0.48441477  0.51725120  1
  V  V11  1  0.72874481  0.62575213  0.37632813  1
  V  V12  1  0.01931512  0.00633291  0.48710587  1
  V  V13  1  0.27599444  0.20182664  0.03112426  1
  V  V14  1  0.12224192  0.48874099  0.64428558  1
  V  V15  1  0.72482923  0.17404415  0.84229598  1
  V  V16  1  0.49777229  0.35886565  0.87774315  1
  V  V17  1  0.27743537  0.35633059  0.15434962  1
  V  V18  1  0.49757159  0.13161061  0.58381768  1
  V  V19  1  0.12156677  0.40025667  0.27602984  1
  V  V20  1  0.72649614  0.47298072  0.73318326  1
  V  V21  1  0.27530083  -0.01061392  0.23752124  1
  V  V22  1  0.09265986  0.43175692  -0.03695901  1
  V  V23  1  0.52455363  0.01282281  0.47795849  1
  V  V24  1  0.26029286  0.52178520  0.21217205  1
  V  V25  1  0.30533170  0.61550410  0.90847707  1
  V  V26  1  0.14698834  0.00150328  0.60659806  1
  V  V27  1  0.08146815  0.86405035  0.27440036  1
  V  V28  1  0.02035032  0.12399024  0.62395230  1
  V  V29  1  0.25386972  0.73815430  0.49850579  1
  V  V30  1  0.53994424  0.27392990  0.25587459  1
  V  V31  1  0.34536577  0.91409155  0.46708315  1
  V  V32  1  0.26774401  0.25014964  0.41896622  1
  V  V33  1  0.63316746  0.68018034  0.58369684  1
  V  V34  1  0.91395400  -0.05893295  0.82388736  1
  V  V35  1  0.25880595  0.86685932  0.61055489  1
  V  V36  1  0.39035783  0.74226815  0.61691230  1
  V  V37  1  0.60502291  0.12328179  0.09506880  1
  V  V38  1  0.37505485  0.50823524  0.38278165  1
  V  V39  1  0.84857929  0.89362764  0.51282296  1
  V  V40  1  0.83790578  0.03824324  0.40179263  1
  V  V41  1  0.76212416  0.90818203  0.07102379  1
  V  V42  1  0.34123479  0.10536177  0.80314089  1
  V  V43  1  0.76704996  0.26239521  0.56488929  1
  V  V44  1  0.42288701  0.87167584  -0.02647293  1
  V  V45  1  -0.04994969  0.76014797  0.21526635  1
  V  V46  1  0.12557700  0.61910377  0.52940185  1
  V  V47  1  0.82734217  0.37906431  0.00602612  1
  V  V48  1  0.74697692  -0.02453139  0.25379591  1
  V  V49  1  0.86728506  0.59379848  0.26731571  1
  V  V50  1  0.36767412  0.64884028  0.26701133  1
  Zn  Zn51  1  0.83494750  0.06776206  0.59007384  1
  Zn  Zn52  1  0.69684494  0.23231263  0.18460066  1
  Zn  Zn53  1  0.78839764  0.55125055  0.55216383  1
  Zn  Zn54  1  0.85615424  0.02332532  -0.01447122  1
  Zn  Zn55  1  0.29720734  0.28561328  0.84672287  1
  Zn  Zn56  1  0.18576849  0.93369556  0.42038193  1
  Zn  Zn57  1  0.04520864  0.01550310  0.77565435  1
  Zn  Zn58  1  0.91785456  0.46150588  0.67096740  1
  Zn  Zn59  1  0.80353143  0.80989367  0.33561974  1
  Zn  Zn60  1  0.45226719  0.90282129  0.18731939  1
  Zn  Zn61  1  0.09809235  0.57659710  0.09850247  1
  Zn  Zn62  1  0.63164767  1.01842535  0.94336635  1
  Zn  Zn63  1  0.34115535  0.22333304  0.66074174  1
  Zn  Zn64  1  0.38635086  0.32677858  0.30778498  1
  Zn  Zn65  1  0.84819787  0.33002998  0.80753945  1
  Zn  Zn66  1  0.77257517  0.73885157  0.16532042  1
  Zn  Zn67  1  0.77569694  0.80699588  0.80014519  1
  Zn  Zn68  1  0.32439429  0.55797609  0.57156964  1
  Zn  Zn69  1  0.32688327  0.81450388  0.79005248  1
  Zn  Zn70  1  0.91098267  0.63725383  0.09525450  1
  Zn  Zn71  1  0.24948298  0.67405764  0.09833970  1
  Zn  Zn72  1  0.96700537  0.91385285  0.65815827  1
  Zn  Zn73  1  0.54584574  0.10286391  0.77720883  1
  Zn  Zn74  1  0.18825324  0.44118714  0.45195658  1
  Zn  Zn75  1  0.07014379  0.75208735  0.08576834  1
  Zn  Zn76  1  0.93867605  0.62100821  0.45587077  1
  Zn  Zn77  1  0.49597105  0.56964864  0.87653066  1
  Zn  Zn78  1  0.46897574  0.38181409  0.67495186  1
  Zn  Zn79  1  0.58524346  0.09398703  0.29973867  1
  Zn  Zn80  1  0.94532744  0.51082824  0.99058980  1
  Zn  Zn81  1  0.27320528  0.80307839  0.31640065  1
  Zn  Zn82  1  0.25275293  0.19803948  0.22723606  1
  Zn  Zn83  1  0.57169233  0.30480724  0.54014297  1
  Zn  Zn84  1  0.92919886  0.18934258  0.45448369  1
  Zn  Zn85  1  0.53968698  0.59153582  0.32878872  1
  Zn  Zn86  1  0.66636766  0.46425431  0.92741010  1
  Zn  Zn87  1  0.12599602  0.28735138  0.10814922  1
  Zn  Zn88  1  0.56415764  0.84424099  0.57523334  1
  Zn  Zn89  1  0.03550390  0.05064078  0.29917343  1
  Zn  Zn90  1  0.21375358  0.45873887  0.82136026  1
  Zn  Zn91  1  0.29574912  0.00806827  0.05050757  1
  Zn  Zn92  1  0.33729664  0.09734592  0.50831929  1
  Zn  Zn93  1  0.63829138  0.66314179  0.78514022  1
  Zn  Zn94  1  0.96051401  0.46130341  0.15317395  1
  Zn  Zn95  1  0.07438957  0.80913299  0.56361649  1
  Zn  Zn96  1  0.77194560  0.19341790  1.01480253  1
  Zn  Zn97  1  0.46601583  0.25038518  0.06521756  1
  Zn  Zn98  1  0.39827966  1.02761274  0.67071256  1
  Zn  Zn99  1  0.15599501  0.62885928  0.74586761  1
  Zn  Zn100  1  0.46657097  0.19344957  0.41738028  1
  Zn  Zn101  1  0.16592593  0.21998176  0.56662278  1
  O  O102  1  0.04423262  0.17120615  0.18823840  1
  O  O103  1  0.14071823  0.09988421  0.60070078  1
  O  O104  1  0.14217246  0.67370247  0.12224929  1
  O  O105  1  0.13340350  0.60438726  0.63088674  1
  O  O106  1  0.69715128  0.17137557  0.09801145  1
  O  O107  1  0.57600489  0.08849630  0.53138669  1
  O  O108  1  0.61837385  0.59622103  0.14771120  1
  O  O109  1  0.61769353  0.69038514  0.67959790  1
  O  O110  1  0.36792055  0.41326013  0.37282784  1
  O  O111  1  0.39801885  0.34243404  0.87463000  1
  O  O112  1  0.33111455  0.86860893  0.38284015  1
  O  O113  1  0.38502637  0.86294293  0.87639788  1
  O  O114  1  0.88428488  0.40776355  0.37272860  1
  O  O115  1  0.85364625  0.36046826  0.91345795  1
  O  O116  1  0.87989680  0.85155479  0.41616559  1
  O  O117  1  0.86934925  0.85080460  0.81975200  1
  O  O118  1  0.22208437  -0.03358362  0.31632653  1
  O  O119  1  0.22518252  -0.05078435  0.85543600  1
  O  O120  1  0.26612198  0.51982265  0.41419762  1
  O  O121  1  0.27333576  0.52503335  0.88725533  1
  O  O122  1  0.75026312  0.05640690  0.42266951  1
  O  O123  1  0.70592623  0.07802834  0.88162448  1
  O  O124  1  0.75067255  0.55837414  0.44698710  1
  O  O125  1  0.73281014  0.46547843  0.83478940  1
  O  O126  1  0.31850993  0.44923036  0.16362627  1
  O  O127  1  0.29148854  0.46151351  0.62829577  1
  O  O128  1  0.24224685  0.95378335  0.13964624  1
  O  O129  1  0.24401529  0.98832809  0.61132837  1
  O  O130  1  0.72069320  0.40423750  0.34928298  1
  O  O131  1  0.71915006  0.49432417  0.63249042  1
  O  O132  1  0.77131725  0.97833127  0.15910931  1
  O  O133  1  0.75567572  1.02134312  0.63625450  1
  O  O134  1  0.04838450  0.43651203  0.22033387  1
  O  O135  1  -0.07627812  0.39150610  0.75557735  1
  O  O136  1  -0.02045211  0.83511545  0.30466547  1
  O  O137  1  0.03588551  0.82709611  0.67023749  1
  O  O138  1  0.49600460  0.34639324  0.30195042  1
  O  O139  1  0.49839414  0.40040749  0.78263201  1
  O  O140  1  0.54249930  0.85921532  0.22873728  1
  O  O141  1  0.50402312  0.91632770  0.76014738  1
  O  O142  1  0.57668474  0.11816950  0.18861666  1
  O  O143  1  0.43815808  0.09005651  0.76726699  1
  O  O144  1  0.46430689  0.64658386  0.26174036  1
  O  O145  1  0.43070490  0.57291942  0.75534701  1
  O  O146  1  0.99683991  0.11210683  0.19803466  1
  O  O147  1  1.03771197  0.11051029  0.72077108  1
  O  O148  1  0.95869537  0.67181706  0.25667912  1
  O  O149  1  0.92268892  0.68644496  0.74793592  1
  O  O150  1  0.37086202  0.20240082  0.05221870  1
  O  O151  1  0.36705286  0.24704576  0.39105035  1
  O  O152  1  0.39925411  0.77328896  -0.03109884  1
  O  O153  1  0.35016677  0.75053136  0.50387338  1
  O  O154  1  0.80242078  0.29366932  0.04932471  1
  O  O155  1  0.83753104  0.24636010  0.49023140  1
  O  O156  1  0.89430927  0.75075491  -0.04799678  1
  O  O157  1  0.84983552  0.75430206  0.53349526  1
  O  O158  1  0.13755342  0.24207144  0.45662337  1
  O  O159  1  0.21413794  0.21734131  1.11909529  1
  O  O160  1  0.14010800  0.72730062  0.52779613  1
  O  O161  1  0.07061043  0.70162693  0.98447659  1
  O  O162  1  0.71125992  0.24960910  0.64481472  1
  O  O163  1  0.71103918  0.40535714  1.15274483  1
  O  O164  1  0.63037275  0.76692229  0.53587251  1
  O  O165  1  0.64437699  0.70822776  1.03737971  1
  O  O166  1  0.49334513  0.26854556  0.16917608  1
  O  O167  1  0.50147296  0.22216284  0.52262015  1
  O  O168  1  0.53961279  0.64031690  0.02165254  1
  O  O169  1  0.47803860  0.77706885  0.59162696  1
  O  O170  1  1.03155684  0.21535915  0.12526605  1
  O  O171  1  1.05360048  0.21458492  0.60101919  1
  O  O172  1  0.95523884  0.74001990  0.11449424  1
  O  O173  1  0.89520012  0.72760486  0.58217214  1
  O  O174  1  -0.00451886  0.25554175  0.40007197  1
  O  O175  1  -0.00414855  0.21741452  0.95349238  1
  O  O176  1  -0.01510386  0.73789734  0.43256675  1
  O  O177  1  -0.11510542  0.67689913  0.80580947  1
  O  O178  1  0.53405433  0.19350063  0.32615506  1
  O  O179  1  0.52099347  0.27458465  0.83330654  1
  O  O180  1  0.50335598  0.81029879  0.39323159  1
  O  O181  1  0.54656251  0.65813012  0.83669903  1
  O  O182  1  0.26532456  0.18257390  0.49727478  1
  O  O183  1  0.25601511  0.10372542  1.02393308  1
  O  O184  1  0.25063190  0.63432880  0.51825949  1
  O  O185  1  0.27241177  0.64200410  0.99613654  1
  O  O186  1  0.77002085  0.15898319  0.55212303  1
  O  O187  1  0.68141805  0.20286605  0.93419839  1
  O  O188  1  0.71961701  0.63882439  0.57195805  1
  O  O189  1  0.80983879  0.62355852  0.95513177  1
  O  O190  1  0.29170117  0.33467389  0.06415633  1
  O  O191  1  0.24670442  0.34329087  0.44305128  1
  O  O192  1  0.33345421  0.91595676  0.00224021  1
  O  O193  1  0.23748141  0.85571168  0.49743198  1
  O  O194  1  0.74357547  0.43441916  -0.00482362  1
  O  O195  1  0.75989165  0.35946443  0.53557779  1
  O  O196  1  0.71264098  0.94420602  -0.00771582  1
  O  O197  1  0.75717686  0.89689707  0.50950550  1
  O  O198  1  0.19010967  0.52906255  0.14621595  1
  O  O199  1  0.16595911  0.51703728  0.73695333  1
  O  O200  1  0.06999688  0.95758692  0.24690776  1
  O  O201  1  0.13568485  0.97945766  0.71537086  1
  O  O202  1  0.63788245  0.55404906  0.20494233  1
  O  O203  1  0.64291749  0.42606844  0.72242290  1
  O  O204  1  0.66150150  1.01426802  0.27052868  1
  O  O205  1  0.60540925  1.01088443  0.75009488  1
  O  O206  1  0.36376833  -0.05521806  0.23422318  1
  O  O207  1  0.33675845  -0.00873224  0.75268824  1
  O  O208  1  0.35688269  0.53031121  0.28101368  1
  O  O209  1  0.38251278  0.52463476  0.73845036  1
  O  O210  1  0.82943593  -0.02149805  0.31795244  1
  O  O211  1  0.92077982  -0.01840762  0.73152741  1
  O  O212  1  0.89570850  0.50930378  0.23147368  1
  O  O213  1  0.82553337  0.51509740  0.72034031  1
  O  O214  1  0.11086462  0.42932401  0.36764898  1
  O  O215  1  0.05632112  0.25801951  0.80725692  1
  O  O216  1  0.09666100  0.85855918  0.37606140  1
  O  O217  1  0.11142838  0.84675087  0.80998905  1
  O  O218  1  0.58352294  0.51704859  0.24460645  1
  O  O219  1  0.59553553  0.37716432  0.90471248  1
  O  O220  1  0.56804638  0.78662859  0.38433268  1
  O  O221  1  0.61707629  0.93960247  0.86856930  1
  O  O222  1  0.41094752  0.04887017  0.08849869  1
  O  O223  1  0.38470998  0.13564907  0.61099269  1
  O  O224  1  0.31448175  0.61725254  0.17796325  1
  O  O225  1  0.38590953  0.64372303  0.61513387  1
  O  O226  1  0.87963285  0.22285953  0.21252390  1
  O  O227  1  0.92158371  0.12486154  0.61575048  1
  O  O228  1  0.83567714  0.64660543  0.17639896  1
  O  O229  1  0.88740879  0.59490016  0.55014534  1
  O  O230  1  0.32656327  0.29143507  0.22069443  1
  O  O231  1  0.24266170  0.27812029  0.62845351  1
  O  O232  1  0.26891339  0.78782929  0.11532598  1
  O  O233  1  0.26899421  0.76604417  0.61369990  1
  O  O234  1  0.75071970  0.45897144  0.17313362  1
  O  O235  1  0.83816501  0.28101928  0.62831311  1
  O  O236  1  0.77128332  0.80804368  0.07620709  1
  O  O237  1  0.74591702  0.78531890  0.63365149  1
  O  O238  1  0.22560767  0.22075609  0.33352284  1
  O  O239  1  0.25871215  0.24431635  0.94141192  1
  O  O240  1  0.23331859  0.72981105  0.39731848  1
  O  O241  1  0.28621756  0.71855543  0.84832856  1
  O  O242  1  0.67426949  0.26647934  0.51035785  1
  O  O243  1  0.74041984  0.27187776  0.81660796  1
  O  O244  1  0.77183136  0.71508786  0.38566111  1
  O  O245  1  0.71567352  0.72349990  0.82656005  1
  O  O246  1  -0.15285534  0.11598858  0.03216059  1
  O  O247  1  0.00611347  0.10445836  0.49677288  1
  O  O248  1  -0.02254147  0.59640464  -0.08110285  1
  O  O249  1  0.03201273  0.61436031  0.51525320  1
  O  O250  1  0.54412216  0.17919901  0.04075025  1
  O  O251  1  0.43985692  0.09419084  0.46772143  1
  O  O252  1  0.60957159  0.65439574  0.00412952  1
  O  O253  1  0.55377181  0.61385433  0.55585799  1
  O  O254  1  0.52877831  0.39863035  0.49256972  1
  O  O255  1  0.48801070  0.31910017  0.97217417  1
  O  O256  1  0.43755167  0.94179869  0.46251472  1
  O  O257  1  0.51823527  0.84608772  0.97791139  1
  O  O258  1  0.99548207  0.40706814  0.49212659  1
  O  O259  1  1.08919052  0.36551855  1.03871426  1
  O  O260  1  1.00487152  0.88053382  0.49953472  1
  O  O261  1  0.94826318  0.79297416  0.94102206  1
  O  O262  1  0.47543787  0.52741723  0.39054996  1
  O  O263  1  0.47706294  0.46089156  0.90264271  1
  O  O264  1  0.55519105  1.03080488  0.38761412  1
  O  O265  1  0.55508899  1.08590026  0.88662901  1
  O  O266  1  0.87083418  0.35830469  0.32623984  1
  O  O267  1  1.15193847  0.40082598  0.89398959  1
  O  O268  1  0.99571971  0.99425585  0.39171527  1
  O  O269  1  1.00932063  0.94707266  0.85337347  1
  O  O270  1  0.02835116  0.05535604  0.06323958  1
  O  O271  1  0.02740377  0.00006566  0.60158239  1
  O  O272  1  -0.01037119  0.55622930  0.09233797  1
  O  O273  1  0.02577005  0.48293627  0.65407966  1
  O  O274  1  0.46600691  0.01598069  0.12420930  1
  O  O275  1  0.47416323  0.02236961  0.59710986  1
  O  O276  1  0.57469245  0.43586200  0.08453851  1
  O  O277  1  0.48435421  0.47554560  0.61472668  1
  O  O278  1  0.21766630  0.45178918  0.27402969  1
  O  O279  1  0.26496149  0.36962608  0.77154912  1
  O  O280  1  0.18337126  0.83409531  0.24381851  1
  O  O281  1  0.24631507  0.87012324  0.72200277  1
  O  O282  1  0.65418814  0.41030119  0.36838024  1
  O  O283  1  0.77958331  0.38523413  0.73065901  1
  O  O284  1  0.72021656  0.87406153  0.27984420  1
  O  O285  1  0.70539719  0.89169638  0.76698587  1
  O  O286  1  0.27779359  0.08668112  0.22391817  1
  O  O287  1  0.23552144  0.08518984  0.78057122  1
  O  O288  1  0.21687076  0.60344305  0.28682281  1
  O  O289  1  0.27731048  0.65193399  0.80588916  1
  O  O290  1  0.77745766  0.10595697  0.25611876  1
  O  O291  1  0.78014445  0.13323120  0.77562407  1
  O  O292  1  0.76741955  0.58380293  0.29116440  1
  O  O293  1  0.69207347  0.56577609  0.75379349  1
  O  O294  1  0.43080407  0.07950040  0.27585702  1
  O  O295  1  0.34993024  0.10108488  0.89524199  1
  O  O296  1  0.34455971  0.63269141  0.36963109  1
  O  O297  1  0.40286384  0.60788177  0.91314634  1
  O  O298  1  0.88107396  0.12451442  0.38137698  1
  O  O299  1  0.81244658  0.18047265  0.90502135  1
  O  O300  1  0.90005562  0.59337595  0.36116799  1
  O  O301  1  0.84616980  0.57894803  1.01715911  1
  O  O302  1  0.17906312  0.35785576  0.17890000  1
  O  O303  1  0.15965703  0.39570140  0.65364029  1
  O  O304  1  0.12998779  0.85112610  0.08131879  1
  O  O305  1  0.15203452  0.88127077  0.60828529  1
  O  O306  1  0.59925702  0.48971433  0.04419132  1
  O  O307  1  0.55138463  0.32098028  0.64428496  1
  O  O308  1  0.65983352  0.89198746  0.13260686  1
  O  O309  1  0.60844463  0.87943811  0.67669018  1
  O  O310  1  0.09924819  0.30040434  0.29202100  1
  O  O311  1  0.07378105  0.28832813  0.74655254  1
  O  O312  1  0.04890385  0.80022038  0.20017999  1
  O  O313  1  0.15567388  0.73629079  0.71733724  1
  O  O314  1  0.63600323  0.29621444  0.24090912  1
  O  O315  1  0.53801525  0.15077318  0.67000485  1
  O  O316  1  0.66675902  0.74820697  0.20267916  1
  O  O317  1  0.58524915  0.81558555  0.81464362  1
  O  O318  1  0.41478572  0.13348529  0.23192993  1
  O  O319  1  0.33408168  0.20686604  0.77682117  1
  O  O320  1  0.34311627  0.74480731  0.25852935  1
  O  O321  1  0.38464900  0.76991662  0.71145411  1
  O  O322  1  0.82582544  0.26905717  0.20564891  1
  O  O323  1  0.90039419  0.24285666  0.78410080  1
  O  O324  1  0.85618288  0.79269109  0.23494589  1
  O  O325  1  0.79417011  0.77279762  0.68475357  1
  O  O326  1  0.38963492  0.50743561  0.49734348  1
  O  O327  1  0.43099903  0.54743620  1.08006062  1
  O  O328  1  0.29427090  1.00015260  0.46284907  1
  O  O329  1  0.45637622  0.96175583  0.94159837  1
  O  O330  1  0.86555760  0.46796711  0.57568443  1
  O  O331  1  1.00327748  0.43853861  0.92542506  1
  O  O332  1  0.87957002  0.99988626  0.49781785  1
  O  O333  1  0.86401489  0.99937517  0.88304444  1
  O  O334  1  0.09213122  0.07806099  0.04802444  1
  O  O335  1  0.12195350  -0.00858142  0.49341548  1
  O  O336  1  0.11463658  0.53490542  -0.01198460  1
  O  O337  1  0.14633347  0.50265045  0.53799818  1
  O  O338  1  0.60932944  0.03875596  0.04602749  1
  O  O339  1  0.57365548  -0.06612554  0.51382714  1
  O  O340  1  0.74061498  0.60811117  -0.05590969  1
  O  O341  1  0.57443157  0.55298928  0.51247468  1
  O  O342  1  0.46837286  0.52742364  0.13638085  1
  O  O343  1  0.37103267  0.33495682  0.66781862  1
  O  O344  1  0.42635511  0.87221439  0.07627424  1
  O  O345  1  0.35116953  0.88980297  0.58054816  1
  O  O346  1  0.89951652  0.42574838  0.06081901  1
  O  O347  1  0.99658768  0.35995325  0.54578877  1
  O  O348  1  0.85509689  0.93201521  0.04793608  1
  O  O349  1  0.87517556  0.88270037  0.60635638  1
  O  O350  1  0.08273473  0.13852808  0.34069421  1
  O  O351  1  0.00125729  0.15567087  0.92185478  1
  O  O352  1  0.14235129  0.60697813  0.42084066  1
  O  O353  1  0.11380571  0.63256255  0.84677502  1
  O  O354  1  0.72636995  0.15360636  0.27519033  1
  O  O355  1  0.64080337  0.17660503  0.78959729  1
  O  O356  1  0.63171998  0.63439889  0.36287174  1
  O  O357  1  0.60078932  0.53679401  0.88079807  1
