# generated using pymatgen
data_V51Zn51O256
_symmetry_space_group_name_H-M   'P 1'
_cell_length_a   17.57595248
_cell_length_b   17.52298428
_cell_length_c   17.49705292
_cell_angle_alpha   89.85173573
_cell_angle_beta   92.10890260
_cell_angle_gamma   90.42700422
_symmetry_Int_Tables_number   1
_chemical_formula_structural   V51Zn51O256
_chemical_formula_sum   'V51 Zn51 O256'
_cell_volume   5384.98340506
_cell_formula_units_Z   1
loop_
 _symmetry_equiv_pos_site_id
 _symmetry_equiv_pos_as_xyz
  1  'x, y, z'
loop_
 _atom_site_type_symbol
 _atom_site_label
 _atom_site_symmetry_multiplicity
 _atom_site_fract_x
 _atom_site_fract_y
 _atom_site_fract_z
 _atom_site_occupancy
  V  V0  1  0.51781744  0.65087140  0.08246392  1
  V  V1  1  0.49820678  0.75674906  0.75632550  1
  V  V2  1  0.60775954  0.91583259  0.76048122  1
  V  V3  1  0.40367883  0.61862381  0.73273012  1
  V  V4  1  0.01238090  0.73219743  0.73304799  1
  V  V5  1  -0.03040007  0.12552547  0.11591113  1
  V  V6  1  0.02767907  0.59589986  0.19857304  1
  V  V7  1  0.87419057  0.58846946  0.29298648  1
  V  V8  1  0.63360994  0.30509889  0.93948942  1
  V  V9  1  0.07704293  0.14668769  -0.02628413  1
  V  V10  1  0.89786377  0.84496245  0.46227415  1
  V  V11  1  0.23555810  0.02927011  0.19933506  1
  V  V12  1  0.91230055  0.02105019  0.36082099  1
  V  V13  1  0.87026086  0.60698906  0.71665421  1
  V  V14  1  0.18993538  0.38421789  0.10655380  1
  V  V15  1  0.00512441  0.39861582  0.85576442  1
  V  V16  1  0.13292065  0.26863732  0.87050375  1
  V  V17  1  0.32665588  0.15086388  0.88291590  1
  V  V18  1  0.86369067  0.29596592  0.07232619  1
  V  V19  1  0.52897475  0.40791221  0.81559916  1
  V  V20  1  0.17707230  -0.01975546  0.68046555  1
  V  V21  1  0.72527217  0.62910367  0.40315205  1
  V  V22  1  -0.03143108  0.08531247  0.62845499  1
  V  V23  1  0.61914562  0.10656707  0.46461399  1
  V  V24  1  0.01275142  0.63198663  0.59245872  1
  V  V25  1  0.61155777  0.36703552  0.24824540  1
  V  V26  1  0.04126488  0.28978178  0.71069411  1
  V  V27  1  0.49593320  0.86938437  0.90643093  1
  V  V28  1  0.87073978  0.24337950  0.61700818  1
  V  V29  1  0.13341517  0.11015876  0.54261934  1
  V  V30  1  0.75281562  0.16691232  0.87934235  1
  V  V31  1  0.26699441  0.61644525  0.82909955  1
  V  V32  1  0.28308194  0.72778112  0.05715060  1
  V  V33  1  0.15165431  0.53609144  0.58394740  1
  V  V34  1  0.40816496  0.44943720  0.02733894  1
  V  V35  1  0.85937787  0.76042129  0.63214421  1
  V  V36  1  0.64260841  0.75908703  0.88405654  1
  V  V37  1  0.36589542  -0.03966805  0.87010814  1
  V  V38  1  0.52974932  0.64420367  0.59505001  1
  V  V39  1  0.76389818  0.04355253  0.23842415  1
  V  V40  1  0.10327191  0.88290148  0.78682995  1
  V  V41  1  0.13100682  0.70686150  0.86064285  1
  V  V42  1  0.75195402  0.36727086  0.63102330  1
  V  V43  1  0.10057002  0.60064456  0.01590552  1
  V  V44  1  0.75775841  0.01911909  0.74214736  1
  V  V45  1  0.65144630  0.84478671  0.26799601  1
  V  V46  1  0.75617060  0.82351425  0.12828596  1
  V  V47  1  0.47564210  0.46615790  0.51964291  1
  V  V48  1  0.20819397  0.51522664  0.26915692  1
  V  V49  1  0.42244454  0.76509932  0.18320261  1
  V  V50  1  0.12850521  0.24349841  0.38393543  1
  Zn  Zn51  1  0.88032936  0.96642449  0.14634191  1
  Zn  Zn52  1  0.19198878  0.69260610  0.67367627  1
  Zn  Zn53  1  0.68281591  0.70372316  0.70107718  1
  Zn  Zn54  1  0.91613848  0.41640867  0.70869262  1
  Zn  Zn55  1  0.34738158  0.45799816  0.82491863  1
  Zn  Zn56  1  0.54067106  0.84254015  0.61124770  1
  Zn  Zn57  1  0.42460271  0.69333902  0.92192216  1
  Zn  Zn58  1  0.80305486  0.41032092  0.29121051  1
  Zn  Zn59  1  0.72054488  0.57165372  0.59749708  1
  Zn  Zn60  1  0.00166534  0.88776388  0.61489572  1
  Zn  Zn61  1  0.74428308  0.94365599  0.41432878  1
  Zn  Zn62  1  0.55191916  0.60578664  0.87053768  1
  Zn  Zn63  1  0.08234070  0.07351620  0.80358345  1
  Zn  Zn64  1  0.11668504  0.31573457  0.52703265  1
  Zn  Zn65  1  0.55460225  0.33680405  0.64034246  1
  Zn  Zn66  1  0.16035975  0.43712621  0.39182698  1
  Zn  Zn67  1  0.13791161  0.20766517  0.16922170  1
  Zn  Zn68  1  0.03365111  0.32633419  0.03212595  1
  Zn  Zn69  1  0.30423157  0.55863291  0.45760641  1
  Zn  Zn70  1  0.86890822  0.48369444  0.13964635  1
  Zn  Zn71  1  0.19380930  0.44577969  0.92298047  1
  Zn  Zn72  1  0.81773360  0.76420841  0.30655325  1
  Zn  Zn73  1  0.24224010  1.02268721  0.40689579  1
  Zn  Zn74  1  0.57129279  0.01204359  0.28225185  1
  Zn  Zn75  1  0.67609654  0.19061246  0.64866209  1
  Zn  Zn76  1  0.41928268  0.31948686  0.89788454  1
  Zn  Zn77  1  0.76530355  0.24379004  0.22866910  1
  Zn  Zn78  1  0.59542949  0.47809556  0.97893635  1
  Zn  Zn79  1  0.68167130  0.66708042  0.21480282  1
  Zn  Zn80  1  0.83751675  -0.05606090  0.59525761  1
  Zn  Zn81  1  0.58653221  0.82837135  0.07142968  1
  Zn  Zn82  1  0.97977029  0.58974755  0.87294731  1
  Zn  Zn83  1  0.68152746  0.67685948  0.03874057  1
  Zn  Zn84  1  0.21010079  0.17431603  0.71305906  1
  Zn  Zn85  1  0.86871726  0.64933318  0.49313940  1
  Zn  Zn86  1  0.78579300  0.12967557  0.07394423  1
  Zn  Zn87  1  0.22772371  0.03711445  -0.01587517  1
  Zn  Zn88  1  0.40907230  0.34091186  0.19047071  1
  Zn  Zn89  1  0.95901157  0.17744332  0.46677235  1
  Zn  Zn90  1  0.08695286  0.54390900  0.75178105  1
  Zn  Zn91  1  0.27923086  0.55875368  0.11908357  1
  Zn  Zn92  1  0.39059553  0.72678269  0.36730274  1
  Zn  Zn93  1  0.29796096  0.06195708  0.56683333  1
  Zn  Zn94  1  0.60033868  0.54580709  0.34240157  1
  Zn  Zn95  1  0.46286686  0.88943754  0.31298672  1
  Zn  Zn96  1  0.65974609  0.26327145  0.40463793  1
  Zn  Zn97  1  0.22936636  0.85622112  0.93117845  1
  Zn  Zn98  1  0.01674715  0.14715046  0.29459332  1
  Zn  Zn99  1  0.24994979  0.31935660  0.26861849  1
  Zn  Zn100  1  0.93050767  0.23354091  0.89691925  1
  Zn  Zn101  1  0.42681006  0.04987788  0.41741439  1
  O  O102  1  0.06547943  0.16265275  0.08940523  1
  O  O103  1  0.17220485  0.06285990  0.73638182  1
  O  O104  1  0.09327315  0.59547695  0.11487102  1
  O  O105  1  0.12148323  0.64131754  0.59273922  1
  O  O106  1  0.58294055  0.12412069  0.15629005  1
  O  O107  1  0.63655147  0.11541805  0.56414534  1
  O  O108  1  0.61069645  0.63447995  0.12205936  1
  O  O109  1  0.63109492  0.63527366  0.62282087  1
  O  O110  1  0.36585832  0.29960933  0.46508247  1
  O  O111  1  0.43356112  0.38689478  0.79812656  1
  O  O112  1  0.41012957  0.83009093  0.38218757  1
  O  O113  1  0.39051297  0.85865130  0.89894652  1
  O  O114  1  0.98267088  0.37585612  0.31874057  1
  O  O115  1  0.91218155  0.40119721  0.81958630  1
  O  O116  1  0.89557364  0.78743969  0.38300326  1
  O  O117  1  0.91592101  0.81632620  0.91573278  1
  O  O118  1  0.22364953  0.04846019  0.30204700  1
  O  O119  1  0.37711295  0.06336604  0.88997786  1
  O  O120  1  0.22797692  0.52539729  0.37341089  1
  O  O121  1  0.25918844  0.51502924  0.85794025  1
  O  O122  1  0.79449670  0.01645024  0.34773737  1
  O  O123  1  0.70135076  0.10481403  0.80385063  1
  O  O124  1  0.78287842  0.44837068  0.44673642  1
  O  O125  1  0.74201683  0.49848240  0.84101581  1
  O  O126  1  0.22437644  0.46520408  0.15785212  1
  O  O127  1  0.23804591  0.55800085  0.54966007  1
  O  O128  1  0.25327572  1.03221608  0.09960241  1
  O  O129  1  0.25850419  0.98099084  0.63022774  1
  O  O130  1  0.78534054  0.55868380  0.08609947  1
  O  O131  1  0.73972958  0.46166039  0.60664983  1
  O  O132  1  0.78497784  1.03689875  0.13718495  1
  O  O133  1  0.76314816  0.99811877  0.64596933  1
  O  O134  1  -0.02715837  0.32773605  0.26880262  1
  O  O135  1  0.02867752  0.38674560  0.72442658  1
  O  O136  1  0.04109066  0.86733000  0.14293625  1
  O  O137  1  0.01317109  0.82909096  0.77164836  1
  O  O138  1  0.51917276  0.34481090  0.21438866  1
  O  O139  1  0.57136194  0.40288212  0.73141228  1
  O  O140  1  0.56234094  0.89851415  0.26545619  1
  O  O141  1  0.50287039  0.85479384  0.74823494  1
  O  O142  1  0.53171719  0.08854465  0.20146936  1
  O  O143  1  0.44470524  0.22184974  0.72620014  1
  O  O144  1  0.48082817  0.57351349  0.31529129  1
  O  O145  1  0.49965155  0.63361451  0.77368958  1
  O  O146  1  0.95162272  0.15603921  0.20574583  1
  O  O147  1  1.00890062  0.08920461  0.71752419  1
  O  O148  1  0.97193869  0.57882728  0.29630599  1
  O  O149  1  1.01070279  0.62317435  0.71034906  1
  O  O150  1  0.38124559  0.41471500  -0.06740398  1
  O  O151  1  0.43511380  0.16145172  0.57023555  1
  O  O152  1  0.35919242  0.71798266  0.00161623  1
  O  O153  1  0.33555381  0.76012139  0.51957562  1
  O  O154  1  0.86559157  0.28675019  -0.02595852  1
  O  O155  1  0.90074163  0.25034789  0.52688477  1
  O  O156  1  0.81259906  0.66851907  -0.03863265  1
  O  O157  1  0.85860637  0.76186371  0.52671564  1
  O  O158  1  0.14229663  0.21282910  0.48466788  1
  O  O159  1  0.10017468  0.25343455  0.97398188  1
  O  O160  1  0.19095310  0.92233417  0.43233842  1
  O  O161  1  0.12097969  0.68963008  0.95937815  1
  O  O162  1  0.57545629  0.20302858  0.45523062  1
  O  O163  1  0.60905477  0.25489228  1.01317994  1
  O  O164  1  0.66476149  0.79047627  0.52810214  1
  O  O165  1  0.62207945  0.75864496  0.99058153  1
  O  O166  1  0.43151102  0.21573727  0.14979663  1
  O  O167  1  0.58187492  0.23581157  0.65760107  1
  O  O168  1  0.49819030  0.75140990  0.11168770  1
  O  O169  1  0.52428265  0.73863916  0.65210577  1
  O  O170  1  0.95836400  0.29073864  0.10304243  1
  O  O171  1  1.07444633  0.28836799  0.62063053  1
  O  O172  1  1.01522001  0.68777510  0.20141107  1
  O  O173  1  1.01920909  0.74755907  0.63501109  1
  O  O174  1  0.02666615  0.20665531  0.38861001  1
  O  O175  1  0.01109477  0.28654493  0.83876340  1
  O  O176  1  0.05279452  0.86988257  0.30647569  1
  O  O177  1  0.02903512  0.69231244  0.84166145  1
  O  O178  1  0.40888360  0.16560301  0.37529280  1
  O  O179  1  0.54630736  0.32687971  0.88032184  1
  O  O180  1  0.61429300  0.80251521  0.47609919  1
  O  O181  1  0.49851918  0.75997492  0.86966236  1
  O  O182  1  0.21718447  0.14048067  0.59981000  1
  O  O183  1  0.26428037  0.13648129  0.95543203  1
  O  O184  1  0.21595868  0.70182880  0.44361671  1
  O  O185  1  0.22933836  0.64462604  1.06533814  1
  O  O186  1  0.70680704  0.16632753  0.45123120  1
  O  O187  1  0.75053194  0.12378162  0.96532573  1
  O  O188  1  0.76377386  0.60763126  0.50202644  1
  O  O189  1  0.68016381  0.55832805  1.00624685  1
  O  O190  1  0.22474021  0.38524913  0.01648047  1
  O  O191  1  0.34872737  0.28825688  0.53135644  1
  O  O192  1  0.22804793  0.80321674  0.02579157  1
  O  O193  1  0.34856648  0.90800330  0.51131746  1
  O  O194  1  0.83524387  0.43858454  -0.05311756  1
  O  O195  1  0.67778909  0.34071829  0.48877765  1
  O  O196  1  0.74153112  0.84648990  0.03712575  1
  O  O197  1  0.81628272  0.90499866  0.49159786  1
  O  O198  1  0.11771792  0.55385210  0.25433160  1
  O  O199  1  0.16169935  0.51334288  0.67902748  1
  O  O200  1  0.13685176  1.01241967  0.20602835  1
  O  O201  1  0.07617004  0.96300567  0.83210870  1
  O  O202  1  0.57691726  0.45533908  0.28262625  1
  O  O203  1  0.69820787  0.51450159  0.78774140  1
  O  O204  1  0.67586320  1.00194427  0.24759005  1
  O  O205  1  0.57060148  1.00005020  0.74927772  1
  O  O206  1  0.33058246  0.03265119  0.23760668  1
  O  O207  1  0.34414762  -0.04318284  0.78016747  1
  O  O208  1  0.35631143  0.33065908  0.27607208  1
  O  O209  1  0.38660508  0.52319377  0.74177726  1
  O  O210  1  0.86711392  0.00616555  0.25682240  1
  O  O211  1  0.84353499  0.01898417  0.78042886  1
  O  O212  1  0.83393555  0.50336337  0.24629903  1
  O  O213  1  0.88753169  0.51778449  0.68335196  1
  O  O214  1  0.11150077  0.34062832  0.41347503  1
  O  O215  1  0.12313105  0.37340083  0.86593615  1
  O  O216  1  0.21889015  0.85393600  0.41324758  1
  O  O217  1  0.14227241  0.81903044  0.86753741  1
  O  O218  1  0.58480248  0.30413396  0.33361279  1
  O  O219  1  0.66546374  0.39367075  0.96860891  1
  O  O220  1  0.67880848  0.87434175  0.36164220  1
  O  O221  1  0.59556204  0.86790574  0.86642837  1
  O  O222  1  0.42830055  0.06252546  0.08155651  1
  O  O223  1  0.41817901  0.09836019  0.59887177  1
  O  O224  1  0.45876016  0.60336861  0.13448123  1
  O  O225  1  0.42762172  0.62793593  0.63782427  1
  O  O226  1  0.89431679  0.15459133  0.05892846  1
  O  O227  1  0.88212685  0.13595116  0.62626165  1
  O  O228  1  0.87282073  0.66505453  -0.00106116  1
  O  O229  1  0.89639012  0.65160231  0.61434230  1
  O  O230  1  0.20767754  0.29551451  0.16109199  1
  O  O231  1  0.24862303  0.29757271  0.65973689  1
  O  O232  1  0.32581864  0.74839826  0.15084504  1
  O  O233  1  0.23719512  0.76446134  0.59725306  1
  O  O234  1  0.78898888  0.23617003  0.11712186  1
  O  O235  1  0.76858138  0.24405576  0.61464582  1
  O  O236  1  0.74140881  0.71918519  0.12947135  1
  O  O237  1  0.76660818  0.76246030  0.65211068  1
  O  O238  1  0.22102623  0.24903693  0.35430061  1
  O  O239  1  0.22514183  0.26642534  0.88354405  1
  O  O240  1  0.27512896  0.85320305  0.36841352  1
  O  O241  1  0.24283200  0.70231949  0.87474534  1
  O  O242  1  0.74591284  0.27104057  0.34514478  1
  O  O243  1  0.70148809  0.25376304  0.88330059  1
  O  O244  1  0.74181456  0.72179535  0.38731033  1
  O  O245  1  0.73118206  0.78435435  0.88002132  1
  O  O246  1  -0.01621112  0.13843188  -0.05267122  1
  O  O247  1  0.02620194  0.13389929  0.55604162  1
  O  O248  1  0.00911554  0.58853466  -0.01990506  1
  O  O249  1  -0.01799194  0.65113572  0.50059242  1
  O  O250  1  0.45911622  0.21159620  0.08577493  1
  O  O251  1  0.52851972  0.06895974  0.47810526  1
  O  O252  1  0.50654222  0.63126806  -0.01883875  1
  O  O253  1  0.51769042  0.68225787  0.51109166  1
  O  O254  1  0.48191882  0.38634082  0.57617259  1
  O  O255  1  0.50534444  0.47121504  1.03468250  1
  O  O256  1  0.55440049  0.84634265  0.49537169  1
  O  O257  1  0.51402623  0.87717849  1.00191445  1
  O  O258  1  0.95739557  0.40121598  0.48308978  1
  O  O259  1  0.99476622  0.39679897  0.95156459  1
  O  O260  1  0.98347266  0.85055284  0.51109189  1
  O  O261  1  0.88188959  0.82730262  0.97428514  1
  O  O262  1  0.49610342  0.41909566  0.42061498  1
  O  O263  1  0.55196778  0.49222414  0.86850080  1
  O  O264  1  0.47503495  0.99777547  0.33951761  1
  O  O265  1  0.47757300  0.96312675  0.87655575  1
  O  O266  1  0.96033454  0.46456243  0.45351696  1
  O  O267  1  1.03351826  0.49796606  0.83493387  1
  O  O268  1  0.99910050  1.04363932  0.32332568  1
  O  O269  1  0.95565814  0.97635764  0.93919340  1
  O  O270  1  -0.03554937  0.02620276  0.11393414  1
  O  O271  1  -0.05621461  -0.00713397  0.60279672  1
  O  O272  1  -0.04633371  0.55147101  0.14715146  1
  O  O273  1  0.02605913  0.53562292  0.59127520  1
  O  O274  1  0.43930499  -0.00663610  0.07864998  1
  O  O275  1  0.44278321  -0.10027521  0.59982466  1
  O  O276  1  0.43127156  0.52465438  0.29861749  1
  O  O277  1  0.52093556  0.54060493  0.57149164  1
  O  O278  1  0.19204341  0.41244078  0.28769998  1
  O  O279  1  0.27884516  0.35433089  0.77147312  1
  O  O280  1  0.24033581  0.93090674  0.18898158  1
  O  O281  1  0.19899405  0.91040545  0.75755227  1
  O  O282  1  0.69357746  0.39771441  0.30846258  1
  O  O283  1  0.72011910  0.35583930  0.71608013  1
  O  O284  1  0.75698659  0.83438591  0.24619004  1
  O  O285  1  0.70688078  0.94202094  0.78649137  1
  O  O286  1  0.22372757  0.12932647  0.17483906  1
  O  O287  1  0.29014943  0.16087464  0.79033962  1
  O  O288  1  0.27870432  0.57179455  0.23299499  1
  O  O289  1  0.27921683  0.63573908  0.72971350  1
  O  O290  1  0.75337521  0.13832139  0.25054490  1
  O  O291  1  0.73032682  0.12751171  0.72901472  1
  O  O292  1  0.69807222  0.59284624  0.29990066  1
  O  O293  1  0.77060815  0.61774534  0.70080576  1
  O  O294  1  0.33176197  0.05380192  0.46337291  1
  O  O295  1  0.39620783  0.21907023  0.90712353  1
  O  O296  1  0.33511174  0.65501616  0.41773934  1
  O  O297  1  0.36796798  0.62570784  0.85032837  1
  O  O298  1  0.90077622  0.09091288  0.42925669  1
  O  O299  1  0.84103333  0.18330706  0.84906628  1
  O  O300  1  0.84018528  0.59309247  0.38614777  1
  O  O301  1  0.88562931  0.59946456  0.81491616  1
  O  O302  1  0.09371521  0.39240166  0.09897813  1
  O  O303  1  0.14305976  0.42834785  0.54825805  1
  O  O304  1  0.09101906  0.81970535  0.13625805  1
  O  O305  1  0.08931874  0.91144019  0.67815053  1
  O  O306  1  0.64259558  0.40279588  0.16259620  1
  O  O307  1  0.65904919  0.33517105  0.56162358  1
  O  O308  1  0.65651459  0.86035578  0.15285188  1
  O  O309  1  0.62500849  0.88518028  0.66760726  1
  O  O310  1  0.10753455  0.20924559  0.27627487  1
  O  O311  1  0.12642755  0.24482041  0.75779193  1
  O  O312  1  0.10615945  0.82620925  0.29988328  1
  O  O313  1  0.12497069  0.73902810  0.74635571  1
  O  O314  1  0.65589652  0.28054851  0.21687314  1
  O  O315  1  0.51634125  0.12769669  0.97601841  1
  O  O316  1  0.62502899  0.75085637  0.26803976  1
  O  O317  1  0.61563274  0.74783950  0.77453905  1
  O  O318  1  0.42639885  0.19298582  0.31226114  1
  O  O319  1  0.39181857  0.25287480  0.69098617  1
  O  O320  1  0.43553297  0.71408634  0.26515672  1
  O  O321  1  0.40276631  0.73554327  0.74339085  1
  O  O322  1  0.83822544  0.32122845  0.24880071  1
  O  O323  1  0.94867310  0.24925553  0.69267832  1
  O  O324  1  0.84598483  0.67148545  0.24964739  1
  O  O325  1  0.90408301  0.72490673  0.73015519  1
  O  O326  1  0.38413532  0.49046460  0.49793579  1
  O  O327  1  0.35149149  0.52507553  1.04652084  1
  O  O328  1  0.41967983  0.90227431  0.52405716  1
  O  O329  1  0.27516397  0.95516270  0.92925961  1
  O  O330  1  0.81964736  0.40181541  0.40850611  1
  O  O331  1  0.85720735  0.50457505  0.94720110  1
  O  O332  1  0.92610857  0.93273776  0.40118107  1
  O  O333  1  0.88736036  0.98611019  0.94353508  1
  O  O334  1  0.11968456  0.05863845  -0.01005017  1
  O  O335  1  0.11665006  0.02689034  0.59740413  1
  O  O336  1  0.15014919  0.52680656  -0.01701676  1
  O  O337  1  0.11489406  0.48000312  0.48884232  1
  O  O338  1  0.62208549  0.08540010  0.11077923  1
  O  O339  1  0.67195911  0.02232895  0.46024888  1
  O  O340  1  0.73355513  0.51632568  0.05036263  1
  O  O341  1  0.55185696  0.47058495  0.43801593  1
  O  O342  1  0.39382793  0.37667578  0.09187527  1
  O  O343  1  0.25251237  0.36033681  0.70031069  1
  O  O344  1  0.42328053  0.85747104  0.20737195  1
  O  O345  1  0.31043935  0.74122527  0.58332176  1
  O  O346  1  0.83854637  0.39021150  0.09335179  1
  O  O347  1  0.85768737  0.35289281  0.63588484  1
  O  O348  1  0.84989992  0.86319054  0.14073443  1
  O  O349  1  0.89265201  0.85481812  0.64430354  1
  O  O350  1  0.15865967  0.06956833  0.46019819  1
  O  O351  1  0.11010275  0.15559884  0.87359443  1
  O  O352  1  0.16450950  0.70286032  0.39467646  1
  O  O353  1  0.15418379  0.61238040  0.82032677  1
  O  O354  1  0.60658427  0.09719845  0.36178765  1
  O  O355  1  0.56375481  0.07748619  0.98271570  1
  O  O356  1  0.63149458  0.60932235  0.42695184  1
  O  O357  1  0.64761755  0.65598608  0.88979165  1
