# generated using pymatgen
data_V51Zn51O256
_symmetry_space_group_name_H-M   'P 1'
_cell_length_a   17.39242025
_cell_length_b   17.20075196
_cell_length_c   17.41260059
_cell_angle_alpha   90.02771815
_cell_angle_beta   89.15301539
_cell_angle_gamma   89.68987621
_symmetry_Int_Tables_number   1
_chemical_formula_structural   V51Zn51O256
_chemical_formula_sum   'V51 Zn51 O256'
_cell_volume   5208.55442933
_cell_formula_units_Z   1
loop_
 _symmetry_equiv_pos_site_id
 _symmetry_equiv_pos_as_xyz
  1  'x, y, z'
loop_
 _atom_site_type_symbol
 _atom_site_label
 _atom_site_symmetry_multiplicity
 _atom_site_fract_x
 _atom_site_fract_y
 _atom_site_fract_z
 _atom_site_occupancy
  V  V0  1  0.70057158  0.74170435  0.36418047  1
  V  V1  1  0.40043509  0.24547706  0.25446686  1
  V  V2  1  0.35140596  0.01350396  0.93147819  1
  V  V3  1  0.88221056  0.62805462  0.75355978  1
  V  V4  1  0.62367431  0.86145546  0.25605549  1
  V  V5  1  0.72227347  0.50139658  0.21740456  1
  V  V6  1  0.10632822  0.14134917  -0.02009355  1
  V  V7  1  0.38402318  0.84100642  0.96267684  1
  V  V8  1  0.86975741  0.88002470  -0.04545908  1
  V  V9  1  0.05209185  -0.02436962  -0.03954716  1
  V  V10  1  0.85994624  0.77176598  0.09449627  1
  V  V11  1  0.28040749  0.03949620  0.75796960  1
  V  V12  1  0.50458806  0.11589535  0.60899098  1
  V  V13  1  0.83713216  0.03205926  0.36942513  1
  V  V14  1  0.72401740  0.15493888  0.29517802  1
  V  V15  1  0.05809698  0.30510806  0.80063332  1
  V  V16  1  0.73160886  0.60105324  0.87027613  1
  V  V17  1  -0.01538093  0.33184415  0.28178070  1
  V  V18  1  0.19970605  0.49947298  0.22435340  1
  V  V19  1  0.92926973  0.35693117  0.54453300  1
  V  V20  1  0.07605624  0.13019564  0.41323563  1
  V  V21  1  0.90872461  0.49877105  0.86965609  1
  V  V22  1  0.87979954  0.74507541  0.63162306  1
  V  V23  1  0.73748351  0.88346100  0.64136890  1
  V  V24  1  0.26910276  0.26161729  -0.00447308  1
  V  V25  1  0.67133492  0.05676906  0.85225521  1
  V  V26  1  0.12309914  0.62173403  -0.03713003  1
  V  V27  1  0.58021529  0.08112946  -0.01053978  1
  V  V28  1  0.11609180  -0.03461850  0.18295380  1
  V  V29  1  -0.01167501  0.84698762  0.39417182  1
  V  V30  1  0.88639821  0.20921065  0.60691895  1
  V  V31  1  0.23060612  0.37276580  0.12718432  1
  V  V32  1  0.86484088  0.95149899  0.51751928  1
  V  V33  1  -0.00528406  0.64606529  0.13946351  1
  V  V34  1  0.37020467  0.02119245  0.39383236  1
  V  V35  1  0.23930721  0.72075874  0.04543262  1
  V  V36  1  0.77566630  -0.02582785  0.20654080  1
  V  V37  1  0.84215059  0.17470556  0.14229878  1
  V  V38  1  0.42661960  0.51372062  0.42126429  1
  V  V39  1  0.67312606  0.67374716  0.53711079  1
  V  V40  1  0.87422616  0.37221173  -0.01852668  1
  V  V41  1  0.01262262  0.76240285  0.75945685  1
  V  V42  1  0.60386553  0.83125660  0.71302704  1
  V  V43  1  0.15007555  0.29598230  0.39876178  1
  V  V44  1  0.48479603  0.50037219  0.04074901  1
  V  V45  1  0.69122641  0.49267554  0.60632742  1
  V  V46  1  0.47274614  0.74882367  0.28449941  1
  V  V47  1  0.92042266  0.12106044  0.78613824  1
  V  V48  1  0.30889295  0.35421764  0.62911237  1
  V  V49  1  0.34705499  0.75184044  0.60264022  1
  V  V50  1  0.78293578  0.47477790  0.74375115  1
  Zn  Zn51  1  0.00508887  0.52049910  0.23305971  1
  Zn  Zn52  1  0.10797565  0.06770925  0.81417828  1
  Zn  Zn53  1  0.88917225  0.20812112  0.40833991  1
  Zn  Zn54  1  0.40082410  0.94684214  0.65401882  1
  Zn  Zn55  1  0.58321044  0.01618966  0.36603636  1
  Zn  Zn56  1  0.31789122  0.07572409  0.56751736  1
  Zn  Zn57  1  0.45086008  0.19744854  0.44052619  1
  Zn  Zn58  1  0.77921826  0.78755497  0.81306490  1
  Zn  Zn59  1  0.61724859  0.03703558  0.17472696  1
  Zn  Zn60  1  1.01115747  0.50632608  0.01536877  1
  Zn  Zn61  1  0.48495702  0.64272792  1.14795732  1
  Zn  Zn62  1  0.52586019  0.80053609  0.10385143  1
  Zn  Zn63  1  0.97829322  0.45859033  0.68241857  1
  Zn  Zn64  1  0.94126143  0.69146519  0.93687211  1
  Zn  Zn65  1  0.90452409  0.92557317  0.76950860  1
  Zn  Zn66  1  0.86791214  0.55331902  0.56251750  1
  Zn  Zn67  1  0.69770203  0.47401948  1.00726620  1
  Zn  Zn68  1  0.77037709  0.04155336  0.02617374  1
  Zn  Zn69  1  0.93062090  0.16756882  0.98045149  1
  Zn  Zn70  1  0.29817709  0.57105736  0.09144696  1
  Zn  Zn71  1  0.43290720  0.19550519  0.91648363  1
  Zn  Zn72  1  0.81230148  0.31114262  0.25264009  1
  Zn  Zn73  1  0.40091941  0.85479394  0.78248007  1
  Zn  Zn74  1  0.89576131  0.31387113  0.77818493  1
  Zn  Zn75  1  0.47971310  0.03120053  0.81006265  1
  Zn  Zn76  1  0.04540541  0.29533184  0.09140660  1
  Zn  Zn77  1  0.58238479  0.60141341  0.32851883  1
  Zn  Zn78  1  0.23424704  0.07601404  0.06930396  1
  Zn  Zn79  1  0.78011604  0.07516600  0.69690901  1
  Zn  Zn80  1  0.83763482  0.83233094  0.29363290  1
  Zn  Zn81  1  0.08578019  0.79316181  0.08317259  1
  Zn  Zn82  1  0.58253574  0.47802692  0.85729112  1
  Zn  Zn83  1  0.19160543  0.43663839  0.95072285  1
  Zn  Zn84  1  0.18347469  0.67309991  0.69735133  1
  Zn  Zn85  1  0.16437924  0.94692551  0.38729212  1
  Zn  Zn86  1  0.88072606  0.69693196  0.43559458  1
  Zn  Zn87  1  0.44411095  0.35464067  0.78252095  1
  Zn  Zn88  1  0.49171442  0.70518096  0.46792528  1
  Zn  Zn89  1  0.07330004  0.56631991  0.78214665  1
  Zn  Zn90  1  0.30706565  0.23666079  0.80297058  1
  Zn  Zn91  1  0.67970119  0.70934518  0.15447868  1
  Zn  Zn92  1  -0.00573194  0.11080259  0.26270950  1
  Zn  Zn93  1  0.42735533  0.43699576  0.22299389  1
  Zn  Zn94  1  0.70805427  0.90955694  0.44424219  1
  Zn  Zn95  1  0.30103023  0.55468032  0.57754264  1
  Zn  Zn96  1  0.75684002  0.56324068  0.42014326  1
  Zn  Zn97  1  0.34524680  0.82087183  0.41169776  1
  Zn  Zn98  1  0.05512907  0.17618701  0.67571119  1
  Zn  Zn99  1  0.20757372  0.90677266  1.03404861  1
  Zn  Zn100  1  0.51176060  0.18880593  0.09381288  1
  Zn  Zn101  1  0.95350105  0.88187214  0.18533882  1
  O  O102  1  0.07230157  0.06936800  0.17730778  1
  O  O103  1  0.17665220  0.12679350  0.61833522  1
  O  O104  1  0.08622515  0.68529211  0.14202209  1
  O  O105  1  0.20737210  0.58754537  0.62857249  1
  O  O106  1  0.59333782  0.10630935  0.09309063  1
  O  O107  1  0.59463286  0.07746612  0.60498690  1
  O  O108  1  0.57984093  0.69753222  0.11131498  1
  O  O109  1  0.70476358  0.69710930  0.62241663  1
  O  O110  1  0.46871946  0.42853817  0.44943318  1
  O  O111  1  0.34510075  0.45034064  0.84192992  1
  O  O112  1  0.38390819  0.92562734  0.36296286  1
  O  O113  1  0.29936242  0.90696070  0.97442909  1
  O  O114  1  0.88256023  0.40003548  0.44163405  1
  O  O115  1  0.89252619  0.38911127  0.87508440  1
  O  O116  1  0.81264615  0.93284155  0.38600241  1
  O  O117  1  0.84782312  0.87051115  0.85152133  1
  O  O118  1  0.26981809  0.01317619  0.37608951  1
  O  O119  1  0.27565711  0.01318282  0.86211841  1
  O  O120  1  0.33352633  0.48533030  0.40396174  1
  O  O121  1  0.28286716  0.48363452  0.86120484  1
  O  O122  1  0.75856780  0.03483391  0.29154934  1
  O  O123  1  0.68401974  -0.03503017  0.83450589  1
  O  O124  1  0.75492139  0.51861932  0.31411360  1
  O  O125  1  0.78219188  0.49279828  0.84692698  1
  O  O126  1  0.21902390  0.49545004  0.12018704  1
  O  O127  1  0.32165680  0.46477125  0.64052709  1
  O  O128  1  0.20281368  0.97940997  0.12854833  1
  O  O129  1  0.30393535  1.00824240  0.65393263  1
  O  O130  1  0.69287616  0.46471626  0.12787808  1
  O  O131  1  0.79193588  0.49802406  0.62852728  1
  O  O132  1  0.72218900  1.00424161  0.12682769  1
  O  O133  1  0.73446383  0.97611495  0.66918465  1
  O  O134  1  -0.04159497  0.42765038  0.27025054  1
  O  O135  1  0.00009629  0.36854870  0.74771011  1
  O  O136  1  -0.05414795  0.87235780  0.30650631  1
  O  O137  1  -0.00806244  0.86214074  0.75034651  1
  O  O138  1  0.52130263  0.38390679  0.22853754  1
  O  O139  1  0.51845766  0.42692726  0.79023543  1
  O  O140  1  0.52914670  0.83717671  0.29125409  1
  O  O141  1  0.49796486  0.87978471  0.70718591  1
  O  O142  1  0.46490129  0.02026803  0.16471705  1
  O  O143  1  0.48460965  0.09265842  0.70711112  1
  O  O144  1  0.51059592  0.64584593  0.25729031  1
  O  O145  1  0.48728187  0.60187140  0.77185637  1
  O  O146  1  0.92104716  0.14792862  0.19183358  1
  O  O147  1  1.01816180  0.10291285  0.75828708  1
  O  O148  1  0.96746800  0.63456003  0.23392800  1
  O  O149  1  0.98712903  0.64265481  0.74983027  1
  O  O150  1  0.36239350  0.23527825  0.00064215  1
  O  O151  1  0.48090822  0.27676209  0.49968665  1
  O  O152  1  0.32222571  0.75575176  -0.00159862  1
  O  O153  1  0.31326197  0.75146746  0.50640004  1
  O  O154  1  0.88152405  0.27387852  -0.01975171  1
  O  O155  1  0.87592359  0.25668247  0.51178731  1
  O  O156  1  0.86656393  0.77397413  -0.02847503  1
  O  O157  1  0.86295868  0.74995255  0.53689876  1
  O  O158  1  0.12955559  0.20816464  0.45545805  1
  O  O159  1  0.03762399  0.21090954  1.02025998  1
  O  O160  1  0.13634562  0.71113551  0.44343763  1
  O  O161  1  0.13928888  0.72261076  0.99736268  1
  O  O162  1  0.60582965  0.32697649  0.37772177  1
  O  O163  1  0.64950793  0.26256338  0.88469464  1
  O  O164  1  0.70531728  0.74765703  0.47057049  1
  O  O165  1  0.65524423  0.82161349  0.98625409  1
  O  O166  1  0.45355079  0.22729952  0.17371976  1
  O  O167  1  0.52661700  0.20649919  0.64076191  1
  O  O168  1  0.45407694  0.75698207  0.18556342  1
  O  O169  1  0.44110249  0.72696413  0.57007762  1
  O  O170  1  1.00555531  0.29072383  0.19524024  1
  O  O171  1  0.97406612  0.16274994  0.60494360  1
  O  O172  1  0.97903093  0.74720135  0.08352553  1
  O  O173  1  0.97369195  0.76216503  0.64428509  1
  O  O174  1  -0.10221634  0.28514144  0.32093380  1
  O  O175  1  -0.01370548  0.24774038  0.83573115  1
  O  O176  1  -0.02571130  0.74911173  0.40856270  1
  O  O177  1  0.00073665  0.74902696  0.85634194  1
  O  O178  1  0.45000643  0.21841067  0.33531187  1
  O  O179  1  0.58160296  0.28213484  0.88117213  1
  O  O180  1  0.54001156  0.71014183  0.36881579  1
  O  O181  1  0.40178350  0.79879524  0.87340037  1
  O  O182  1  0.21213270  0.11620675  0.55468766  1
  O  O183  1  0.19832624  0.18235076  1.02917241  1
  O  O184  1  0.24776705  0.57879748  0.49047351  1
  O  O185  1  0.23079289  0.61759204  0.99860174  1
  O  O186  1  0.67882698  0.21675463  0.48264243  1
  O  O187  1  0.68535474  0.07884888  0.95779456  1
  O  O188  1  0.85387750  0.59195486  0.45958068  1
  O  O189  1  0.73409390  0.57285256  0.96792663  1
  O  O190  1  0.25516909  0.36924998  0.00820868  1
  O  O191  1  0.34777050  0.36223228  0.53816158  1
  O  O192  1  0.20244062  0.80839115  0.09046741  1
  O  O193  1  0.24845238  0.86918299  0.42067571  1
  O  O194  1  0.78187963  0.39834619  0.00381344  1
  O  O195  1  0.81223849  0.42181038  0.44710821  1
  O  O196  1  0.79701413  0.94404922  -0.02306904  1
  O  O197  1  0.77215411  0.90151871  0.53693904  1
  O  O198  1  0.11065385  0.52483615  0.26039418  1
  O  O199  1  0.13730462  0.38066750  0.85354059  1
  O  O200  1  0.14083067  0.96592331  0.27571638  1
  O  O201  1  0.18380081  1.03364366  0.74220038  1
  O  O202  1  0.62592461  0.51117372  0.26135813  1
  O  O203  1  0.68299349  0.47646634  0.71452903  1
  O  O204  1  0.60728343  0.96997461  0.26566538  1
  O  O205  1  0.54883368  0.91542894  0.76300352  1
  O  O206  1  0.37428704  0.06591591  0.30609758  1
  O  O207  1  0.38982291  -0.03160833  0.76503113  1
  O  O208  1  0.43244383  0.50280452  0.31812369  1
  O  O209  1  0.43186774  0.61466824  0.81503622  1
  O  O210  1  0.87038142  -0.03149265  0.18799975  1
  O  O211  1  0.87537310  0.03406772  0.75280598  1
  O  O212  1  0.81651253  0.51879542  0.18725552  1
  O  O213  1  0.89456801  0.50934366  0.74780645  1
  O  O214  1  0.16937123  0.37217028  0.45271900  1
  O  O215  1  0.10077774  0.32461383  0.89931551  1
  O  O216  1  0.08351790  0.86662496  0.39591840  1
  O  O217  1  0.21283738  0.83826851  0.82418925  1
  O  O218  1  0.64069198  0.37892611  0.41100475  1
  O  O219  1  0.64368382  0.42206136  0.92804380  1
  O  O220  1  0.66408786  0.84308432  0.36617993  1
  O  O221  1  0.61782990  0.83753280  0.92925306  1
  O  O222  1  0.30871727  0.12729879  0.19775448  1
  O  O223  1  0.39948056  0.14450421  0.59084688  1
  O  O224  1  0.38023447  0.60142850  0.16448041  1
  O  O225  1  0.34916246  0.64732469  0.62651654  1
  O  O226  1  0.84218797  0.12708458  0.05023988  1
  O  O227  1  0.81006987  0.14695740  0.61648066  1
  O  O228  1  0.89507789  0.66626447  0.08978095  1
  O  O229  1  0.87740415  0.63635299  0.64284161  1
  O  O230  1  0.27689027  0.28663212  0.12318747  1
  O  O231  1  0.28723997  0.26117927  0.59990715  1
  O  O232  1  0.26353590  0.67724281  0.13028519  1
  O  O233  1  0.24709615  0.74677086  0.62866683  1
  O  O234  1  0.68045978  0.28270115  0.06523891  1
  O  O235  1  0.68437243  0.25030381  0.54473257  1
  O  O236  1  0.76294286  0.75334129  0.09815511  1
  O  O237  1  0.82770842  0.83744558  0.66246948  1
  O  O238  1  0.23228415  0.27732128  0.35179461  1
  O  O239  1  0.25340445  0.25639826  0.89889230  1
  O  O240  1  0.20673250  0.73729822  0.30089273  1
  O  O241  1  0.27745367  0.68860505  0.86397715  1
  O  O242  1  0.72719039  0.25222628  0.30081037  1
  O  O243  1  0.67713321  0.27682388  0.71633707  1
  O  O244  1  0.80162238  0.74195994  0.35215604  1
  O  O245  1  0.73578093  0.70195445  0.86995493  1
  O  O246  1  0.01408147  0.07633658  -0.02492935  1
  O  O247  1  -0.02060137  0.14461499  0.43210894  1
  O  O248  1  0.02093006  0.62664264  -0.01186218  1
  O  O249  1  0.07120279  0.65206889  0.58452398  1
  O  O250  1  0.51504141  0.16549493  -0.01516582  1
  O  O251  1  0.51623229  0.13258252  0.50664825  1
  O  O252  1  0.47682484  0.61142774  0.03729388  1
  O  O253  1  0.57488538  0.67871704  0.53425928  1
  O  O254  1  0.53166111  0.47109763  0.64658936  1
  O  O255  1  0.47542348  0.40329077  1.05616210  1
  O  O256  1  0.44789584  0.81086671  0.45243115  1
  O  O257  1  0.45787304  0.82628774  1.02455318  1
  O  O258  1  1.01697155  0.33635971  0.52010309  1
  O  O259  1  0.98358746  0.38557402  1.03522223  1
  O  O260  1  0.94241063  0.89866115  0.47360926  1
  O  O261  1  1.09509536  0.89956970  1.01282982  1
  O  O262  1  0.52824357  0.54715949  0.41247101  1
  O  O263  1  0.49902803  0.49261964  0.94052856  1
  O  O264  1  0.47233257  1.02083467  0.40299209  1
  O  O265  1  0.42397397  0.94074213  0.92708408  1
  O  O266  1  1.07539169  0.48897036  0.42885287  1
  O  O267  1  1.00457322  0.50397475  0.85138893  1
  O  O268  1  0.92237684  1.03853326  0.32393363  1
  O  O269  1  1.08720958  0.97218052  0.87012410  1
  O  O270  1  0.02856454  0.01374268  0.13597551  1
  O  O271  1  0.05238362  0.01274748  0.57953660  1
  O  O272  1  0.00645834  0.54317676  0.12032873  1
  O  O273  1  0.07237446  0.51096994  0.68596421  1
  O  O274  1  0.43072592  -0.04231122  0.15909871  1
  O  O275  1  0.46356243  0.01446536  0.59350965  1
  O  O276  1  0.49388505  0.51482445  0.14628451  1
  O  O277  1  0.57394761  0.52423268  0.62037977  1
  O  O278  1  0.22222562  0.39711310  0.23089951  1
  O  O279  1  0.29116618  0.32304394  0.72938593  1
  O  O280  1  0.27072978  0.87104382  0.23533135  1
  O  O281  1  0.25751943  0.87196585  0.77943879  1
  O  O282  1  0.73654058  0.40111704  0.24023312  1
  O  O283  1  0.80610306  0.37871824  0.74456503  1
  O  O284  1  0.74489846  0.88320356  0.23750210  1
  O  O285  1  0.70303227  0.83730944  0.74316218  1
  O  O286  1  0.30435648  0.18423442  0.24448788  1
  O  O287  1  0.30209441  0.13538619  0.75749682  1
  O  O288  1  0.26381111  0.55604064  0.26454957  1
  O  O289  1  0.18227285  0.57861022  0.75576733  1
  O  O290  1  0.75981508  0.14451916  0.19553097  1
  O  O291  1  0.71699853  0.11207004  0.78279821  1
  O  O292  1  0.70458314  0.59947737  0.18863562  1
  O  O293  1  0.77979239  0.60107324  0.76010090  1
  O  O294  1  0.36368067  0.12036931  0.43937993  1
  O  O295  1  0.40733438  0.08747493  0.88345353  1
  O  O296  1  0.41460001  0.62199534  0.42302955  1
  O  O297  1  0.28292685  0.66838473  0.79646070  1
  O  O298  1  0.79995697  0.14002006  0.37076807  1
  O  O299  1  0.89951142  0.12367353  0.88028532  1
  O  O300  1  1.01351144  0.51886638  0.41598372  1
  O  O301  1  0.88443795  0.60930781  0.86464110  1
  O  O302  1  0.13664991  0.35451694  0.10754355  1
  O  O303  1  0.21577863  0.38811711  0.62286411  1
  O  O304  1  0.06500418  0.87514191  0.16975265  1
  O  O305  1  0.07902512  0.95867252  0.61626509  1
  O  O306  1  0.61441836  0.28489777  0.09336550  1
  O  O307  1  0.67618227  0.41072891  0.56422518  1
  O  O308  1  0.60714124  0.85551579  0.15933838  1
  O  O309  1  0.63935348  0.85316503  0.61576710  1
  O  O310  1  0.06330754  0.32372672  0.34194598  1
  O  O311  1  0.11089807  0.24873205  0.73483781  1
  O  O312  1  0.16726001  0.68484796  0.27685655  1
  O  O313  1  0.10850811  0.74623349  0.73319819  1
  O  O314  1  0.62221097  0.13741189  0.25632283  1
  O  O315  1  0.62613490  0.32566359  0.71056434  1
  O  O316  1  0.66610021  0.75142663  0.26120059  1
  O  O317  1  0.57506967  0.74341402  0.72884827  1
  O  O318  1  0.37947486  0.34063926  0.26509852  1
  O  O319  1  0.41253164  0.26374891  0.82990469  1
  O  O320  1  0.38268056  0.75782455  0.32431341  1
  O  O321  1  0.37216315  0.77543201  0.69933757  1
  O  O322  1  0.83301804  0.27378632  0.14850117  1
  O  O323  1  0.88096049  0.20201132  0.73598826  1
  O  O324  1  0.87888927  0.79132736  0.19276256  1
  O  O325  1  0.86721035  0.73139939  0.75487871  1
  O  O326  1  0.40462013  0.53165244  0.52425561  1
  O  O327  1  0.38322238  0.51424665  1.02986017  1
  O  O328  1  0.34420338  0.99341139  0.49338430  1
  O  O329  1  0.33143005  1.05723933  1.01904416  1
  O  O330  1  0.93253574  0.45653240  0.57866580  1
  O  O331  1  0.90487071  0.49635683  0.97041889  1
  O  O332  1  0.85174794  1.04479964  0.47317610  1
  O  O333  1  0.95789387  0.93199278  0.94510561  1
  O  O334  1  0.14381653  0.04518876  0.00063068  1
  O  O335  1  0.11557975  0.03936889  0.43668218  1
  O  O336  1  0.11931838  0.51298317  -0.02318069  1
  O  O337  1  0.06235289  0.59047612  0.55133731  1
  O  O338  1  0.54498720  -0.00477277  0.00083634  1
  O  O339  1  0.63848740  -0.00652989  0.45214477  1
  O  O340  1  0.58870708  0.50765829  0.04100450  1
  O  O341  1  0.69477819  0.56608927  0.52372806  1
  O  O342  1  0.34704007  0.43545169  0.15153439  1
  O  O343  1  0.40455726  0.34750053  0.67460200  1
  O  O344  1  0.31797061  0.83406848  0.19757384  1
  O  O345  1  0.36038948  0.85665111  0.59630745  1
  O  O346  1  0.91591899  0.39161989  0.08143727  1
  O  O347  1  0.90496723  0.31085739  0.63766505  1
  O  O348  1  0.88721336  0.87051428  0.06798647  1
  O  O349  1  0.89554767  0.97275388  0.60269053  1
  O  O350  1  0.08398826  0.14098063  0.31512563  1
  O  O351  1  0.12283893  0.15581339  0.88548295  1
  O  O352  1  0.11906524  0.64681506  0.41969107  1
  O  O353  1  0.12247771  0.63065227  0.86690735  1
  O  O354  1  0.62416958  0.12748127  0.33847289  1
  O  O355  1  0.56988830  0.07526388  0.86279678  1
  O  O356  1  0.67804940  0.63744632  0.37523858  1
  O  O357  1  0.63925770  0.57397664  0.84636654  1
