# generated using pymatgen
data_V51Zn51O256
_symmetry_space_group_name_H-M   'P 1'
_cell_length_a   17.19704471
_cell_length_b   17.24504474
_cell_length_c   17.16385250
_cell_angle_alpha   90.21708970
_cell_angle_beta   89.40469197
_cell_angle_gamma   89.29534830
_symmetry_Int_Tables_number   1
_chemical_formula_structural   V51Zn51O256
_chemical_formula_sum   'V51 Zn51 O256'
_cell_volume   5089.47868912
_cell_formula_units_Z   1
loop_
 _symmetry_equiv_pos_site_id
 _symmetry_equiv_pos_as_xyz
  1  'x, y, z'
loop_
 _atom_site_type_symbol
 _atom_site_label
 _atom_site_symmetry_multiplicity
 _atom_site_fract_x
 _atom_site_fract_y
 _atom_site_fract_z
 _atom_site_occupancy
  V  V0  1  0.34458050  0.87921965  0.51338064  1
  V  V1  1  0.14815978  0.86515353  0.25543264  1
  V  V2  1  0.89324510  0.27499749  0.56825147  1
  V  V3  1  0.68509661  0.49353016  0.16978439  1
  V  V4  1  0.36377840  0.76240147  0.63238979  1
  V  V5  1  0.86886699  0.03618877  0.36109608  1
  V  V6  1  0.72246208  0.01604181  0.27280138  1
  V  V7  1  0.73828115  0.88652011  0.66321880  1
  V  V8  1  -0.04158643  0.92148799  0.45332931  1
  V  V9  1  0.76321347  0.62222936  0.36670533  1
  V  V10  1  -0.00126660  0.26809302  0.77085976  1
  V  V11  1  -0.00233574  -0.00588483  -0.00098861  1
  V  V12  1  0.68964851  0.30778419  0.19939253  1
  V  V13  1  0.64576449  0.61685525  0.52490216  1
  V  V14  1  0.75122053  0.85456071  0.16862589  1
  V  V15  1  0.63648747  -0.01884472  0.10508801  1
  V  V16  1  0.14989931  0.86136081  0.73209322  1
  V  V17  1  0.23814151  0.11058279  0.37643554  1
  V  V18  1  0.27813074  0.05787889  0.74477058  1
  V  V19  1  0.50841821  0.27870032  0.25414793  1
  V  V20  1  0.12466544  0.14898579  -0.00968824  1
  V  V21  1  0.37033217  0.39204085  0.47368032  1
  V  V22  1  0.84364276  0.89153757  0.01490334  1
  V  V23  1  -0.01388896  0.49950621  -0.03864020  1
  V  V24  1  0.77766238  0.37154825  0.65299386  1
  V  V25  1  0.89184868  0.50522666  0.36202337  1
  V  V26  1  0.47773844  0.09439889  0.12966599  1
  V  V27  1  0.01808720  0.15306653  0.56548456  1
  V  V28  1  0.01330434  0.37216397  0.37740747  1
  V  V29  1  0.11040382  0.37295073  0.23621029  1
  V  V30  1  0.23786989  0.62996412  0.87844638  1
  V  V31  1  0.37432643  0.61450764  0.74375131  1
  V  V32  1  0.12134898  0.51622339  0.60943647  1
  V  V33  1  0.73378109  0.12028292  0.85836039  1
  V  V34  1  0.15387947  0.73132635  0.39538022  1
  V  V35  1  0.11739275  0.50439308  0.10242922  1
  V  V36  1  0.00515022  0.62767071  0.13804666  1
  V  V37  1  0.37938042  -0.00083023  0.38016576  1
  V  V38  1  0.11620751  0.03802529  0.63346170  1
  V  V39  1  0.50058206  0.47120460  -0.01054056  1
  V  V40  1  0.62831097  0.74867660  0.90328459  1
  V  V41  1  0.52222443  -0.01371580  0.51205626  1
  V  V42  1  0.50765660  0.73863105  0.28032677  1
  V  V43  1  0.74881676  0.73553079  0.02467816  1
  V  V44  1  0.00503775  0.53522238  0.49034801  1
  V  V45  1  0.51395918  0.65964167  0.63117046  1
  V  V46  1  0.62046323  0.45124070  0.63885640  1
  V  V47  1  0.87696609  0.25979459  0.15571059  1
  V  V48  1  0.64050392  0.76006345  0.39835828  1
  V  V49  1  0.25337040  0.47030729  0.22115215  1
  V  V50  1  -0.00838759  0.13300049  0.11807773  1
  Zn  Zn51  1  0.55671190  0.55544683  0.80171281  1
  Zn  Zn52  1  0.07515241  0.35132186  0.56360558  1
  Zn  Zn53  1  0.12695379  0.86583779  0.53961329  1
  Zn  Zn54  1  0.70737038  0.68271654  0.69750427  1
  Zn  Zn55  1  0.45979371  0.70836115  0.46271956  1
  Zn  Zn56  1  0.05957981  0.57750365  0.80471996  1
  Zn  Zn57  1  0.84416566  0.08072346  0.53594479  1
  Zn  Zn58  1  0.18168361  0.47696635  0.40286295  1
  Zn  Zn59  1  0.13332326  0.16991156  0.20427723  1
  Zn  Zn60  1  0.52918382  0.94837979  0.26078374  1
  Zn  Zn61  1  0.02487394  0.83431469  0.09778211  1
  Zn  Zn62  1  0.93701211  0.44311432  0.18381340  1
  Zn  Zn63  1  0.95105490  0.44368362  0.67665521  1
  Zn  Zn64  1  0.79560682  0.51107162  0.51776618  1
  Zn  Zn65  1  0.50338509  0.30143614  0.60451387  1
  Zn  Zn66  1  0.40812334  0.41545992  0.67731090  1
  Zn  Zn67  1  0.93263632  0.68856041  1.01534044  1
  Zn  Zn68  1  0.14809522  0.15828925  0.78577601  1
  Zn  Zn69  1  0.80480025  0.81232927  0.84868636  1
  Zn  Zn70  1  0.70262321  0.95025497  0.45440333  1
  Zn  Zn71  1  0.83259785  0.55319143  0.06634233  1
  Zn  Zn72  1  0.95342984  0.13624279  0.90172297  1
  Zn  Zn73  1  0.53914761  0.04241771  0.82156941  1
  Zn  Zn74  1  0.08173405  0.56904548  0.29840321  1
  Zn  Zn75  1  0.04508532  0.32224892  0.04976140  1
  Zn  Zn76  1  0.51389142  0.26461565  1.01727930  1
  Zn  Zn77  1  0.57585676  0.55307456  0.34358518  1
  Zn  Zn78  1  0.92626333  0.97178300  0.63363432  1
  Zn  Zn79  1  0.82115096  0.80209305  0.35926027  1
  Zn  Zn80  1  0.88118875  0.98249579  0.15731181  1
  Zn  Zn81  1  0.40602534  0.20186452  0.39959075  1
  Zn  Zn82  1  0.69666042  0.43055927  0.35278090  1
  Zn  Zn83  1  0.43251869  0.38983245  0.16444817  1
  Zn  Zn84  1  0.34891594  0.55833756  0.58137940  1
  Zn  Zn85  1  0.57526212  0.80917995  0.56508841  1
  Zn  Zn86  1  0.32315055  0.08476883  0.00728200  1
  Zn  Zn87  1  0.61575644  0.28225426  0.88893896  1
  Zn  Zn88  1  0.78674400  0.09680352  0.06856183  1
  Zn  Zn89  1  0.18300859  0.66905524  0.69378738  1
  Zn  Zn90  1  0.72933384  0.19114240  0.66572367  1
  Zn  Zn91  1  0.30232773  0.79131747  0.80057394  1
  Zn  Zn92  1  0.28670636  0.51650006  0.01191017  1
  Zn  Zn93  1  0.34636679  0.23489679  0.72752310  1
  Zn  Zn94  1  0.65974413  0.67238966  0.19993173  1
  Zn  Zn95  1  0.14592367  0.98379590  0.41672716  1
  Zn  Zn96  1  0.05013606  0.04692602  0.29897401  1
  Zn  Zn97  1  0.13065684  1.00279264  0.86111369  1
  Zn  Zn98  1  0.44254248  0.95675472  0.67804777  1
  Zn  Zn99  1  0.32321416  0.81166192  0.32550341  1
  Zn  Zn100  1  0.26434324  0.04607818  0.54100886  1
  Zn  Zn101  1  0.58317546  0.78922274  0.10751800  1
  O  O102  1  0.10624562  0.13262245  0.10012874  1
  O  O103  1  0.11650774  0.13995431  0.60987609  1
  O  O104  1  0.11174286  0.60676877  0.11149400  1
  O  O105  1  0.18809106  0.61421216  0.58116570  1
  O  O106  1  0.68145671  0.07240599  0.09269884  1
  O  O107  1  0.68798298  0.13534274  0.56948009  1
  O  O108  1  0.64519979  0.57686492  0.13389444  1
  O  O109  1  0.62101027  0.65066352  0.63403812  1
  O  O110  1  0.40582522  0.42227035  0.38493574  1
  O  O111  1  0.34780216  0.33328564  0.82320776  1
  O  O112  1  0.36539819  0.88803211  0.40631004  1
  O  O113  1  0.37594439  0.87580104  0.87048247  1
  O  O114  1  0.90502185  0.40528719  0.37280968  1
  O  O115  1  0.74947798  0.46640748  0.91202518  1
  O  O116  1  0.90698722  0.85003780  0.40608623  1
  O  O117  1  0.84665775  0.88863596  0.91510452  1
  O  O118  1  0.26538677  0.00459078  0.37858141  1
  O  O119  1  0.24213798  0.01921951  0.82940980  1
  O  O120  1  0.24806923  0.51250373  0.31432668  1
  O  O121  1  0.26653561  0.52489326  0.89904004  1
  O  O122  1  0.76220079  0.00154252  0.37546935  1
  O  O123  1  0.74402349  0.01996920  0.86344521  1
  O  O124  1  0.77674420  0.50568851  0.39601374  1
  O  O125  1  0.73957056  0.49085078  0.84596237  1
  O  O126  1  0.22960594  0.49500724  0.10895049  1
  O  O127  1  0.23347694  0.54740562  0.59483279  1
  O  O128  1  0.25639638  0.91871451  0.07896881  1
  O  O129  1  0.23584218  1.03789143  0.65290103  1
  O  O130  1  0.78186740  0.49561421  0.14714420  1
  O  O131  1  0.75394391  0.46347764  0.60918149  1
  O  O132  1  0.73677164  0.96703945  0.17236315  1
  O  O133  1  0.70758143  0.97837209  0.68831794  1
  O  O134  1  0.00891592  0.39171221  0.26038709  1
  O  O135  1  -0.01550071  0.36539310  0.74933315  1
  O  O136  1  -0.04507144  0.79446655  0.24858811  1
  O  O137  1  -0.03335668  0.94652275  0.74677103  1
  O  O138  1  0.51669571  0.37827682  0.24850080  1
  O  O139  1  0.36977149  0.39943388  0.80224860  1
  O  O140  1  0.52072806  0.83910071  0.26056145  1
  O  O141  1  0.44716311  0.87527247  0.85839256  1
  O  O142  1  0.42030111  0.13027774  0.21633218  1
  O  O143  1  0.48306054  0.13508165  0.76785236  1
  O  O144  1  0.51448767  0.63436257  0.30899025  1
  O  O145  1  0.49563532  0.60927921  0.72063707  1
  O  O146  1  1.02196266  0.12064654  0.21837143  1
  O  O147  1  0.97039789  0.17412256  0.71305288  1
  O  O148  1  1.01382274  0.63643464  0.23539831  1
  O  O149  1  0.97955302  0.67145149  0.77492093  1
  O  O150  1  0.37393225  0.20568197  -0.02365030  1
  O  O151  1  0.34939906  0.29449937  0.45121842  1
  O  O152  1  0.31881509  0.76799552  0.02958607  1
  O  O153  1  0.38511110  0.77400545  0.52016072  1
  O  O154  1  0.85924279  0.34479611  -0.07195646  1
  O  O155  1  0.87168750  0.29270407  0.47925657  1
  O  O156  1  0.85128657  0.76497042  0.01291392  1
  O  O157  1  0.94297483  0.73240114  0.63766920  1
  O  O158  1  0.17721908  0.28037765  0.53109518  1
  O  O159  1  0.11610031  0.24652719  0.99038482  1
  O  O160  1  0.12233803  0.76495861  0.48566401  1
  O  O161  1  0.09344830  0.78858910  0.92556604  1
  O  O162  1  0.59250357  0.26506974  0.51867146  1
  O  O163  1  0.52590221  0.22382041  0.91212307  1
  O  O164  1  0.63348792  0.73062569  0.50609015  1
  O  O165  1  0.63068387  0.74465032  1.01177326  1
  O  O166  1  0.49674463  0.15056065  0.22878112  1
  O  O167  1  0.55843087  0.20460042  0.65138764  1
  O  O168  1  0.54746978  0.71271257  0.17911633  1
  O  O169  1  0.50327946  0.75872222  0.63938483  1
  O  O170  1  0.98509049  0.23943254  0.10851269  1
  O  O171  1  1.00677511  0.26441318  0.57849582  1
  O  O172  1  1.01154068  0.72570040  0.09494394  1
  O  O173  1  0.95046320  0.88363625  0.77828235  1
  O  O174  1  0.01571442  0.27869215  0.37955778  1
  O  O175  1  -0.02823748  0.23790722  0.86347187  1
  O  O176  1  -0.07489814  0.74230919  0.56953802  1
  O  O177  1  0.03343763  0.76877734  0.89398484  1
  O  O178  1  0.49015204  0.25185737  0.34991611  1
  O  O179  1  0.44244840  0.18841435  0.80044743  1
  O  O180  1  0.53136124  0.75984870  0.39517617  1
  O  O181  1  0.50295941  0.72220079  0.90829209  1
  O  O182  1  0.24180706  0.13726982  0.47211535  1
  O  O183  1  0.22237861  0.12163016  0.99668984  1
  O  O184  1  0.31187660  0.61330563  0.46614107  1
  O  O185  1  0.26198671  0.62180244  0.98247870  1
  O  O186  1  0.73531799  0.12188142  0.51190907  1
  O  O187  1  0.73213792  0.13667145  0.96202644  1
  O  O188  1  0.74314559  0.61520758  0.54122948  1
  O  O189  1  0.76035239  0.63923941  1.02436372  1
  O  O190  1  0.25490586  0.31764420  0.06505694  1
  O  O191  1  0.27449198  0.41910014  0.45094105  1
  O  O192  1  0.28935505  0.93707172  0.01778947  1
  O  O193  1  0.24898361  0.86858448  0.51883186  1
  O  O194  1  0.62004426  0.30096359  -0.00339769  1
  O  O195  1  0.64193655  0.30853795  0.48956878  1
  O  O196  1  0.74790152  0.86332417  0.03818543  1
  O  O197  1  0.74707519  0.90600402  0.56188656  1
  O  O198  1  0.13310719  0.49425726  0.22276619  1
  O  O199  1  0.11222915  0.57102578  0.70148573  1
  O  O200  1  0.12421470  0.95509656  0.29691828  1
  O  O201  1  0.11314933  1.05361992  0.73602667  1
  O  O202  1  0.66281705  0.50359264  0.26809843  1
  O  O203  1  0.62272126  0.50147987  0.72353782  1
  O  O204  1  0.62954841  0.98310518  0.29302289  1
  O  O205  1  0.52181962  0.95789496  0.75952482  1
  O  O206  1  0.41711755  -0.02117746  0.29117687  1
  O  O207  1  0.37200490  0.03122868  0.73337467  1
  O  O208  1  0.35162449  0.45725402  0.19934376  1
  O  O209  1  0.37174881  0.51990005  0.69052041  1
  O  O210  1  0.84584282  0.01525364  0.25859218  1
  O  O211  1  0.84088745  0.04333265  0.64081318  1
  O  O212  1  0.88811590  0.51171631  0.26444669  1
  O  O213  1  0.88339180  0.52868011  0.73882016  1
  O  O214  1  0.11872208  0.39743449  0.34983947  1
  O  O215  1  0.14920987  0.40742082  0.80692788  1
  O  O216  1  0.06286041  0.91339538  0.44866266  1
  O  O217  1  0.10733028  0.90262852  0.81381561  1
  O  O218  1  0.71895042  0.33941381  0.28829729  1
  O  O219  1  0.59592852  0.35247211  0.81453099  1
  O  O220  1  0.66503001  0.85430262  0.40953866  1
  O  O221  1  0.59955581  0.83490970  0.87888968  1
  O  O222  1  0.39695238  0.05947604  0.08244412  1
  O  O223  1  0.39618100  0.16273888  0.56787085  1
  O  O224  1  0.40409695  0.63696642  0.14797677  1
  O  O225  1  0.39675184  0.65323750  0.61854813  1
  O  O226  1  0.87858099  0.14732592  0.11164374  1
  O  O227  1  0.90771942  0.16527455  0.56500124  1
  O  O228  1  0.90286864  0.62542510  0.11711458  1
  O  O229  1  0.83827090  0.57601733  0.69842266  1
  O  O230  1  0.27492524  0.26712763  0.11107079  1
  O  O231  1  0.22004948  0.26137545  0.58622695  1
  O  O232  1  0.34353301  0.78102442  0.09488057  1
  O  O233  1  0.26899206  0.74609462  0.63023353  1
  O  O234  1  0.82677360  0.31326471  -0.01714810  1
  O  O235  1  0.79031602  0.26614414  0.61655579  1
  O  O236  1  0.73124832  0.75042800  0.13447314  1
  O  O237  1  0.74821414  0.77891385  0.65296617  1
  O  O238  1  0.24635140  0.20417011  0.31808309  1
  O  O239  1  0.32477303  0.24289369  0.93822858  1
  O  O240  1  0.25087930  0.74846306  0.38674621  1
  O  O241  1  0.26967910  0.72630384  0.88059191  1
  O  O242  1  0.65659088  0.19187834  0.38377867  1
  O  O243  1  0.70452703  0.22533305  0.85276279  1
  O  O244  1  0.75303725  0.72479635  0.40121354  1
  O  O245  1  0.73501498  0.75201597  0.91227602  1
  O  O246  1  0.00898647  0.11792469  0.00515258  1
  O  O247  1  0.03584112  0.13640758  0.47488562  1
  O  O248  1  -0.00116033  0.60295610  -0.01370008  1
  O  O249  1  0.01131772  0.62835558  0.50108370  1
  O  O250  1  0.51483307  0.16253823  0.07121173  1
  O  O251  1  0.44985510  0.18142246  0.52119326  1
  O  O252  1  0.49689121  0.57175554  -0.01903899  1
  O  O253  1  0.51636307  0.63152540  0.52956176  1
  O  O254  1  0.46057890  0.34679014  0.50425052  1
  O  O255  1  0.47685914  0.37444407  0.95112189  1
  O  O256  1  0.51372511  0.88714023  0.51616061  1
  O  O257  1  0.46226198  0.74178269  0.96590050  1
  O  O258  1  1.02353373  0.40058912  0.47726051  1
  O  O259  1  0.99798379  0.39925957  0.98618431  1
  O  O260  1  0.95462751  0.89956235  0.55173041  1
  O  O261  1  0.96369458  0.89381573  1.02403264  1
  O  O262  1  0.59532033  0.45812885  0.39581186  1
  O  O263  1  0.52973156  0.48610223  0.88763661  1
  O  O264  1  0.46943121  1.02190194  0.42754904  1
  O  O265  1  0.46909522  1.04066758  0.92079495  1
  O  O266  1  1.00056633  0.52480750  0.37695560  1
  O  O267  1  1.00093485  0.50342806  0.86112637  1
  O  O268  1  0.96826463  0.99606024  0.35724813  1
  O  O269  1  0.95424192  1.02082953  0.91327253  1
  O  O270  1  -0.02276883  0.02336616  0.10725861  1
  O  O271  1  0.01126325  0.04534270  0.60848176  1
  O  O272  1  0.00534006  0.51437144  0.12653077  1
  O  O273  1  0.01329161  0.50712673  0.60200516  1
  O  O274  1  0.54033113  0.00899368  0.15166412  1
  O  O275  1  0.49580313  0.02377841  0.60156586  1
  O  O276  1  0.48965856  0.46630407  0.09494177  1
  O  O277  1  0.52486966  0.41210018  0.63741464  1
  O  O278  1  0.22510380  0.37585403  0.23499670  1
  O  O279  1  0.21398515  0.42415420  0.78311698  1
  O  O280  1  0.24761671  0.85467087  0.25102222  1
  O  O281  1  0.24897853  0.87067197  0.74469714  1
  O  O282  1  0.76607153  0.25869691  0.14909112  1
  O  O283  1  0.79101872  0.37945673  0.74626348  1
  O  O284  1  0.76651199  0.83947449  0.26481167  1
  O  O285  1  0.74258526  0.86359270  0.76526837  1
  O  O286  1  0.23622978  0.14866271  0.25904723  1
  O  O287  1  0.26883968  0.16395328  0.75656771  1
  O  O288  1  0.35839086  0.61849367  0.19951912  1
  O  O289  1  0.26844772  0.62328229  0.76383990  1
  O  O290  1  0.71183520  0.10831563  0.25721456  1
  O  O291  1  0.75040832  0.12832688  0.75628605  1
  O  O292  1  0.75046483  0.62981693  0.27109573  1
  O  O293  1  0.77802252  0.60509944  0.74314003  1
  O  O294  1  0.35757851  0.10806715  0.37230719  1
  O  O295  1  0.39492736  0.04171682  0.91078127  1
  O  O296  1  0.36523317  0.63101346  0.41907317  1
  O  O297  1  0.39941304  0.59939503  0.83384313  1
  O  O298  1  0.86925750  0.12906524  0.37596928  1
  O  O299  1  0.83573120  0.13556728  0.86972274  1
  O  O300  1  0.86273137  0.61964422  0.37878064  1
  O  O301  1  0.92064496  0.69022690  0.81943889  1
  O  O302  1  0.09980529  0.38893172  0.12869040  1
  O  O303  1  0.13936133  0.42004097  0.62759365  1
  O  O304  1  0.10617679  0.86093485  0.16458853  1
  O  O305  1  0.11396356  0.91239983  0.64643346  1
  O  O306  1  0.66065756  0.39184930  0.14690014  1
  O  O307  1  0.66776969  0.35847001  0.64978708  1
  O  O308  1  0.64022451  0.87627350  0.14771747  1
  O  O309  1  0.63777220  0.86060916  0.64674195  1
  O  O310  1  0.11411273  0.27475298  0.23446301  1
  O  O311  1  0.09783991  0.25158182  0.75647014  1
  O  O312  1  0.11079402  0.79148254  0.31805856  1
  O  O313  1  0.12937228  0.76351969  0.72609525  1
  O  O314  1  0.60444575  0.25200567  0.20812785  1
  O  O315  1  0.61591363  0.21765872  0.69678267  1
  O  O316  1  0.63831975  0.73564966  0.29907637  1
  O  O317  1  0.63871393  0.70504229  0.79624140  1
  O  O318  1  0.41922743  0.27686551  0.20439104  1
  O  O319  1  0.41001336  0.30201944  0.67176897  1
  O  O320  1  0.40684476  0.74540235  0.28750832  1
  O  O321  1  0.38020491  0.73399776  0.73714289  1
  O  O322  1  0.89333831  0.24990981  0.24699081  1
  O  O323  1  0.91242877  0.22963610  0.70985011  1
  O  O324  1  0.90600792  0.74618874  0.26726366  1
  O  O325  1  0.87085796  0.74354869  0.78399056  1
  O  O326  1  0.40293911  0.48763170  0.50643743  1
  O  O327  1  0.39354600  0.47516977  0.99855689  1
  O  O328  1  0.35603909  0.98314487  0.51816015  1
  O  O329  1  0.45274283  0.89139418  1.01621980  1
  O  O330  1  0.90315682  0.51398889  0.48926734  1
  O  O331  1  0.88505962  0.50478509  0.97994307  1
  O  O332  1  0.87790241  0.99822305  0.46830488  1
  O  O333  1  0.83839917  0.99306777  1.03997417  1
  O  O334  1  0.09294000  -0.02059535  -0.02386165  1
  O  O335  1  0.15581350  0.00502262  0.53428485  1
  O  O336  1  0.10540475  0.49289543  0.00501473  1
  O  O337  1  0.11893343  0.51191085  0.49626874  1
  O  O338  1  0.61199535  -0.04168301  0.01643755  1
  O  O339  1  0.61801732  0.00853376  0.49645399  1
  O  O340  1  0.59384219  0.45291769  0.01840485  1
  O  O341  1  0.62033628  0.51839631  0.55340731  1
  O  O342  1  0.43765767  0.31705515  0.07686740  1
  O  O343  1  0.33534461  0.39462396  0.57633328  1
  O  O344  1  0.46860933  0.86125979  0.07941250  1
  O  O345  1  0.37794433  0.86982006  0.62873050  1
  O  O346  1  0.88901044  0.35744516  0.13323074  1
  O  O347  1  0.88416435  0.37434572  0.61426476  1
  O  O348  1  0.85289558  0.86974411  0.13953000  1
  O  O349  1  0.84042102  0.89549498  0.66545513  1
  O  O350  1  0.13728484  0.09046232  0.36460074  1
  O  O351  1  0.10927106  0.11741516  0.88811361  1
  O  O352  1  0.13450881  0.63474752  0.37335844  1
  O  O353  1  0.14066908  0.62981332  0.86433584  1
  O  O354  1  0.60577994  0.14846779  0.40630159  1
  O  O355  1  0.63071653  0.09943700  0.85149450  1
  O  O356  1  0.65556035  0.61201103  0.41573712  1
  O  O357  1  0.62211355  0.64168488  0.84926396  1
