# generated using pymatgen
data_V51Zn51O256
_symmetry_space_group_name_H-M   'P 1'
_cell_length_a   17.41569518
_cell_length_b   17.96688810
_cell_length_c   17.52688469
_cell_angle_alpha   92.30123091
_cell_angle_beta   89.42164870
_cell_angle_gamma   92.49203482
_symmetry_Int_Tables_number   1
_chemical_formula_structural   V51Zn51O256
_chemical_formula_sum   'V51 Zn51 O256'
_cell_volume   5474.46795193
_cell_formula_units_Z   1
loop_
 _symmetry_equiv_pos_site_id
 _symmetry_equiv_pos_as_xyz
  1  'x, y, z'
loop_
 _atom_site_type_symbol
 _atom_site_label
 _atom_site_symmetry_multiplicity
 _atom_site_fract_x
 _atom_site_fract_y
 _atom_site_fract_z
 _atom_site_occupancy
  V  V0  1  0.66975940  0.56733097  0.00985485  1
  V  V1  1  0.10691552  0.39690420  0.22816198  1
  V  V2  1  0.13167885  -0.05774950  0.04345222  1
  V  V3  1  0.87257018  0.72082082  0.64187896  1
  V  V4  1  0.26276863  0.51710313  0.23522401  1
  V  V5  1  0.87524854  0.69505696  0.11046968  1
  V  V6  1  0.15141319  0.55049736  0.60556652  1
  V  V7  1  0.14872894  0.04037457  0.59417885  1
  V  V8  1  0.73321520  0.39220268  0.61710005  1
  V  V9  1  0.74965248  -0.02534345  0.75832553  1
  V  V10  1  0.23590420  0.33372630  0.49782921  1
  V  V11  1  0.46101509  0.23376909  0.28450433  1
  V  V12  1  0.87476901  0.12551965  0.74963239  1
  V  V13  1  0.23856265  0.35360127  0.12806324  1
  V  V14  1  0.75638019  0.20893056  0.49827207  1
  V  V15  1  0.53345115  0.12032183  0.62228571  1
  V  V16  1  0.37862737  0.25746666  0.62140997  1
  V  V17  1  0.15954988  0.62466792  -0.01602763  1
  V  V18  1  0.62238262  0.19032183  0.34770468  1
  V  V19  1  0.24067019  0.13433248  0.88858254  1
  V  V20  1  0.36599722  0.03703241  0.84166136  1
  V  V21  1  0.56642870  0.23140467  0.75302623  1
  V  V22  1  0.35571853  0.36230700  -0.04247068  1
  V  V23  1  0.87749567  0.25424469  0.19659901  1
  V  V24  1  0.78299925  0.91203226  0.12295231  1
  V  V25  1  0.25742811  -0.04892613  0.28825124  1
  V  V26  1  0.87906960  0.95588796  -0.02685037  1
  V  V27  1  0.12017428  0.35342781  0.75666455  1
  V  V28  1  0.31467845  0.62962539  0.38935319  1
  V  V29  1  0.01299076  0.60750502  0.68719738  1
  V  V30  1  0.13336342  0.73649820  0.83763068  1
  V  V31  1  0.03995760  0.84221521  0.27840838  1
  V  V32  1  0.76064788  0.24208773  -0.01113859  1
  V  V33  1  0.41357462  0.49161452  0.35844987  1
  V  V34  1  0.25127980  0.90484664  0.66567700  1
  V  V35  1  0.57686802  0.88782546  0.79367792  1
  V  V36  1  0.63916305  0.95214700  0.60029842  1
  V  V37  1  0.63473791  0.10422648  -0.00530830  1
  V  V38  1  0.08698402  0.65480741  0.47223784  1
  V  V39  1  0.78042592  0.69007811  -0.02902976  1
  V  V40  1  0.35179882  0.24031782  0.09389992  1
  V  V41  1  0.01952079  0.42293520  0.41796844  1
  V  V42  1  0.50316138  0.13552011  0.09997448  1
  V  V43  1  0.71955181  0.66565826  0.35723322  1
  V  V44  1  -0.01747760  0.90287245  0.85577895  1
  V  V45  1  0.02533844  0.08479678  0.10567162  1
  V  V46  1  0.62776987  0.67915755  0.52387722  1
  V  V47  1  0.52656457  0.35108536  0.85996812  1
  V  V48  1  0.79899303  0.47653814  0.39453395  1
  V  V49  1  0.74580341  0.10808204  0.86619718  1
  V  V50  1  0.07824817  0.22144173  0.89952014  1
  Zn  Zn51  1  0.41217337  0.39146021  0.22482282  1
  Zn  Zn52  1  0.29190564  0.28041632  0.77138619  1
  Zn  Zn53  1  0.82123553  0.80206378  0.80924773  1
  Zn  Zn54  1  0.56606101  0.05648057  0.80965910  1
  Zn  Zn55  1  0.70822472  0.79440856  0.68146522  1
  Zn  Zn56  1  0.70522870  0.39297427  0.93233268  1
  Zn  Zn57  1  0.16138392  0.93293966  0.41126466  1
  Zn  Zn58  1  0.56472020  0.80807702  0.61930535  1
  Zn  Zn59  1  0.55864460  0.66010647  1.07605710  1
  Zn  Zn60  1  0.05984659  0.36843531  0.58219105  1
  Zn  Zn61  1  0.08899585  0.55889358  0.31825955  1
  Zn  Zn62  1  0.97017813  0.84179751  1.05990467  1
  Zn  Zn63  1  0.32988006  0.10057004  0.67112326  1
  Zn  Zn64  1  0.50433911  0.23796027  0.48669594  1
  Zn  Zn65  1  0.50702871  0.66473604  0.38307272  1
  Zn  Zn66  1  0.91246765  0.41498790  0.26400256  1
  Zn  Zn67  1  0.62336869  0.53086991  0.33149865  1
  Zn  Zn68  1  0.49184776  0.49821692  0.96264017  1
  Zn  Zn69  1  0.42313833  1.05316059  0.22111205  1
  Zn  Zn70  1  0.29289075  0.32417617  0.31753688  1
  Zn  Zn71  1  0.83725277  0.80347539  0.27793276  1
  Zn  Zn72  1  0.23193949  0.08969842  0.08656750  1
  Zn  Zn73  1  0.18934205  0.49153117  0.43019078  1
  Zn  Zn74  1  0.67543476  0.91936027  0.96617450  1
  Zn  Zn75  1  0.73494010  0.10966159  0.64648347  1
  Zn  Zn76  1  0.77184399  0.57914066  0.18727159  1
  Zn  Zn77  1  0.62900163  1.07784877  0.47968440  1
  Zn  Zn78  1  0.91077491  0.14342383  0.96116834  1
  Zn  Zn79  1  0.09794506  0.54233218  0.81732651  1
  Zn  Zn80  1  0.06462013  0.06618756  0.79094617  1
  Zn  Zn81  1  0.28677489  0.49669990  0.03335420  1
  Zn  Zn82  1  0.87953929  0.66258630  0.46365947  1
  Zn  Zn83  1  0.84406662  0.08472450  0.12071211  1
  Zn  Zn84  1  0.69250037  0.18268952  0.15334962  1
  Zn  Zn85  1  0.27835873  0.80533730  0.31430205  1
  Zn  Zn86  1  0.46344903  0.16106878  0.90766202  1
  Zn  Zn87  1  0.77029389  0.27821865  0.78208351  1
  Zn  Zn88  1  0.14263180  0.73999236  0.62250611  1
  Zn  Zn89  1  0.19762703  0.23635404  0.62269676  1
  Zn  Zn90  1  0.67860711  0.76630264  0.09680174  1
  Zn  Zn91  1  0.76865962  0.29480380  0.33337634  1
  Zn  Zn92  1  0.44536907  0.95378462  0.68366458  1
  Zn  Zn93  1  0.64472987  0.48305219  0.51330126  1
  Zn  Zn94  1  0.54592856  0.34396065  0.63613333  1
  Zn  Zn95  1  0.85764171  0.53949425  0.58124398  1
  Zn  Zn96  1  0.23687600  0.89893614  0.86921034  1
  Zn  Zn97  1  0.89376983  0.32998783  0.45623078  1
  Zn  Zn98  1  0.08017886  0.01267342  0.25743131  1
  Zn  Zn99  1  0.32068227  0.52605588  0.53081718  1
  Zn  Zn100  1  0.05520599  0.26235119  0.09177235  1
  Zn  Zn101  1  0.08974278  0.75329845  0.11821447  1
  O  O102  1  0.12766235  0.13185856  0.13181125  1
  O  O103  1  0.17514492  0.13236474  0.57363082  1
  O  O104  1  0.15016005  0.70407688  0.04316536  1
  O  O105  1  0.08788742  0.64058495  0.60442284  1
  O  O106  1  0.59933895  0.11711559  0.11872515  1
  O  O107  1  0.62282575  0.07586261  0.61750732  1
  O  O108  1  0.70154533  0.55523116  0.09968183  1
  O  O109  1  0.64210891  0.71791956  0.61631340  1
  O  O110  1  0.38568287  0.39453218  0.34016159  1
  O  O111  1  0.31773962  0.36120672  0.87113385  1
  O  O112  1  0.39710217  0.81218195  0.26519474  1
  O  O113  1  0.33838347  0.95344683  0.87923470  1
  O  O114  1  0.80629684  0.37881036  0.40001303  1
  O  O115  1  0.78404265  0.37641731  0.85020771  1
  O  O116  1  0.92948342  0.88665813  0.46113316  1
  O  O117  1  0.91737774  0.97963860  0.88204572  1
  O  O118  1  0.27119786  -0.09153511  0.37778779  1
  O  O119  1  0.25285779  0.05903140  0.82484932  1
  O  O120  1  0.26405146  0.54209229  0.36083279  1
  O  O121  1  0.32543493  0.51920188  0.80845888  1
  O  O122  1  0.94423598  0.00987493  0.55590014  1
  O  O123  1  0.72895727  0.00696480  0.85849887  1
  O  O124  1  0.69607818  0.48768624  0.41036526  1
  O  O125  1  0.80536779  0.44530362  0.80746236  1
  O  O126  1  0.25692026  0.47662605  0.14059344  1
  O  O127  1  0.25057704  0.55453241  0.61324569  1
  O  O128  1  0.19772856  0.98536655  0.10571557  1
  O  O129  1  0.24919557  1.02293211  0.62640895  1
  O  O130  1  0.83788396  0.48904689  0.30315756  1
  O  O131  1  0.76889514  0.48340853  0.62145340  1
  O  O132  1  0.76769611  1.00493320  0.13768659  1
  O  O133  1  0.72403866  0.99324397  0.65669323  1
  O  O134  1  0.01679743  0.43384398  0.22283965  1
  O  O135  1  0.04952445  0.34909901  0.68923031  1
  O  O136  1  -0.05674906  0.82477073  0.30018741  1
  O  O137  1  -0.07629669  0.84811098  0.79770817  1
  O  O138  1  0.49055793  0.31198426  0.24091930  1
  O  O139  1  0.54334889  0.33867042  0.75433957  1
  O  O140  1  0.60638689  0.86342612  0.28322006  1
  O  O141  1  0.48214377  0.90362623  0.78051556  1
  O  O142  1  0.47844255  0.15330992  0.22568792  1
  O  O143  1  0.54024175  0.13029221  0.73378035  1
  O  O144  1  0.51163617  0.52881687  0.17418384  1
  O  O145  1  0.50668341  0.63943237  0.74179841  1
  O  O146  1  1.08188049  0.10961879  0.19870981  1
  O  O147  1  0.96991439  0.10852045  0.75781960  1
  O  O148  1  1.00106897  0.60406401  0.24316831  1
  O  O149  1  1.00096717  0.59269152  0.78262290  1
  O  O150  1  0.34172626  0.26242995  -0.00058479  1
  O  O151  1  0.45909172  0.30175508  0.56572974  1
  O  O152  1  0.43195314  0.76848689  0.00141957  1
  O  O153  1  0.38322702  0.74919320  0.59154912  1
  O  O154  1  0.85065827  0.21911959  0.01508736  1
  O  O155  1  0.85105865  0.23004057  0.47410272  1
  O  O156  1  0.87354605  0.67244710  -0.01007319  1
  O  O157  1  0.84328000  0.64953581  0.57274867  1
  O  O158  1  0.15049249  0.30458902  0.54808195  1
  O  O159  1  0.10146095  0.25389558  0.99042125  1
  O  O160  1  0.12640426  0.73801309  0.50667437  1
  O  O161  1  -0.10442019  0.52079655  0.95830353  1
  O  O162  1  0.54166933  0.36240907  0.43704218  1
  O  O163  1  0.67812757  0.20887472  1.04522932  1
  O  O164  1  0.55378861  0.76550285  0.50634190  1
  O  O165  1  0.66919503  0.67797871  1.01093601  1
  O  O166  1  0.45298048  0.22345574  0.09918650  1
  O  O167  1  0.56092014  0.23320811  0.64994095  1
  O  O168  1  0.58274864  0.73712316  0.14194897  1
  O  O169  1  0.43146411  0.76383265  0.64172868  1
  O  O170  1  0.97337231  0.24613188  0.16761449  1
  O  O171  1  0.97515895  0.16494110  0.58916713  1
  O  O172  1  0.96876256  0.74060307  0.09448188  1
  O  O173  1  0.96120696  0.69469128  0.68355741  1
  O  O174  1  -0.04143964  0.36717629  0.35821603  1
  O  O175  1  -0.01584972  0.19878134  0.89846762  1
  O  O176  1  -0.12807063  0.77584643  0.43318169  1
  O  O177  1  0.04072017  0.75424701  0.89161969  1
  O  O178  1  0.52417530  0.22552741  0.37149620  1
  O  O179  1  0.50146043  0.23658963  0.83860216  1
  O  O180  1  0.45111211  0.76701516  0.28133700  1
  O  O181  1  0.54133011  0.70847565  0.88670151  1
  O  O182  1  0.32493564  0.09297394  0.44517211  1
  O  O183  1  0.21823609  0.11722338  0.98268884  1
  O  O184  1  0.31552785  0.63075192  0.48531053  1
  O  O185  1  0.24841289  0.58394706  0.99557678  1
  O  O186  1  0.73789134  0.11721989  0.47235958  1
  O  O187  1  0.73822518  0.10449881  0.97665388  1
  O  O188  1  0.70240840  0.70596304  0.46569776  1
  O  O189  1  0.75104100  0.59278132  0.94580295  1
  O  O190  1  0.26878572  0.38308179  0.02961350  1
  O  O191  1  0.25739027  0.42972036  0.49696919  1
  O  O192  1  0.31458229  0.85996390  0.07422228  1
  O  O193  1  0.40294513  0.86436461  0.48871399  1
  O  O194  1  0.76036432  0.33641239  0.00249241  1
  O  O195  1  0.74144982  0.32742925  0.52402018  1
  O  O196  1  0.78956073  0.92191408  -0.04747432  1
  O  O197  1  0.63919116  0.97467114  0.50642788  1
  O  O198  1  0.15700695  0.49005658  0.26633744  1
  O  O199  1  0.14037661  0.44175313  0.79154220  1
  O  O200  1  0.04314415  0.91779006  0.21907750  1
  O  O201  1  0.11914844  1.07215415  0.68777456  1
  O  O202  1  0.63867905  0.44769664  0.24516867  1
  O  O203  1  0.63025127  0.53269755  0.73459514  1
  O  O204  1  0.83126347  0.96955757  0.38061678  1
  O  O205  1  0.62129697  0.97273689  0.76176335  1
  O  O206  1  0.33254976  0.00846469  0.25950828  1
  O  O207  1  0.37672401  0.03557193  0.74010434  1
  O  O208  1  0.36374314  0.49697858  0.25453125  1
  O  O209  1  0.39263574  0.54047188  0.79986562  1
  O  O210  1  0.91129411  0.11236280  0.38101921  1
  O  O211  1  0.84117313  0.00487768  0.75298788  1
  O  O212  1  0.96812190  0.65563869  0.27703799  1
  O  O213  1  0.86364687  0.44007687  0.76626533  1
  O  O214  1  0.11659327  0.40725480  0.41664988  1
  O  O215  1  0.09104222  0.29574594  0.83424178  1
  O  O216  1  0.08823433  0.86558876  0.36409350  1
  O  O217  1  0.06327147  0.82353144  0.86104255  1
  O  O218  1  0.53526071  0.42258185  0.47520021  1
  O  O219  1  0.61077717  0.33709677  0.90075351  1
  O  O220  1  0.60187653  0.86579293  0.35292819  1
  O  O221  1  0.60480632  0.87828724  0.88760246  1
  O  O222  1  0.31843982  0.15249117  0.12051736  1
  O  O223  1  0.41728550  0.16861887  0.61973351  1
  O  O224  1  0.38770448  0.67386676  0.11986036  1
  O  O225  1  0.35612323  0.65131699  0.71304843  1
  O  O226  1  0.94640612  0.05863324  0.15858772  1
  O  O227  1  0.84973894  0.10794547  0.65510775  1
  O  O228  1  0.86401366  0.59990867  0.12801079  1
  O  O229  1  0.95518970  0.54328729  0.63844920  1
  O  O230  1  0.23415400  0.26114522  0.10846493  1
  O  O231  1  0.30446962  0.28497047  0.55053191  1
  O  O232  1  0.33286605  0.71229404  0.10805409  1
  O  O233  1  0.21451579  0.82332055  0.62398848  1
  O  O234  1  0.80669182  0.18144294  0.15778368  1
  O  O235  1  0.73947740  0.20467286  0.59484382  1
  O  O236  1  0.78611268  0.73749255  0.07295259  1
  O  O237  1  0.67873434  0.86512594  0.59841513  1
  O  O238  1  0.23572964  0.29699945  0.40740302  1
  O  O239  1  0.24998786  0.22207910  0.85222774  1
  O  O240  1  0.28687333  0.71311678  0.35745455  1
  O  O241  1  0.21264156  0.78718428  0.86691328  1
  O  O242  1  0.69191334  0.24123649  0.40701462  1
  O  O243  1  0.74755558  0.22112770  0.88919625  1
  O  O244  1  0.74563700  0.74904739  0.32089692  1
  O  O245  1  0.78170144  0.75008331  0.89683587  1
  O  O246  1  -0.00058813  0.15222424  0.04815561  1
  O  O247  1  0.06164825  0.17893737  0.45499878  1
  O  O248  1  -0.10732916  0.54601771  -0.10505695  1
  O  O249  1  -0.01232198  0.65210639  0.47569056  1
  O  O250  1  0.52572386  0.13907556  -0.00141710  1
  O  O251  1  0.54671486  0.14772142  0.51978774  1
  O  O252  1  0.55611876  0.57437345  0.01298705  1
  O  O253  1  0.51922998  0.69026054  0.50061480  1
  O  O254  1  0.46493312  0.46259851  0.65198605  1
  O  O255  1  0.45187839  0.33626223  0.93775068  1
  O  O256  1  0.50881376  0.98529776  0.33259452  1
  O  O257  1  0.45743190  0.82093248  0.96449099  1
  O  O258  1  0.98118237  0.38978407  0.50889293  1
  O  O259  1  0.96503646  0.42555314  1.05207803  1
  O  O260  1  0.93566410  0.81707691  0.45622376  1
  O  O261  1  0.95976600  0.88419660  0.95961954  1
  O  O262  1  0.50990868  0.49673021  0.34069890  1
  O  O263  1  0.51585370  0.44705929  0.86668148  1
  O  O264  1  0.50774300  0.98226128  0.25553928  1
  O  O265  1  0.46750548  1.05271538  0.86315909  1
  O  O266  1  1.01236351  0.51234487  0.38959489  1
  O  O267  1  1.03771964  0.47886434  0.90415876  1
  O  O268  1  0.99618581  1.03048463  0.33812693  1
  O  O269  1  1.05084032  0.96032557  0.81426446  1
  O  O270  1  0.05451362  0.00776031  0.04427541  1
  O  O271  1  0.05471995  0.04552656  0.56394657  1
  O  O272  1  -0.03260136  0.48427803  0.08914761  1
  O  O273  1  0.11343492  0.56235507  0.70371519  1
  O  O274  1  0.44834305  0.05606765  0.10914112  1
  O  O275  1  0.47416172  0.04351376  0.61822442  1
  O  O276  1  0.50120009  0.46107794  0.15726025  1
  O  O277  1  0.49966642  0.60800504  0.67877418  1
  O  O278  1  0.23818508  0.36962156  0.23334002  1
  O  O279  1  0.20132115  0.31402638  0.71241579  1
  O  O280  1  0.24817507  0.86932741  0.23255215  1
  O  O281  1  0.22875568  0.90598103  0.75901826  1
  O  O282  1  0.71364901  0.34940279  0.24979373  1
  O  O283  1  0.73909008  0.34988576  0.69973480  1
  O  O284  1  0.78674140  0.87193598  0.20860585  1
  O  O285  1  0.75023130  0.87731563  0.76461991  1
  O  O286  1  0.17477433  0.00217524  0.31150477  1
  O  O287  1  0.28707853  0.19869407  0.67354853  1
  O  O288  1  0.26373170  0.60584127  0.22082488  1
  O  O289  1  0.29562082  0.68221934  0.72342824  1
  O  O290  1  0.78905116  0.00121605  0.33797943  1
  O  O291  1  0.73519352  0.11111963  0.76551451  1
  O  O292  1  0.70947242  0.59886695  0.27383324  1
  O  O293  1  0.66853802  0.59114485  0.74411192  1
  O  O294  1  0.34881397  0.03903775  0.47798261  1
  O  O295  1  0.35247339  0.12483811  0.90127174  1
  O  O296  1  0.41013920  0.61017519  0.35570537  1
  O  O297  1  0.38198354  0.69109631  0.86936579  1
  O  O298  1  0.95607437  0.09366276  0.32724533  1
  O  O299  1  0.84670022  0.11197892  0.86441996  1
  O  O300  1  0.80224486  0.62710677  0.39055034  1
  O  O301  1  0.99610989  0.42429117  0.86482011  1
  O  O302  1  0.12768542  0.35684638  0.12964733  1
  O  O303  1  0.12075021  0.46162834  0.58876701  1
  O  O304  1  0.08717764  0.85826635  0.07263468  1
  O  O305  1  0.13253960  0.94799233  0.63210591  1
  O  O306  1  0.65111598  0.38388482  0.27814002  1
  O  O307  1  0.63110625  0.40716873  0.59525278  1
  O  O308  1  0.70198383  0.87174087  0.06954830  1
  O  O309  1  0.54248879  0.91773219  0.62349530  1
  O  O310  1  0.09593714  0.32666980  0.28272616  1
  O  O311  1  0.01989974  0.20394751  0.62890940  1
  O  O312  1  0.07983564  0.76780014  0.22581844  1
  O  O313  1  0.12819746  0.72955902  0.74092939  1
  O  O314  1  0.65063756  0.20270507  0.25595041  1
  O  O315  1  0.65908011  0.23804876  0.77367499  1
  O  O316  1  0.47274530  0.76838139  0.35600817  1
  O  O317  1  0.59911367  0.81057269  0.73255591  1
  O  O318  1  0.36620604  0.23955673  0.30483848  1
  O  O319  1  0.38372202  0.30855302  0.70526400  1
  O  O320  1  0.46208766  0.86769199  0.13105422  1
  O  O321  1  0.39812889  0.74969051  0.83805748  1
  O  O322  1  0.85880513  0.24552529  0.29355786  1
  O  O323  1  0.85982950  0.22027279  0.76039701  1
  O  O324  1  0.85437173  0.72552477  0.20024700  1
  O  O325  1  0.79804534  0.73933309  0.71243467  1
  O  O326  1  0.39935816  0.49945502  0.45589270  1
  O  O327  1  0.38824923  0.46097016  0.98633569  1
  O  O328  1  0.43919784  0.90840039  0.44937444  1
  O  O329  1  0.34702093  0.91140626  1.04113385  1
  O  O330  1  0.85357298  0.50943495  0.47068994  1
  O  O331  1  0.95196882  0.38281493  0.90451168  1
  O  O332  1  0.94412428  1.04414794  0.49786232  1
  O  O333  1  0.87948901  1.04742728  1.01375587  1
  O  O334  1  0.17250338  -0.06978721  -0.04428253  1
  O  O335  1  0.16842519  0.00007935  0.50115355  1
  O  O336  1  0.09135800  0.56443290  0.00689969  1
  O  O337  1  0.14588002  0.57110486  0.49701506  1
  O  O338  1  0.62419053  0.01162771  0.00642499  1
  O  O339  1  0.46630632  0.03386541  0.36571722  1
  O  O340  1  0.65705955  0.48009464  -0.03325605  1
  O  O341  1  0.62408616  0.58436264  0.53526234  1
  O  O342  1  0.35393292  0.33187566  0.14657116  1
  O  O343  1  0.39535230  0.46679426  0.63912084  1
  O  O344  1  0.52777260  0.85595708  0.14914628  1
  O  O345  1  0.34790183  0.90496579  0.65026070  1
  O  O346  1  0.85873544  0.34600091  0.18556745  1
  O  O347  1  0.81400516  0.35448389  0.55508772  1
  O  O348  1  0.87667086  0.90571259  0.07704282  1
  O  O349  1  0.89039122  0.79723977  0.59720908  1
  O  O350  1  0.08825690  0.12681051  0.41749979  1
  O  O351  1  0.12203873  0.13610644  0.86395051  1
  O  O352  1  0.11217401  0.64939389  0.37528841  1
  O  O353  1  0.14320019  0.64000259  0.87590352  1
  O  O354  1  0.61974768  0.10017426  0.36778773  1
  O  O355  1  0.62671868  0.11363145  0.89236771  1
  O  O356  1  0.61123054  0.63606392  0.37288793  1
  O  O357  1  0.59908657  0.68399867  0.85605351  1
