# generated using pymatgen
data_V51Zn51O256
_symmetry_space_group_name_H-M   'P 1'
_cell_length_a   18.33579980
_cell_length_b   17.77811093
_cell_length_c   17.89654990
_cell_angle_alpha   92.76334650
_cell_angle_beta   88.46702117
_cell_angle_gamma   89.47491726
_symmetry_Int_Tables_number   1
_chemical_formula_structural   V51Zn51O256
_chemical_formula_sum   'V51 Zn51 O256'
_cell_volume   5824.65513695
_cell_formula_units_Z   1
loop_
 _symmetry_equiv_pos_site_id
 _symmetry_equiv_pos_as_xyz
  1  'x, y, z'
loop_
 _atom_site_type_symbol
 _atom_site_label
 _atom_site_symmetry_multiplicity
 _atom_site_fract_x
 _atom_site_fract_y
 _atom_site_fract_z
 _atom_site_occupancy
  V  V0  1  0.59489188  0.29601347  0.28424537  1
  V  V1  1  0.04296360  0.48808778  0.51229911  1
  V  V2  1  0.01327828  0.40419298  0.37226779  1
  V  V3  1  0.77121553  0.38900619  0.11765937  1
  V  V4  1  0.92811200  0.22415645  0.13117565  1
  V  V5  1  -0.00200054  0.36246637  0.85476491  1
  V  V6  1  0.64915906  0.75302162  0.91761997  1
  V  V7  1  0.47450847  0.05120108  0.60987454  1
  V  V8  1  0.62185613  -0.01179182  0.56499857  1
  V  V9  1  0.62506189  0.46311394  0.21993748  1
  V  V10  1  0.87463023  0.23194146  0.53261566  1
  V  V11  1  0.62536569  0.76191270  0.33040334  1
  V  V12  1  0.23017845  0.10050969  0.42206028  1
  V  V13  1  0.41867774  0.41681809  0.03360872  1
  V  V14  1  0.71518680  0.49185681  0.70342704  1
  V  V15  1  0.87174959  0.89958622  0.47653578  1
  V  V16  1  0.71993940  0.30293974  -0.02942442  1
  V  V17  1  0.22595309  0.24455004  0.55427989  1
  V  V18  1  0.36425681  -0.02042362  0.86857726  1
  V  V19  1  0.86570292  0.75958089  0.61273123  1
  V  V20  1  0.45075660  0.65035657  0.83475676  1
  V  V21  1  -0.02008708  0.01812922  -0.06670798  1
  V  V22  1  0.60593272  0.65328931  0.47866610  1
  V  V23  1  0.29022758  0.27191797  0.02247884  1
  V  V24  1  0.83621988  0.57402702  0.74436592  1
  V  V25  1  0.42135606  0.79108499  0.10251292  1
  V  V26  1  0.86638939  0.59303940  0.28207283  1
  V  V27  1  0.04461476  0.08335723  0.17353512  1
  V  V28  1  0.83301761  0.44919415  0.40925770  1
  V  V29  1  0.16811057  0.82414150  0.17338630  1
  V  V30  1  0.45018490  0.24145364  0.21565776  1
  V  V31  1  0.01523770  0.84158659  0.36934719  1
  V  V32  1  0.13218315  0.25861542  0.36684967  1
  V  V33  1  0.35916612  0.49211387  0.76463389  1
  V  V34  1  0.46464024  0.30775881  0.39892712  1
  V  V35  1  0.23785345  0.04739826  0.19865251  1
  V  V36  1  0.56410258  0.77167401  0.75550587  1
  V  V37  1  0.66053013  0.61343439  0.01965652  1
  V  V38  1  0.51987422  0.58169901  0.21840294  1
  V  V39  1  0.34882399  0.45113921  0.39617591  1
  V  V40  1  0.64652372  0.95408730  0.79202919  1
  V  V41  1  0.76101870  0.92791415  0.62833507  1
  V  V42  1  0.53991265  0.48008138  0.46090360  1
  V  V43  1  0.52452913  0.55487253  0.62369389  1
  V  V44  1  0.91687630  0.85848732  0.00014459  1
  V  V45  1  0.10838126  0.14263517  -0.04296999  1
  V  V46  1  0.83834264  0.18674311  0.77881814  1
  V  V47  1  0.66086027  0.32989364  0.60690401  1
  V  V48  1  -0.02134612  0.60665935  0.60875382  1
  V  V49  1  0.34860642  0.34381881  0.52795648  1
  V  V50  1  0.50456911  0.22919886  0.75865754  1
  Zn  Zn51  1  0.04107166  0.28670639  0.51936729  1
  Zn  Zn52  1  0.70056717  0.64804389  0.19260709  1
  Zn  Zn53  1  0.36488701  0.52133349  0.58782815  1
  Zn  Zn54  1  0.93370679  0.36482637  0.20169738  1
  Zn  Zn55  1  0.09391384  0.06393321  0.33456908  1
  Zn  Zn56  1  0.88692069  1.08184372  0.63937139  1
  Zn  Zn57  1  0.99866570  0.88121067  0.18875663  1
  Zn  Zn58  1  -0.00170547  0.78629385  0.51798777  1
  Zn  Zn59  1  0.97347866  0.14951332  0.41624916  1
  Zn  Zn60  1  0.77609408  0.88793949  0.90891275  1
  Zn  Zn61  1  0.67037788  0.34275922  0.42319524  1
  Zn  Zn62  1  0.72054881  0.67384377  0.67384260  1
  Zn  Zn63  1  0.47598921  0.90862668  0.70754309  1
  Zn  Zn64  1  0.40104119  0.39375877  0.22756046  1
  Zn  Zn65  1  0.18747427  0.39533033  0.45610102  1
  Zn  Zn66  1  0.77316576  0.25590508  0.24002451  1
  Zn  Zn67  1  0.05239001  0.31537564  0.01924398  1
  Zn  Zn68  1  0.79680405  0.61544354  0.50356253  1
  Zn  Zn69  1  0.32988365  0.89003741  0.22051027  1
  Zn  Zn70  1  0.35927529  0.18459999  0.86857538  1
  Zn  Zn71  1  0.42783640  0.35613528  0.83821302  1
  Zn  Zn72  1  0.18826980  0.21212174  0.18228811  1
  Zn  Zn73  1  0.81933473  0.74941523  0.38054232  1
  Zn  Zn74  1  0.30530928  0.72053378  0.19252286  1
  Zn  Zn75  1  0.27926700  0.09219260  0.01472522  1
  Zn  Zn76  1  0.85086947  0.15736822  -0.03516493  1
  Zn  Zn77  1  0.47836128  0.30729469  0.60500270  1
  Zn  Zn78  1  -0.00631558  0.15372784  0.81001825  1
  Zn  Zn79  1  0.48045466  0.59392337  1.02072050  1
  Zn  Zn80  1  0.46698238  0.75729197  0.26724030  1
  Zn  Zn81  1  0.27809059  0.35802647  0.86981285  1
  Zn  Zn82  1  0.17916343  0.98134025  0.91693481  1
  Zn  Zn83  1  0.56628180  0.75629225  0.07480532  1
  Zn  Zn84  1  0.18225781  0.93180680  0.32815827  1
  Zn  Zn85  1  -0.03736054  0.64710132  0.42002390  1
  Zn  Zn86  1  0.68382609  0.17246367  0.71595643  1
  Zn  Zn87  1  0.37093647  0.54308919  0.13348293  1
  Zn  Zn88  1  0.50417650  0.07592911  0.79499499  1
  Zn  Zn89  1  0.70662807  0.92376837  0.43671967  1
  Zn  Zn90  1  0.07459653  0.92649149  0.05480950  1
  Zn  Zn91  1  0.46413481  0.80518745  0.91354640  1
  Zn  Zn92  1  0.38936919  0.15769968  0.46886572  1
  Zn  Zn93  1  0.81395579  0.42561526  0.57732997  1
  Zn  Zn94  1  0.72425877  0.33585363  0.77779935  1
  Zn  Zn95  1  0.79137519  0.06402718  0.50574595  1
  Zn  Zn96  1  0.56573787  0.32195065  0.09644720  1
  Zn  Zn97  1  0.82527965  0.76526949  0.79377454  1
  Zn  Zn98  1  0.33798848  0.27089846  0.70096926  1
  Zn  Zn99  1  0.58973458  0.80498717  0.60160959  1
  Zn  Zn100  1  0.55193768  0.41494763  0.73231559  1
  Zn  Zn101  1  0.35157833  0.10704026  0.28475986  1
  O  O102  1  0.12805660  0.12155413  0.15096942  1
  O  O103  1  0.24469123  0.04434411  0.69632644  1
  O  O104  1  0.07181541  0.52984796  0.08737624  1
  O  O105  1  0.04175236  0.64224088  0.66128788  1
  O  O106  1  0.63189493  0.13534185  0.10239782  1
  O  O107  1  0.56995837  0.07231135  0.59554744  1
  O  O108  1  0.61808447  0.57392804  0.20264211  1
  O  O109  1  0.57519903  0.62257968  0.58067386  1
  O  O110  1  0.36782166  0.34658477  0.40273796  1
  O  O111  1  0.41439875  0.39663183  0.93622981  1
  O  O112  1  0.32826520  0.88546572  0.43068059  1
  O  O113  1  0.39609013  0.89102371  0.89761696  1
  O  O114  1  0.91318351  0.39508219  0.39922555  1
  O  O115  1  0.90824246  0.38213804  0.83831401  1
  O  O116  1  0.84339234  0.85698625  0.39397925  1
  O  O117  1  0.84480096  0.85965948  0.83000456  1
  O  O118  1  0.21203356  0.00619194  0.40986902  1
  O  O119  1  0.27251432  -0.04784918  0.86048951  1
  O  O120  1  0.25684335  0.44966850  0.39559905  1
  O  O121  1  0.12748910  0.57649524  0.78953256  1
  O  O122  1  0.69290617  0.04326965  0.22582199  1
  O  O123  1  0.65361675  0.10958936  0.93742836  1
  O  O124  1  0.76617795  0.38517533  0.40494430  1
  O  O125  1  0.74499455  0.53802201  0.78491505  1
  O  O126  1  0.31115450  0.60772604  0.19956879  1
  O  O127  1  0.31636940  0.49776725  0.68151344  1
  O  O128  1  0.25085546  1.03931600  0.10315453  1
  O  O129  1  0.14032513  0.94037271  0.63127218  1
  O  O130  1  0.70042665  0.45574798  0.15094673  1
  O  O131  1  0.70601888  0.41628974  0.60508743  1
  O  O132  1  0.67994440  1.09012969  0.08189943  1
  O  O133  1  0.71021318  1.02378809  0.57286995  1
  O  O134  1  -0.00124006  0.39201045  0.27789633  1
  O  O135  1  0.05020642  0.37053096  0.77423774  1
  O  O136  1  0.08152531  0.81074063  0.20620126  1
  O  O137  1  0.02396834  0.86400498  0.74496674  1
  O  O138  1  0.47887667  0.31984585  0.28882531  1
  O  O139  1  0.52386634  0.31994383  0.79449795  1
  O  O140  1  0.51257448  0.98477891  0.31824864  1
  O  O141  1  0.57541686  0.88594935  0.77239673  1
  O  O142  1  0.43095540  0.14796827  0.23298846  1
  O  O143  1  0.45188604  0.07774369  0.70014503  1
  O  O144  1  0.48692050  0.64722008  0.28275844  1
  O  O145  1  0.52161036  0.68186806  0.76732727  1
  O  O146  1  1.02368558  0.10443431  0.26456679  1
  O  O147  1  1.05642306  0.11478863  0.70704980  1
  O  O148  1  0.95082942  0.61386061  0.31581901  1
  O  O149  1  0.89663613  0.59274871  0.66089749  1
  O  O150  1  0.32324959  0.18430332  -0.02577035  1
  O  O151  1  0.32982240  0.24250430  0.51100224  1
  O  O152  1  0.47190483  0.79276307  0.01642891  1
  O  O153  1  0.18705506  0.77188845  0.62970143  1
  O  O154  1  0.87313352  0.21367777  0.05856518  1
  O  O155  1  0.88846797  0.21127946  0.43721258  1
  O  O156  1  0.92684262  0.77161141  -0.03375646  1
  O  O157  1  0.89964217  0.83716023  0.55335627  1
  O  O158  1  0.13417820  0.26203909  0.56296507  1
  O  O159  1  0.10974303  0.22352151  1.01311641  1
  O  O160  1  0.09079304  0.81379080  0.56703661  1
  O  O161  1  0.19190521  0.67170231  0.92106762  1
  O  O162  1  0.61433365  0.14774468  0.43663295  1
  O  O163  1  0.63992538  0.29784469  1.02277120  1
  O  O164  1  0.59119427  0.74611827  0.51236800  1
  O  O165  1  0.64025156  0.79289250  1.00672465  1
  O  O166  1  0.49369512  0.25009100  0.13045021  1
  O  O167  1  0.44556567  0.23726922  0.68265060  1
  O  O168  1  0.50036602  0.77835582  0.15995680  1
  O  O169  1  0.50774885  0.80197214  0.68209948  1
  O  O170  1  0.98761375  0.29847761  0.11360675  1
  O  O171  1  0.96053700  0.23682237  0.56709902  1
  O  O172  1  1.08444989  0.67480599  0.02577336  1
  O  O173  1  0.94239902  0.70221263  0.56877025  1
  O  O174  1  0.04790258  0.23565307  0.41324471  1
  O  O175  1  -0.01295649  0.26884958  0.80933960  1
  O  O176  1  0.01207042  0.74902259  0.40890105  1
  O  O177  1  0.08923415  0.75300827  0.84898904  1
  O  O178  1  0.44834743  0.21366121  0.39328462  1
  O  O179  1  0.46499710  0.17805569  0.83171426  1
  O  O180  1  0.54145070  0.80518553  0.32975382  1
  O  O181  1  0.56669271  0.77973913  0.86584989  1
  O  O182  1  0.22315337  0.14175068  0.51327502  1
  O  O183  1  0.19277304  0.08779145  0.95190385  1
  O  O184  1  0.34822040  0.59230236  0.49439794  1
  O  O185  1  0.18326857  0.50361911  0.91119950  1
  O  O186  1  0.74017941  0.02925449  0.41075979  1
  O  O187  1  0.75960913  0.21536154  0.96171665  1
  O  O188  1  0.69212420  0.62247952  0.48617201  1
  O  O189  1  0.72119502  0.64381079  1.08769978  1
  O  O190  1  0.36631281  0.32360568  0.04547917  1
  O  O191  1  0.24886665  0.35063566  0.54115778  1
  O  O192  1  0.21669878  0.82682950  -0.08556455  1
  O  O193  1  0.25353706  0.81800659  0.48855725  1
  O  O194  1  0.77800102  0.37348306  0.01810912  1
  O  O195  1  0.66446516  0.28948782  0.51937106  1
  O  O196  1  0.82352349  0.88280346  0.00532140  1
  O  O197  1  0.77261191  0.89919318  0.51958884  1
  O  O198  1  0.23681678  0.60579672  0.30686854  1
  O  O199  1  0.08222632  0.60267295  0.83558124  1
  O  O200  1  0.16198893  1.01558504  0.25645329  1
  O  O201  1  0.03218904  1.04768425  0.68519269  1
  O  O202  1  0.66040925  0.46203121  0.30116854  1
  O  O203  1  0.55987488  0.51973236  0.70327828  1
  O  O204  1  0.54859302  1.02686266  0.16302803  1
  O  O205  1  0.60144387  1.03912232  0.79655380  1
  O  O206  1  0.31496920  0.00222176  0.23902309  1
  O  O207  1  0.39089605  -0.05616403  0.77466607  1
  O  O208  1  0.37388732  0.46733971  0.30601165  1
  O  O209  1  0.43687785  0.43323251  0.75763351  1
  O  O210  1  0.83142141  0.04080383  0.11193758  1
  O  O211  1  0.90988867  0.15660041  0.71706520  1
  O  O212  1  0.83122212  0.51047347  0.33621664  1
  O  O213  1  0.81300798  0.47550751  0.68188996  1
  O  O214  1  0.10544439  0.36422088  0.37774469  1
  O  O215  1  0.08008717  0.34678935  0.91032067  1
  O  O216  1  0.10251649  0.87289718  0.36440483  1
  O  O217  1  0.22664842  0.87558555  0.73632386  1
  O  O218  1  0.56937874  0.30733567  0.38586881  1
  O  O219  1  0.58665999  0.41935791  0.91896029  1
  O  O220  1  0.69101645  0.84780114  0.35397870  1
  O  O221  1  0.68920367  0.94200949  0.87454799  1
  O  O222  1  0.42106996  0.08757540  0.07749075  1
  O  O223  1  0.42449569  0.09106983  0.54118522  1
  O  O224  1  0.46906348  0.59226810  0.13959993  1
  O  O225  1  0.43602398  0.58515618  0.63837221  1
  O  O226  1  0.97243981  0.13472220  0.13193798  1
  O  O227  1  0.83304364  0.14472173  0.56713886  1
  O  O228  1  0.88144069  0.55951255  0.19687229  1
  O  O229  1  0.79310181  0.69465980  0.59319576  1
  O  O230  1  0.23804590  0.25242504  0.09981393  1
  O  O231  1  0.25504993  0.23438661  0.64358015  1
  O  O232  1  0.36732190  0.71282518  0.09681662  1
  O  O233  1  0.12405986  0.75631137  0.60744239  1
  O  O234  1  0.74546127  0.30505026  0.14893069  1
  O  O235  1  0.69822534  0.27078522  0.67221731  1
  O  O236  1  0.65638424  0.92220670  0.12655001  1
  O  O237  1  0.78760674  0.83847096  0.64760362  1
  O  O238  1  0.20489146  0.27710398  0.42316220  1
  O  O239  1  0.24116894  0.32264387  0.95924890  1
  O  O240  1  0.30105895  0.77085401  0.49868650  1
  O  O241  1  0.25965178  0.82137560  0.96589243  1
  O  O242  1  0.83064900  0.07751030  0.33234629  1
  O  O243  1  0.70239995  0.33126648  0.88283885  1
  O  O244  1  0.71039261  0.77843794  0.39211326  1
  O  O245  1  0.72302160  0.78572504  0.87164901  1
  O  O246  1  0.03645035  0.08658128  -0.01033517  1
  O  O247  1  0.02581047  0.06097417  0.41344198  1
  O  O248  1  0.03692722  0.66209757  -0.01982199  1
  O  O249  1  0.00453930  0.58891951  0.50231260  1
  O  O250  1  0.47625694  0.10680019  0.04348551  1
  O  O251  1  0.58576817  0.10751029  0.38829362  1
  O  O252  1  0.57072739  0.64572339  0.04966501  1
  O  O253  1  0.54117467  0.57731791  0.44593318  1
  O  O254  1  0.45743607  0.31639254  0.50187622  1
  O  O255  1  0.50704836  0.40327307  1.05565709  1
  O  O256  1  0.37643382  0.83747066  0.43456373  1
  O  O257  1  0.54443156  0.94135656  1.01295818  1
  O  O258  1  1.01558798  0.39205620  0.49219915  1
  O  O259  1  0.97036953  0.32313289  0.94724533  1
  O  O260  1  0.97622864  0.89029506  0.45034368  1
  O  O261  1  0.95681542  0.91900724  0.93118244  1
  O  O262  1  0.47784125  0.43242062  0.40691094  1
  O  O263  1  0.56604838  0.47633951  0.88975764  1
  O  O264  1  0.57696955  0.97267830  0.30186605  1
  O  O265  1  0.45650865  1.01673802  0.87618340  1
  O  O266  1  1.03084245  0.49521414  0.39448117  1
  O  O267  1  1.00589236  0.45764646  0.87473373  1
  O  O268  1  0.96708909  0.86002192  0.29060221  1
  O  O269  1  0.98993695  1.04436964  0.84451069  1
  O  O270  1  0.03997001  -0.01494235  0.15381341  1
  O  O271  1  -0.00558092  0.04282190  0.62178351  1
  O  O272  1  0.04970214  0.46316394  0.07539672  1
  O  O273  1  0.01026948  0.50268040  0.60512554  1
  O  O274  1  0.49948665  -0.01920317  0.16085906  1
  O  O275  1  0.48264167  -0.04766427  0.60863992  1
  O  O276  1  0.52012464  0.48550784  0.24045638  1
  O  O277  1  0.51292271  0.47476379  0.55880432  1
  O  O278  1  0.25579678  0.56643501  0.25038891  1
  O  O279  1  0.29972509  0.45032552  0.82533190  1
  O  O280  1  0.22502996  0.86967579  0.24472219  1
  O  O281  1  0.26148317  0.82086815  0.75469472  1
  O  O282  1  0.68859880  0.28744204  0.30497054  1
  O  O283  1  0.66208677  0.41786608  0.74785205  1
  O  O284  1  0.79000851  0.98767397  0.11323584  1
  O  O285  1  0.71276975  0.95526503  0.71872445  1
  O  O286  1  0.26102970  0.13887426  0.22658099  1
  O  O287  1  0.18910338  0.03406118  0.73458664  1
  O  O288  1  0.23145152  0.66461848  0.44223625  1
  O  O289  1  0.38469672  0.58529419  0.79982888  1
  O  O290  1  0.76617283  0.14326137  0.22531402  1
  O  O291  1  0.76309673  0.12998522  0.76045290  1
  O  O292  1  0.76673679  0.64024435  0.28077364  1
  O  O293  1  0.69397961  0.56886558  0.65317560  1
  O  O294  1  0.32277586  0.11339085  0.38948045  1
  O  O295  1  0.34169860  0.07057226  0.83804049  1
  O  O296  1  0.35879169  0.56408696  0.42698554  1
  O  O297  1  0.48650124  0.61966882  0.91433647  1
  O  O298  1  0.79406468  0.02033198  0.34289359  1
  O  O299  1  0.88392570  0.17456474  0.86312481  1
  O  O300  1  0.85553133  0.66722946  0.43228459  1
  O  O301  1  0.79473981  0.66889207  0.75689296  1
  O  O302  1  0.10284037  0.40697450  0.06646654  1
  O  O303  1  0.18678036  0.40399138  0.71929169  1
  O  O304  1  0.16035161  0.87660564  0.09492761  1
  O  O305  1  0.08214351  0.89469879  0.75720931  1
  O  O306  1  0.59749214  0.36098845  0.20314949  1
  O  O307  1  0.56817095  0.34690158  0.63709182  1
  O  O308  1  0.69458958  0.89504433  0.17375926  1
  O  O309  1  0.63851131  0.90159953  0.60770899  1
  O  O310  1  0.14265501  0.25465506  0.27134250  1
  O  O311  1  0.20310471  0.34768021  0.75395835  1
  O  O312  1  0.20902167  0.73660980  0.15513346  1
  O  O313  1  0.13280227  0.75850248  0.79648488  1
  O  O314  1  0.57003637  0.21257253  0.24999415  1
  O  O315  1  0.58214273  0.18135293  0.73055143  1
  O  O316  1  0.64991491  0.73707375  0.23984132  1
  O  O317  1  0.64271326  0.74890648  0.70475179  1
  O  O318  1  0.36875945  0.28798351  0.21227485  1
  O  O319  1  0.34349254  0.28010906  0.81277991  1
  O  O320  1  0.36805198  0.78938362  0.24802676  1
  O  O321  1  0.40555767  0.73205923  0.85747667  1
  O  O322  1  0.88051280  0.25794852  0.21468802  1
  O  O323  1  0.81381096  0.27905661  0.76967172  1
  O  O324  1  0.82643174  0.69538773  0.27323643  1
  O  O325  1  0.89638477  0.76264115  0.69924071  1
  O  O326  1  0.35787393  0.44440887  0.50874525  1
  O  O327  1  0.40374426  0.51951463  1.02537866  1
  O  O328  1  0.29454280  0.88762038  0.61995016  1
  O  O329  1  0.35219546  1.00929944  0.96422981  1
  O  O330  1  0.82711004  0.50153269  0.49893807  1
  O  O331  1  0.89147939  0.56272314  0.81117811  1
  O  O332  1  0.87533008  0.99549564  0.47705886  1
  O  O333  1  0.89826414  1.05765338  0.96673892  1
  O  O334  1  0.08776986  -0.04643665  -0.04720962  1
  O  O335  1  0.16635370  -0.03399744  0.57454732  1
  O  O336  1  0.13688053  0.53870160  -0.04981784  1
  O  O337  1  0.13512562  0.48075932  0.51356183  1
  O  O338  1  0.57761946  0.00061855  0.00934782  1
  O  O339  1  0.60972520  -0.03411143  0.47347540  1
  O  O340  1  0.66119345  0.52207847  0.00760593  1
  O  O341  1  0.62390747  0.44287421  0.45150017  1
  O  O342  1  0.37781765  0.43559712  0.13451617  1
  O  O343  1  0.37126311  0.34776482  0.62245446  1
  O  O344  1  0.37375336  0.87386164  0.11855771  1
  O  O345  1  0.33416909  0.83350912  0.63082646  1
  O  O346  1  0.85449420  0.41133252  0.15269511  1
  O  O347  1  0.83140987  0.31839556  0.55234744  1
  O  O348  1  0.97132863  0.87393862  0.08339028  1
  O  O349  1  0.83532967  0.98453942  0.63737800  1
  O  O350  1  0.16643839  0.14580242  0.36878950  1
  O  O351  1  0.08574476  0.16432125  0.86892331  1
  O  O352  1  0.18328130  0.70399984  0.41764551  1
  O  O353  1  0.24120736  0.65836386  0.87464342  1
  O  O354  1  0.70048287  0.11163778  0.24766183  1
  O  O355  1  0.59876131  0.14782921  0.95091052  1
  O  O356  1  0.61043477  0.67824638  0.37873206  1
  O  O357  1  0.66826262  0.65642220  0.92621536  1
