# generated using pymatgen
data_V51Zn51O256
_symmetry_space_group_name_H-M   'P 1'
_cell_length_a   18.04480425
_cell_length_b   17.90132133
_cell_length_c   17.84272301
_cell_angle_alpha   90.51097572
_cell_angle_beta   89.69807592
_cell_angle_gamma   91.69546536
_symmetry_Int_Tables_number   1
_chemical_formula_structural   V51Zn51O256
_chemical_formula_sum   'V51 Zn51 O256'
_cell_volume   5760.83592488
_cell_formula_units_Z   1
loop_
 _symmetry_equiv_pos_site_id
 _symmetry_equiv_pos_as_xyz
  1  'x, y, z'
loop_
 _atom_site_type_symbol
 _atom_site_label
 _atom_site_symmetry_multiplicity
 _atom_site_fract_x
 _atom_site_fract_y
 _atom_site_fract_z
 _atom_site_occupancy
  V  V0  1  -0.00689761  0.15284572  0.60309027  1
  V  V1  1  0.85189279  0.38768035  -0.01906956  1
  V  V2  1  0.23309274  0.61186788  0.38567420  1
  V  V3  1  0.12662988  0.76295419  0.35172455  1
  V  V4  1  0.72619162  0.38984108  0.10301609  1
  V  V5  1  0.35953662  0.41871754  0.55975871  1
  V  V6  1  0.89140164  0.55459805  0.24063037  1
  V  V7  1  0.30440344  0.75768590  0.63966137  1
  V  V8  1  0.64608320  0.65772131  0.01154482  1
  V  V9  1  0.70370717  0.62269945  0.83023575  1
  V  V10  1  0.77654247  0.66572360  0.31240000  1
  V  V11  1  0.26712776  0.78157043  0.00366797  1
  V  V12  1  0.19448327  0.11500061  0.86436891  1
  V  V13  1  0.87389639  0.11964946  0.76105289  1
  V  V14  1  0.59478084  -0.07718876  0.68184439  1
  V  V15  1  0.16967243  0.45330934  0.65257681  1
  V  V16  1  -0.02791041  0.00176788  0.48062973  1
  V  V17  1  0.28607309  0.25142051  0.50170138  1
  V  V18  1  0.63204281  0.15519224  0.55202764  1
  V  V19  1  0.49658050  0.36975024  0.35479678  1
  V  V20  1  0.10512858  0.64652051  0.50252344  1
  V  V21  1  0.49139471  0.13566112  0.11931016  1
  V  V22  1  0.05533696  -0.05792268  0.00723908  1
  V  V23  1  0.40543380  0.01269476  0.03324280  1
  V  V24  1  0.14758259  0.25883408  0.39461487  1
  V  V25  1  0.19399725  0.00894312  0.63415095  1
  V  V26  1  0.47130904  0.78259338  0.24309972  1
  V  V27  1  0.38535356  0.26425376  0.65732856  1
  V  V28  1  0.20573393  0.22771131  0.00740682  1
  V  V29  1  0.65265850  0.62538074  0.44401889  1
  V  V30  1  0.09310363  0.91563283  0.71415049  1
  V  V31  1  0.64340641  0.39732939  0.27109600  1
  V  V32  1  0.51961378  0.57826837  0.10387026  1
  V  V33  1  0.81907368  0.87152939  0.02433112  1
  V  V34  1  0.84440283  0.20493786  0.05210028  1
  V  V35  1  0.04438177  0.37912666  0.37537590  1
  V  V36  1  0.35813612  0.23836016  0.12558375  1
  V  V37  1  0.22445910  0.78386059  0.49685253  1
  V  V38  1  -0.04671108  0.23902420  0.27799713  1
  V  V39  1  0.39532277  0.09951772  0.75686714  1
  V  V40  1  0.27546627  0.61752682  0.91373468  1
  V  V41  1  0.26832014  0.87049432  0.17650274  1
  V  V42  1  0.03951708  0.38823663  0.89720555  1
  V  V43  1  0.39338765  0.12148776  0.26595535  1
  V  V44  1  0.12348012  0.10106842  0.06674554  1
  V  V45  1  -0.03417499  0.53824211  -0.03321938  1
  V  V46  1  0.62270470  0.23282797  0.84541889  1
  V  V47  1  0.16188364  0.12350308  0.50318585  1
  V  V48  1  0.42503341  0.81516403  0.06640612  1
  V  V49  1  0.38637084  0.35547043  -0.01046646  1
  V  V50  1  0.79268491  0.84096171  0.62729726  1
  Zn  Zn51  1  0.10751098  0.74633413  0.64558424  1
  Zn  Zn52  1  0.95692027  0.85091229  0.12872253  1
  Zn  Zn53  1  0.14073990  0.93084928  0.44842052  1
  Zn  Zn54  1  0.42388571  0.96131797  0.19854027  1
  Zn  Zn55  1  0.33997790  0.27236302  0.32415402  1
  Zn  Zn56  1  0.27652315  0.06343084  0.16093065  1
  Zn  Zn57  1  0.22857049  0.38977837  0.91164799  1
  Zn  Zn58  1  0.67249093  0.77718764  0.74016884  1
  Zn  Zn59  1  0.43121019  0.65314739  0.98357292  1
  Zn  Zn60  1  0.95673661  0.71291795  0.29163422  1
  Zn  Zn61  1  0.72492226  0.64937164  0.64006579  1
  Zn  Zn62  1  0.57015322  0.04340115  0.80913083  1
  Zn  Zn63  1  0.31259904  0.24724742  0.83726929  1
  Zn  Zn64  1  0.30870965  0.61131388  0.53869849  1
  Zn  Zn65  1  0.33196881  0.09152392  0.57771473  1
  Zn  Zn66  1  0.82656202  0.68194762  0.95647432  1
  Zn  Zn67  1  0.84788812  0.04180383  -0.06999750  1
  Zn  Zn68  1  0.10882082  0.80151891  0.10218900  1
  Zn  Zn69  1  0.01602295  0.03284730  0.83599915  1
  Zn  Zn70  1  0.68310002  0.96939185  0.52882971  1
  Zn  Zn71  1  0.65148679  0.23018452  0.05153839  1
  Zn  Zn72  1  0.28962055  0.39326134  0.73206426  1
  Zn  Zn73  1  0.41138815  0.93423323  0.70254180  1
  Zn  Zn74  1  1.02615575  0.41013296  0.70936742  1
  Zn  Zn75  1  0.66309206  0.79307322  0.56366190  1
  Zn  Zn76  1  0.46864265  0.20441093  0.43248032  1
  Zn  Zn77  1  1.04757153  0.56947169  0.35579118  1
  Zn  Zn78  1  0.54835293  0.54743642  0.30133924  1
  Zn  Zn79  1  0.22498233  0.76375493  0.81805331  1
  Zn  Zn80  1  0.10774836  0.30555754  0.58577637  1
  Zn  Zn81  1  0.21210231  0.43730971  0.46364049  1
  Zn  Zn82  1  0.57730864  0.41355039  0.01792910  1
  Zn  Zn83  1  0.23551793  0.97507786  0.97657098  1
  Zn  Zn84  1  0.69957304  0.42753781  0.87386446  1
  Zn  Zn85  1  0.01249034  0.81468957  0.45704635  1
  Zn  Zn86  1  0.30704204  0.73438346  0.31018554  1
  Zn  Zn87  1  0.52830703  0.33645299  0.54206106  1
  Zn  Zn88  1  0.06313238  0.11237829  0.34121966  1
  Zn  Zn89  1  0.92626982  0.97712677  0.65642749  1
  Zn  Zn90  1  0.80105130  0.55190690  0.06684500  1
  Zn  Zn91  1  0.33508146  0.51711411  0.04073044  1
  Zn  Zn92  1  0.43349849  0.17980235  0.93419931  1
  Zn  Zn93  1  0.61077165  0.67679803  0.20617639  1
  Zn  Zn94  1  0.23389614  0.18123821  0.68021503  1
  Zn  Zn95  1  0.73619850  0.05433302  0.67830511  1
  Zn  Zn96  1  0.69471257  0.96179727  0.96462145  1
  Zn  Zn97  1  0.96013048  0.18959041  0.44035670  1
  Zn  Zn98  1  0.12124391  0.52705410  0.83426821  1
  Zn  Zn99  1  0.62987056  0.44021006  0.44289332  1
  Zn  Zn100  1  0.81811900  0.29808974  0.81791302  1
  Zn  Zn101  1  1.04421139  0.47075312  0.52847489  1
  O  O102  1  0.17397801  0.08608717  0.14807192  1
  O  O103  1  0.17796770  0.10728307  0.62084573  1
  O  O104  1  0.10813576  0.45501840  0.09390458  1
  O  O105  1  0.07263147  0.65929793  0.59292208  1
  O  O106  1  0.57954115  0.15688864  0.08730118  1
  O  O107  1  0.56961018  0.11669843  0.61522573  1
  O  O108  1  0.62209462  0.62712760  0.10975109  1
  O  O109  1  0.64150794  0.63165300  0.55295892  1
  O  O110  1  0.40464364  0.36237807  0.33649661  1
  O  O111  1  0.27194026  0.34765810  0.82250776  1
  O  O112  1  0.45122014  0.90175177  0.43338999  1
  O  O113  1  0.43331434  0.83040788  0.83374518  1
  O  O114  1  0.99251763  0.40124337  0.45048894  1
  O  O115  1  0.86979801  0.36679331  0.88776545  1
  O  O116  1  0.85963783  0.94084390  0.30043890  1
  O  O117  1  0.92533636  0.84544909  0.84559640  1
  O  O118  1  0.44353191  0.07889482  0.45414815  1
  O  O119  1  0.23795732  0.03480707  0.88534553  1
  O  O120  1  0.21599356  0.51647999  0.39080289  1
  O  O121  1  0.22214230  0.57219584  0.84700617  1
  O  O122  1  0.74729900  -0.01317748  0.42664286  1
  O  O123  1  0.91852073  -0.19125117  0.78766341  1
  O  O124  1  0.84320147  0.44756519  0.39713937  1
  O  O125  1  0.71327965  0.52866530  0.82359077  1
  O  O126  1  0.30690558  0.47096503  0.14086759  1
  O  O127  1  0.25586136  0.48262239  0.68166575  1
  O  O128  1  0.30822869  0.96151180  0.19067666  1
  O  O129  1  0.28453651  0.99584514  0.60617666  1
  O  O130  1  0.71739897  0.48297299  0.09727314  1
  O  O131  1  0.76792374  0.55145239  0.65778767  1
  O  O132  1  0.72740263  0.95044048  0.19476984  1
  O  O133  1  0.66408863  0.98391992  0.63841269  1
  O  O134  1  -0.00244355  0.32692298  0.29734675  1
  O  O135  1  0.00221020  0.38475943  0.80511442  1
  O  O136  1  0.09622417  0.97990409  0.24493437  1
  O  O137  1  0.01547867  0.97068947  0.73269729  1
  O  O138  1  0.55206541  0.34938608  0.27271074  1
  O  O139  1  0.45767378  0.42635192  0.80956986  1
  O  O140  1  0.46623916  0.87789228  0.24990686  1
  O  O141  1  0.46428808  0.86143160  0.76991641  1
  O  O142  1  0.49634916  0.14583660  0.21463179  1
  O  O143  1  0.48729074  0.08090684  0.75618752  1
  O  O144  1  0.51831123  0.59455132  0.20589227  1
  O  O145  1  0.50237044  0.57625192  0.62467692  1
  O  O146  1  1.01659172  0.17100085  0.26615983  1
  O  O147  1  0.95385886  0.12861182  0.69324468  1
  O  O148  1  0.97219150  0.60479720  0.28338737  1
  O  O149  1  0.92615891  0.59763358  0.72738229  1
  O  O150  1  0.38076879  0.27575211  -0.06898345  1
  O  O151  1  0.37925292  0.23952311  0.49342061  1
  O  O152  1  0.37081109  0.74792384  0.00142795  1
  O  O153  1  0.31323551  0.76343926  0.51878863  1
  O  O154  1  0.87581361  0.28495971  0.00563165  1
  O  O155  1  0.76792531  0.34499328  0.49828428  1
  O  O156  1  0.82757299  0.78666783  -0.02307583  1
  O  O157  1  0.91652620  0.69555575  0.50079010  1
  O  O158  1  0.17332957  0.24745313  0.51525334  1
  O  O159  1  0.13473713  0.21074583  1.07247349  1
  O  O160  1  0.11079296  0.75215412  0.48422053  1
  O  O161  1  0.18684279  0.75001657  1.04254995  1
  O  O162  1  0.62072377  0.25124356  0.56109700  1
  O  O163  1  0.65385588  0.22081192  0.94269295  1
  O  O164  1  0.61703541  0.70125884  0.51771064  1
  O  O165  1  0.65324804  0.74759676  1.01648363  1
  O  O166  1  0.45230380  0.23297968  0.09914417  1
  O  O167  1  0.46933516  0.27711884  0.61416045  1
  O  O168  1  0.50224517  0.81929662  0.01908794  1
  O  O169  1  0.40482545  0.79602871  0.63011410  1
  O  O170  1  0.90234974  0.18712357  0.13940960  1
  O  O171  1  1.04323764  0.23013774  0.63366262  1
  O  O172  1  1.02321173  0.78383711  0.16341372  1
  O  O173  1  0.93822197  0.76807733  0.52605119  1
  O  O174  1  0.04918786  0.25652990  0.41589582  1
  O  O175  1  0.05445809  0.30167441  0.92099242  1
  O  O176  1  0.02157779  0.75973156  0.36115867  1
  O  O177  1  0.02898499  0.74235151  0.88855019  1
  O  O178  1  0.51702552  0.30622858  0.42650496  1
  O  O179  1  0.53574973  0.21588729  0.89526548  1
  O  O180  1  0.41356272  0.73878140  0.30699317  1
  O  O181  1  0.44525125  0.76217851  0.84288919  1
  O  O182  1  0.26912197  0.14613396  0.50708702  1
  O  O183  1  0.16086386  0.12713829  0.97127297  1
  O  O184  1  0.19666164  0.62610321  0.51101164  1
  O  O185  1  0.25820277  0.58281769  1.00148268  1
  O  O186  1  0.69140442  0.15033472  0.63471025  1
  O  O187  1  0.74251958  0.03384932  0.90799369  1
  O  O188  1  0.83826257  0.48525695  0.45436791  1
  O  O189  1  0.74350711  0.62825189  1.01614494  1
  O  O190  1  0.20731803  0.32269127  -0.00151692  1
  O  O191  1  0.28742676  0.36869387  0.50784342  1
  O  O192  1  0.25647996  0.86668351  -0.03568607  1
  O  O193  1  0.22467024  0.87714017  0.49030748  1
  O  O194  1  0.75595158  0.39021301  -0.03068755  1
  O  O195  1  0.81946236  0.52839686  0.60298726  1
  O  O196  1  0.72732435  0.89833818  0.03964571  1
  O  O197  1  0.73777851  0.88133892  0.55354894  1
  O  O198  1  0.16720538  0.48438545  0.21059854  1
  O  O199  1  0.10804813  0.49146952  0.72142308  1
  O  O200  1  0.12034747  1.01700000  0.29952424  1
  O  O201  1  0.18140842  0.99032197  0.72714814  1
  O  O202  1  0.62953283  0.48913787  0.25632008  1
  O  O203  1  0.60447305  0.47422553  0.71880376  1
  O  O204  1  0.58817056  1.01855043  0.27327026  1
  O  O205  1  0.60353838  0.95085527  0.77380759  1
  O  O206  1  0.42663787  0.03593947  0.28479644  1
  O  O207  1  0.35602952  0.01108880  0.75017429  1
  O  O208  1  0.33519038  0.51371996  0.20026523  1
  O  O209  1  0.47874145  0.56956424  0.68886068  1
  O  O210  1  0.86305627  0.00914733  0.29547217  1
  O  O211  1  0.84394721  0.04573169  0.67833976  1
  O  O212  1  0.90275403  0.46514657  0.24472299  1
  O  O213  1  0.91096904  0.66282414  0.71600744  1
  O  O214  1  0.13958054  0.36616411  0.41333005  1
  O  O215  1  0.13212462  0.43272113  0.89348792  1
  O  O216  1  0.13630662  0.85936303  0.36385909  1
  O  O217  1  0.10933996  0.88939842  0.81884215  1
  O  O218  1  0.67766485  0.38710625  0.35953781  1
  O  O219  1  0.62175385  0.33254677  0.86034286  1
  O  O220  1  0.59589076  0.91573159  0.46866202  1
  O  O221  1  0.61197668  0.88985359  0.91792709  1
  O  O222  1  0.37202656  0.13377859  0.15633725  1
  O  O223  1  0.37360997  0.14837634  0.66588613  1
  O  O224  1  0.42183971  0.57912573  0.07579077  1
  O  O225  1  0.32206719  0.66499045  0.63143488  1
  O  O226  1  0.85821756  0.12879262  -0.00221844  1
  O  O227  1  0.92777470  0.18579941  0.54399929  1
  O  O228  1  0.86318850  0.58134708  0.15349540  1
  O  O229  1  0.90149663  0.64951545  0.55224118  1
  O  O230  1  0.28609085  0.20364219  0.06066985  1
  O  O231  1  0.28906534  0.25193506  0.61553926  1
  O  O232  1  0.30377444  0.81457157  0.09909868  1
  O  O233  1  0.20665343  0.77048617  0.60500915  1
  O  O234  1  0.75342505  0.21091618  0.07808003  1
  O  O235  1  0.71883441  0.38788279  0.64195446  1
  O  O236  1  0.72899588  0.85162120  0.31056271  1
  O  O237  1  0.76596692  0.74414117  0.60359541  1
  O  O238  1  0.26162813  0.26403405  0.40288460  1
  O  O239  1  0.23184114  0.20993715  0.90616646  1
  O  O240  1  0.22699520  0.74506151  0.39813008  1
  O  O241  1  0.25305817  0.71949310  0.91011824  1
  O  O242  1  0.75220773  0.14622853  0.30104400  1
  O  O243  1  0.71575221  0.23894919  0.81471053  1
  O  O244  1  0.85040061  0.72710223  0.29775536  1
  O  O245  1  0.65085778  0.84401836  0.87708199  1
  O  O246  1  0.03404856  0.09303188  0.07870438  1
  O  O247  1  0.07080114  0.13246715  0.53379188  1
  O  O248  1  -0.08990702  0.61736587  -0.04498555  1
  O  O249  1  0.04419647  0.56692441  0.47558814  1
  O  O250  1  0.43996068  0.10985645  0.01333399  1
  O  O251  1  0.56493808  0.17157248  0.47991700  1
  O  O252  1  0.53536463  0.63186000  0.01077549  1
  O  O253  1  0.58251690  0.62116350  0.38047269  1
  O  O254  1  0.44285736  0.40536906  0.52157630  1
  O  O255  1  0.47608085  0.38260217  0.99353942  1
  O  O256  1  0.58507613  0.84577034  0.47947540  1
  O  O257  1  0.42027412  0.96895999  0.95379456  1
  O  O258  1  0.82797835  0.33397785  0.52786923  1
  O  O259  1  0.97829889  0.42448596  0.96820070  1
  O  O260  1  1.03127360  0.92229614  0.46568439  1
  O  O261  1  1.08210306  0.85140694  1.00228645  1
  O  O262  1  0.52742779  0.46137207  0.37759973  1
  O  O263  1  0.48525342  0.48402583  0.83662937  1
  O  O264  1  0.38823932  0.91801155  0.41694626  1
  O  O265  1  0.55037247  1.03286980  0.92298277  1
  O  O266  1  1.05969088  0.46375784  0.33456235  1
  O  O267  1  1.02587848  0.54133071  0.88634986  1
  O  O268  1  0.98759221  1.07706405  0.41456205  1
  O  O269  1  1.01890815  0.97070004  0.92220980  1
  O  O270  1  -0.00372641  -0.05620842  0.08277004  1
  O  O271  1  -0.02366467  0.03539970  0.57633900  1
  O  O272  1  0.01514495  0.55738804  0.04122896  1
  O  O273  1  0.03869361  0.39544902  0.60580569  1
  O  O274  1  0.47355955  0.03068104  0.11840882  1
  O  O275  1  0.50868596  -0.05812523  0.64964385  1
  O  O276  1  0.54440467  0.49022474  0.09068255  1
  O  O277  1  0.55989087  0.43470903  0.68336485  1
  O  O278  1  0.33112417  0.48328658  0.26362202  1
  O  O279  1  0.10499627  0.25146422  0.77004967  1
  O  O280  1  0.28474561  0.82263575  0.25586704  1
  O  O281  1  0.16854698  0.85733708  0.78380667  1
  O  O282  1  0.70557481  0.36448710  0.20195738  1
  O  O283  1  0.75194687  0.37575510  0.79826910  1
  O  O284  1  0.71778062  1.00329024  0.36632877  1
  O  O285  1  0.75467450  0.85162890  0.71463565  1
  O  O286  1  0.29980968  0.10787534  0.27123487  1
  O  O287  1  0.24217814  0.15427148  0.78002706  1
  O  O288  1  0.25738273  0.63432682  0.29577340  1
  O  O289  1  0.13807546  0.70222701  0.75630582  1
  O  O290  1  0.73153113  0.01599373  0.21409447  1
  O  O291  1  0.77517426  0.09988468  0.76795893  1
  O  O292  1  0.70979884  0.67817566  0.24853062  1
  O  O293  1  0.67909571  0.66782945  0.73917374  1
  O  O294  1  0.41376017  0.18881897  0.34023905  1
  O  O295  1  0.38181300  0.14541134  0.84310308  1
  O  O296  1  0.31685370  0.62673024  0.43159277  1
  O  O297  1  0.36979019  0.60889838  0.90073240  1
  O  O298  1  0.90044416  0.21499104  0.35386117  1
  O  O299  1  0.91117666  0.06959904  0.83670981  1
  O  O300  1  0.81170169  0.57510633  0.30487415  1
  O  O301  1  0.78635697  0.66382309  0.85355206  1
  O  O302  1  0.17850852  0.41992702  0.22764584  1
  O  O303  1  0.17459922  0.35676614  0.66251376  1
  O  O304  1  0.17732931  0.87550080  0.15611769  1
  O  O305  1  0.12243766  0.94006894  0.61427601  1
  O  O306  1  0.64403260  0.33980462  0.06295786  1
  O  O307  1  0.61212879  0.39933804  0.53720948  1
  O  O308  1  0.60147862  0.95731488  0.29874258  1
  O  O309  1  0.61221645  0.82592155  0.66020576  1
  O  O310  1  0.15237426  0.26080094  0.30376006  1
  O  O311  1  0.04592584  0.22864365  0.79411639  1
  O  O312  1  0.14349954  0.74360342  0.26422597  1
  O  O313  1  0.05799475  0.82961533  0.68631466  1
  O  O314  1  0.68443104  0.14423699  0.30605506  1
  O  O315  1  0.57742452  0.25175689  0.76241255  1
  O  O316  1  0.56247132  0.75762706  0.25420766  1
  O  O317  1  0.61062346  0.79529240  0.83551036  1
  O  O318  1  0.33701011  0.26582193  0.21435784  1
  O  O319  1  0.38921457  0.26836974  0.75118210  1
  O  O320  1  0.44359651  0.75930683  0.14795648  1
  O  O321  1  0.28876095  0.77283113  0.73361687  1
  O  O322  1  0.89247056  0.24228440  0.19320533  1
  O  O323  1  0.86816185  0.21338998  0.78349179  1
  O  O324  1  0.68061529  0.84099278  0.35796792  1
  O  O325  1  0.99669509  0.70207889  0.84316848  1
  O  O326  1  0.34166512  0.51077652  0.55491607  1
  O  O327  1  0.32881150  0.43165615  0.96617118  1
  O  O328  1  0.42603429  1.05464548  0.51906272  1
  O  O329  1  0.30896456  1.02203962  1.04606030  1
  O  O330  1  0.86587223  0.48209507  0.62513338  1
  O  O331  1  0.86631731  0.48722803  1.00247955  1
  O  O332  1  0.88836509  0.96777207  0.46820356  1
  O  O333  1  0.86066271  0.94153366  0.96974543  1
  O  O334  1  0.14035691  -0.00263984  0.02638355  1
  O  O335  1  0.16857778  0.02871023  0.48960284  1
  O  O336  1  0.11136660  0.38726825  0.09995086  1
  O  O337  1  0.16005162  0.47587123  0.55540217  1
  O  O338  1  0.59750447  0.03398426  -0.02428716  1
  O  O339  1  0.63550441  0.06337767  0.50298521  1
  O  O340  1  0.61823058  0.45767921  -0.06917985  1
  O  O341  1  0.68196000  0.53645368  0.44982843  1
  O  O342  1  0.35645031  0.33240776  0.08094165  1
  O  O343  1  0.36327414  0.37389307  0.65139666  1
  O  O344  1  0.41159619  0.91171084  0.08785995  1
  O  O345  1  0.36202577  0.85886463  0.62770046  1
  O  O346  1  0.81792167  0.37142917  0.09486974  1
  O  O347  1  0.78039600  0.36502605  0.65666404  1
  O  O348  1  0.85704968  0.86714341  0.11399126  1
  O  O349  1  0.88075252  0.87963339  0.62985190  1
  O  O350  1  0.14827847  0.14881646  0.40451839  1
  O  O351  1  0.10555669  0.09682006  0.83381392  1
  O  O352  1  0.12501020  0.64542970  0.38329354  1
  O  O353  1  0.09512519  0.64767195  0.77863514  1
  O  O354  1  0.71918565  0.16063381  0.50613223  1
  O  O355  1  0.62623470  0.13620787  0.82228477  1
  O  O356  1  0.73288398  0.67514084  0.40433685  1
  O  O357  1  0.64254405  0.64035599  0.90495288  1
