# generated using pymatgen
data_V51Zn51O256
_symmetry_space_group_name_H-M   'P 1'
_cell_length_a   17.69097710
_cell_length_b   17.21150219
_cell_length_c   17.68619652
_cell_angle_alpha   89.50631988
_cell_angle_beta   89.17934297
_cell_angle_gamma   91.08436483
_symmetry_Int_Tables_number   1
_chemical_formula_structural   V51Zn51O256
_chemical_formula_sum   'V51 Zn51 O256'
_cell_volume   5383.51030053
_cell_formula_units_Z   1
loop_
 _symmetry_equiv_pos_site_id
 _symmetry_equiv_pos_as_xyz
  1  'x, y, z'
loop_
 _atom_site_type_symbol
 _atom_site_label
 _atom_site_symmetry_multiplicity
 _atom_site_fract_x
 _atom_site_fract_y
 _atom_site_fract_z
 _atom_site_occupancy
  V  V0  1  0.86451453  0.38198690  -0.01806583  1
  V  V1  1  0.14784243  0.03039454  0.13967013  1
  V  V2  1  0.00253923  0.60618491  0.57214778  1
  V  V3  1  0.73575232  0.38671484  0.63580099  1
  V  V4  1  0.34725724  0.49117146  0.85866529  1
  V  V5  1  0.49914620  0.39618596  0.34015860  1
  V  V6  1  0.86825808  0.59689502  0.29059436  1
  V  V7  1  0.80148974  0.66281676  0.86495459  1
  V  V8  1  0.41436247  0.27637249  0.07188352  1
  V  V9  1  0.57624915  0.32206699  0.85052660  1
  V  V10  1  0.01954189  0.89697903  0.86933890  1
  V  V11  1  0.24086445  0.33920223  0.09368672  1
  V  V12  1  0.58025165  0.11815228  0.67647692  1
  V  V13  1  0.61064103  0.28543579  0.41869333  1
  V  V14  1  0.42817782  0.14135983  0.27907216  1
  V  V15  1  0.92059990  0.62085890  0.72907529  1
  V  V16  1  0.35908784  0.14126273  0.73814870  1
  V  V17  1  0.87591808  0.13639774  0.75869860  1
  V  V18  1  0.60037254  0.09681304  -0.02318311  1
  V  V19  1  0.89358206  0.74461173  0.10900746  1
  V  V20  1  0.74091914  0.44011951  0.16253653  1
  V  V21  1  0.74776481  -0.00352443  0.21778261  1
  V  V22  1  0.87804123  0.87238378  -0.00810002  1
  V  V23  1  0.00014773  0.25071528  0.73720765  1
  V  V24  1  0.12649171  0.24743585  0.88866324  1
  V  V25  1  0.23431833  0.52949405  0.71379980  1
  V  V26  1  0.27050664  0.02797885  0.29098333  1
  V  V27  1  0.15353601  0.25402376  0.38567666  1
  V  V28  1  0.87798339  0.86467277  0.46713790  1
  V  V29  1  0.01494358  0.38838737  0.87537685  1
  V  V30  1  0.77267641  0.16070509  0.91852631  1
  V  V31  1  0.13324470  0.36980578  0.73210580  1
  V  V32  1  0.75283425  0.85861055  0.11483662  1
  V  V33  1  0.58041827  0.33079499  0.17195344  1
  V  V34  1  0.79960959  0.89811528  0.62043770  1
  V  V35  1  -0.01097223  0.14402291  0.12061634  1
  V  V36  1  0.87310010  0.01584476  0.88858336  1
  V  V37  1  -0.00819754  0.74748405  0.25371428  1
  V  V38  1  0.53630893  0.82548300  0.86636135  1
  V  V39  1  0.50185901  0.62230533  0.63880004  1
  V  V40  1  -0.07301283  0.42656828  0.36755364  1
  V  V41  1  0.10171863  0.46577168  0.17189426  1
  V  V42  1  0.11208378  0.62083871  -0.04250734  1
  V  V43  1  0.03268130  0.88758283  0.33514700  1
  V  V44  1  -0.00194969  -0.00106511  0.02216064  1
  V  V45  1  0.60040170  0.58904265  -0.01157022  1
  V  V46  1  -0.00333109  0.00523948  0.44788909  1
  V  V47  1  0.43548139  -0.01297996  0.40605518  1
  V  V48  1  0.86535133  0.34327020  0.53272605  1
  V  V49  1  0.73186315  0.65811476  0.42426194  1
  V  V50  1  0.11755277  0.48396779  0.58302335  1
  Zn  Zn51  1  0.83556492  0.31929083  0.82297677  1
  Zn  Zn52  1  0.37013024  0.86214478  0.83142891  1
  Zn  Zn53  1  0.53588324  0.98199036  0.26619416  1
  Zn  Zn54  1  0.30321947  0.31083601  0.79784635  1
  Zn  Zn55  1  0.11890908  0.46153174  0.37859364  1
  Zn  Zn56  1  0.82895767  0.06295856  0.07853027  1
  Zn  Zn57  1  0.95249431  0.44121161  0.68876915  1
  Zn  Zn58  1  0.00682301  0.33534279  0.06817249  1
  Zn  Zn59  1  -0.06488298  0.77486156  0.61639373  1
  Zn  Zn60  1  0.41422686  0.70350681  0.49019881  1
  Zn  Zn61  1  0.70720269  0.21025940  0.74891241  1
  Zn  Zn62  1  0.84095777  0.55659215  0.02629485  1
  Zn  Zn63  1  0.95032354  0.20589833  0.95136899  1
  Zn  Zn64  1  0.80500445  0.79842814  0.29071424  1
  Zn  Zn65  1  0.19034111  0.17659331  0.77068930  1
  Zn  Zn66  1  0.59122924  0.78062723  0.51506968  1
  Zn  Zn67  1  0.55872086  0.11780449  0.37226515  1
  Zn  Zn68  1  0.07943237  0.56284887  0.79672765  1
  Zn  Zn69  1  0.45013919  0.18879538  0.90338941  1
  Zn  Zn70  1  0.81922452  0.55802702  0.56064193  1
  Zn  Zn71  1  0.91498729  0.93100663  0.18968365  1
  Zn  Zn72  1  0.71569133  0.46168830  0.36524451  1
  Zn  Zn73  1  0.38365829  0.89790814  0.27982379  1
  Zn  Zn74  1  0.59989999  0.77947426  0.05455009  1
  Zn  Zn75  1  0.47907774  0.03294164  0.83307611  1
  Zn  Zn76  1  0.75353095  0.64041439  0.13516496  1
  Zn  Zn77  1  0.81438931  0.78719876  0.75697661  1
  Zn  Zn78  1  0.07774484  0.08397492  0.28780723  1
  Zn  Zn79  1  0.16898172  0.94298264  0.43376852  1
  Zn  Zn80  1  0.27745414  0.73716216  0.92866345  1
  Zn  Zn81  1  0.28650736  0.15546639  0.14836866  1
  Zn  Zn82  1  0.16575988  0.97193218  0.96099828  1
  Zn  Zn83  1  0.60828016  0.13422789  0.17447299  1
  Zn  Zn84  1  0.63161392  0.65826877  0.79824982  1
  Zn  Zn85  1  0.70222258  0.93739313  0.94226677  1
  Zn  Zn86  1  0.96291831  0.70644848  0.91651236  1
  Zn  Zn87  1  0.27038400  0.56754731  -0.00284221  1
  Zn  Zn88  1  0.07962170  0.66772758  0.13007744  1
  Zn  Zn89  1  0.43372375  0.65052866  0.94737841  1
  Zn  Zn90  1  0.45817594  0.03988470  0.58944054  1
  Zn  Zn91  1  0.59027458  0.58995936  0.45409641  1
  Zn  Zn92  1  0.56044667  0.30411200  0.61739701  1
  Zn  Zn93  1  0.42238664  0.43730043  0.71449203  1
  Zn  Zn94  1  0.65992151  0.39042194  1.00237443  1
  Zn  Zn95  1  0.15142066  0.42283206  0.95397890  1
  Zn  Zn96  1  0.32348015  0.54345256  0.57961517  1
  Zn  Zn97  1  0.13443594  0.68353129  0.63536414  1
  Zn  Zn98  1  0.91942508  0.41032292  0.20538474  1
  Zn  Zn99  1  0.65375523  0.97895384  0.58527779  1
  Zn  Zn100  1  0.03717684  0.08161726  0.83522096  1
  Zn  Zn101  1  0.96528629  0.21107787  0.46365249  1
  O  O102  1  0.06457453  0.09747762  0.17715068  1
  O  O103  1  0.06672675  0.06147436  0.63843509  1
  O  O104  1  0.10177644  0.55958296  0.13586837  1
  O  O105  1  0.11248936  0.59257522  0.57123226  1
  O  O106  1  0.59190790  0.13555094  0.06556194  1
  O  O107  1  0.67576514  0.13490341  0.67803548  1
  O  O108  1  0.64976072  0.63154269  0.08321389  1
  O  O109  1  0.57108532  0.63152626  0.70847456  1
  O  O110  1  0.41059342  0.40353883  0.32150395  1
  O  O111  1  0.36944434  0.40238736  0.81113582  1
  O  O112  1  0.41372467  0.89170817  0.39119680  1
  O  O113  1  0.43958446  0.85499062  0.91932751  1
  O  O114  1  0.82720279  0.45999869  0.41075148  1
  O  O115  1  0.90392790  0.38430201  0.88471868  1
  O  O116  1  0.84927003  0.85378231  0.37604334  1
  O  O117  1  0.89274096  0.90315728  0.89318674  1
  O  O118  1  0.24049917  0.01371386  0.38310364  1
  O  O119  1  0.25008683  0.05603046  0.91612005  1
  O  O120  1  0.21432026  0.53033304  0.37745385  1
  O  O121  1  0.26300481  0.52116935  0.81639431  1
  O  O122  1  0.69664851  -0.02804065  0.31303877  1
  O  O123  1  0.77599199  0.01182292  0.89738436  1
  O  O124  1  0.68666965  0.56399272  0.40195985  1
  O  O125  1  0.68147036  0.48296218  0.82087579  1
  O  O126  1  0.29010059  0.56336619  0.12798084  1
  O  O127  1  0.21746826  0.49773160  0.61079793  1
  O  O128  1  0.23234593  1.06731854  0.10450246  1
  O  O129  1  0.28091001  0.93282032  0.70348872  1
  O  O130  1  0.76001349  0.52305927  0.10806611  1
  O  O131  1  0.76230892  0.48259578  0.62308231  1
  O  O132  1  0.76071289  0.97472201  0.11528703  1
  O  O133  1  0.75713449  0.98911108  0.61462877  1
  O  O134  1  -0.06151501  0.35567823  0.30090255  1
  O  O135  1  0.00818681  0.36580438  0.75930822  1
  O  O136  1  -0.00834867  0.87079138  0.24249099  1
  O  O137  1  0.00775026  0.91952467  0.77970688  1
  O  O138  1  0.55113766  0.39123342  0.24472570  1
  O  O139  1  0.45852542  0.36255343  0.63784155  1
  O  O140  1  0.47935346  0.89440376  0.23431078  1
  O  O141  1  0.47038245  0.82677400  0.78257780  1
  O  O142  1  0.52170125  0.09549429  0.24368485  1
  O  O143  1  0.55213357  0.06853781  0.75734317  1
  O  O144  1  0.41694047  0.65558598  0.14229592  1
  O  O145  1  0.43180488  0.66229589  0.69518389  1
  O  O146  1  0.95546534  0.15720102  0.29570777  1
  O  O147  1  0.98839316  0.14352283  0.75980786  1
  O  O148  1  0.95667845  0.64826978  0.26905112  1
  O  O149  1  1.01741177  0.62602464  0.73181226  1
  O  O150  1  0.41997833  0.26832934  -0.02304703  1
  O  O151  1  0.41912996  0.26995391  0.55375230  1
  O  O152  1  0.33215408  0.66012088  -0.01937030  1
  O  O153  1  0.30356178  0.69259153  0.49339679  1
  O  O154  1  0.90950814  0.29753105  0.01702129  1
  O  O155  1  0.88740102  0.24628372  0.52812649  1
  O  O156  1  0.89697245  0.77042399  -0.00516042  1
  O  O157  1  0.91721122  0.78465734  0.50703731  1
  O  O158  1  0.17407729  0.24822266  0.48378782  1
  O  O159  1  0.12274513  0.24260415  0.98046480  1
  O  O160  1  0.17168493  0.80765704  0.53165611  1
  O  O161  1  0.11844093  0.70819013  1.02573368  1
  O  O162  1  0.59176884  0.28791398  0.51239513  1
  O  O163  1  0.60039241  0.32028817  0.94519346  1
  O  O164  1  0.57866954  0.72245883  0.26133865  1
  O  O165  1  0.64998681  0.68734520  1.02001314  1
  O  O166  1  0.50681400  0.31055308  0.10905050  1
  O  O167  1  0.53608735  0.20636983  0.66557061  1
  O  O168  1  0.50206296  0.78207367  0.11893578  1
  O  O169  1  0.53316737  0.71591745  0.60402928  1
  O  O170  1  1.01053893  0.24040944  0.12685298  1
  O  O171  1  0.99751463  0.24976070  0.64622366  1
  O  O172  1  0.98901234  0.73503040  0.10946768  1
  O  O173  1  1.02608871  0.70693573  0.60050303  1
  O  O174  1  0.05652968  0.26201201  0.42167764  1
  O  O175  1  0.01629115  0.26452659  0.87604870  1
  O  O176  1  0.00951966  0.77377667  0.34464446  1
  O  O177  1  0.01298126  0.79593721  0.87635029  1
  O  O178  1  0.51900081  0.30170210  0.37528965  1
  O  O179  1  0.49957566  0.26434065  0.83758466  1
  O  O180  1  0.35580507  0.72937915  0.34527471  1
  O  O181  1  0.49167181  0.72837304  0.89014549  1
  O  O182  1  0.25243448  0.01343114  0.54718978  1
  O  O183  1  0.30597326  0.07002602  0.95613702  1
  O  O184  1  0.27007690  0.63063832  0.52203650  1
  O  O185  1  0.19447055  0.68603426  1.00166328  1
  O  O186  1  0.78162442  0.07371306  0.40125478  1
  O  O187  1  0.78239442  0.13838932  1.01225533  1
  O  O188  1  0.77917686  0.64736668  0.50867145  1
  O  O189  1  0.78807986  0.61408529  0.95008929  1
  O  O190  1  0.22210408  0.35452419  0.00092242  1
  O  O191  1  0.35066965  0.40680572  0.48898133  1
  O  O192  1  0.26691199  0.91557037  -0.01400091  1
  O  O193  1  0.21983134  0.85989826  0.50004843  1
  O  O194  1  0.76907438  0.38950310  -0.01364237  1
  O  O195  1  0.76227428  0.33982459  0.54843426  1
  O  O196  1  0.77626915  0.87590427  -0.00031230  1
  O  O197  1  0.78931262  0.86014748  0.52572755  1
  O  O198  1  0.10877146  0.46994543  0.26508028  1
  O  O199  1  0.13841914  0.48694337  0.73985293  1
  O  O200  1  0.18115944  1.05349174  0.24757757  1
  O  O201  1  0.10746669  1.05622417  0.69388343  1
  O  O202  1  0.50962447  0.56333240  0.23957862  1
  O  O203  1  0.66996338  0.49130969  0.75323297  1
  O  O204  1  0.64699754  0.94741582  0.25767206  1
  O  O205  1  0.53788141  0.88183059  0.63480903  1
  O  O206  1  0.38317787  0.02933954  0.33115542  1
  O  O207  1  0.39081959  -0.03383047  0.81711109  1
  O  O208  1  0.28460530  0.60434983  0.29741009  1
  O  O209  1  0.33283340  0.50642180  0.68484356  1
  O  O210  1  0.84179176  0.00245860  0.24196103  1
  O  O211  1  0.88639789  0.03067092  0.79027729  1
  O  O212  1  0.88753540  0.49510203  0.28289650  1
  O  O213  1  0.89725694  0.52395750  0.74367527  1
  O  O214  1  0.17379808  0.35690088  0.38739566  1
  O  O215  1  0.12169844  0.36670988  0.85440773  1
  O  O216  1  0.12751224  0.88540519  0.34501365  1
  O  O217  1  0.11631835  0.92134022  0.88321022  1
  O  O218  1  0.67033498  0.36057740  0.38882392  1
  O  O219  1  0.53813171  0.41002574  0.77849583  1
  O  O220  1  0.54198089  0.76416052  0.30339475  1
  O  O221  1  0.64158745  0.86425019  0.88099767  1
  O  O222  1  0.38406496  0.18733481  0.10036810  1
  O  O223  1  0.40310047  0.09205153  0.66507613  1
  O  O224  1  0.27368984  0.75902061  0.15097861  1
  O  O225  1  0.42241699  0.61377011  0.56876235  1
  O  O226  1  0.89576363  0.12855478  0.14429619  1
  O  O227  1  0.85767309  0.13026724  0.67046559  1
  O  O228  1  0.86668122  0.64764991  0.09152896  1
  O  O229  1  0.90717513  0.60222444  0.61944144  1
  O  O230  1  0.22258521  0.24698505  0.12422688  1
  O  O231  1  0.22203931  0.06189404  0.58748114  1
  O  O232  1  0.33350157  0.79447222  0.13834798  1
  O  O233  1  0.20243443  0.76915298  0.58985359  1
  O  O234  1  0.79895090  0.23267019  0.24062758  1
  O  O235  1  0.77275457  0.29662564  0.69004966  1
  O  O236  1  0.77249929  0.75723308  0.11353790  1
  O  O237  1  0.70576479  0.70172297  0.66378381  1
  O  O238  1  0.24238796  0.21443107  0.37459283  1
  O  O239  1  0.22477261  0.25511247  0.85524965  1
  O  O240  1  0.19593797  0.71657576  0.38393808  1
  O  O241  1  0.26625823  0.84535170  1.00913096  1
  O  O242  1  0.79437967  0.12701471  0.44478050  1
  O  O243  1  0.79047749  0.25842523  0.90895436  1
  O  O244  1  0.74720389  0.72990955  0.35656296  1
  O  O245  1  0.79440462  0.76330624  0.86334250  1
  O  O246  1  -0.00827257  0.12285082  0.02145635  1
  O  O247  1  -0.02010227  0.10143326  0.46002231  1
  O  O248  1  0.01466461  0.61910991  -0.03377604  1
  O  O249  1  -0.01861192  0.60014154  0.48382130  1
  O  O250  1  0.51240602  0.09488302  -0.07111723  1
  O  O251  1  0.56899880  0.05117943  0.59605237  1
  O  O252  1  0.50629625  0.60403212  0.01047415  1
  O  O253  1  0.55901859  0.58301449  0.56168895  1
  O  O254  1  0.50341509  0.44300634  0.43805761  1
  O  O255  1  0.55020780  0.43286371  0.84968276  1
  O  O256  1  0.48559488  0.78007047  0.48898630  1
  O  O257  1  0.55531696  0.81903800  0.96586581  1
  O  O258  1  0.92651060  0.36369180  0.45038523  1
  O  O259  1  1.04058387  0.38814847  0.97397487  1
  O  O260  1  0.99036485  0.88747536  0.42467287  1
  O  O261  1  0.99333795  0.89961488  0.99941779  1
  O  O262  1  0.50177685  0.63008280  0.38358236  1
  O  O263  1  0.44737687  0.52947975  0.84077338  1
  O  O264  1  0.53376528  1.00638361  0.38130768  1
  O  O265  1  0.53711841  0.92755283  0.84272668  1
  O  O266  1  1.00883516  0.47551944  0.38023682  1
  O  O267  1  1.02276081  0.48440061  0.85642941  1
  O  O268  1  1.01927118  1.00172355  0.34191511  1
  O  O269  1  0.99221715  1.01147574  0.90516855  1
  O  O270  1  -0.02582893  -0.00290063  0.11613501  1
  O  O271  1  0.07032204  -0.10389436  0.63093400  1
  O  O272  1  0.01498543  0.41544694  0.14828959  1
  O  O273  1  0.01711085  0.49899587  0.61203004  1
  O  O274  1  0.45426111  0.00065413  0.06965521  1
  O  O275  1  0.47327358  -0.09134001  0.62772155  1
  O  O276  1  0.52694529  0.55840933  0.17238639  1
  O  O277  1  0.48673672  0.52572035  0.66996944  1
  O  O278  1  0.32732442  0.51371712  0.16179267  1
  O  O279  1  0.22802854  0.36752733  0.73202743  1
  O  O280  1  0.28907538  0.94016890  0.25043171  1
  O  O281  1  0.17180561  0.81155917  0.75703126  1
  O  O282  1  0.71632909  0.46379884  0.25180506  1
  O  O283  1  0.77816100  0.36594656  0.73750665  1
  O  O284  1  0.76341281  0.87087874  0.21492355  1
  O  O285  1  0.75268671  0.84789080  0.69409245  1
  O  O286  1  0.32374866  0.11730594  0.24734701  1
  O  O287  1  0.26450145  0.10894579  0.73903421  1
  O  O288  1  0.22176314  0.56950578  0.30938591  1
  O  O289  1  0.21498555  0.62492505  0.70027216  1
  O  O290  1  0.70546980  0.08524882  0.20369988  1
  O  O291  1  0.78185589  0.14941301  0.80461196  1
  O  O292  1  0.79522685  0.62290935  0.23508678  1
  O  O293  1  0.73812047  0.63579718  0.79616661  1
  O  O294  1  0.45129719  0.15573238  0.37176405  1
  O  O295  1  0.40097184  0.12252835  0.82729771  1
  O  O296  1  0.43390332  0.61738873  0.40902692  1
  O  O297  1  0.39854705  0.59216110  0.85106934  1
  O  O298  1  0.92355670  0.19690153  0.34543416  1
  O  O299  1  0.88229640  0.12605981  0.90286310  1
  O  O300  1  0.83753793  0.61474592  0.37848013  1
  O  O301  1  0.89968032  0.64765390  0.83602190  1
  O  O302  1  0.18443332  0.41174486  0.14050829  1
  O  O303  1  0.11241323  0.38415601  0.63699869  1
  O  O304  1  0.15263778  0.93705391  0.15160570  1
  O  O305  1  0.13356001  0.91193879  0.65381185  1
  O  O306  1  0.65989483  0.38022080  0.12195006  1
  O  O307  1  0.63991992  0.38034909  0.64088594  1
  O  O308  1  0.65672073  0.85674887  0.10309837  1
  O  O309  1  0.69292026  0.73563557  0.60375067  1
  O  O310  1  0.13871559  0.28315980  0.29033124  1
  O  O311  1  0.11151115  0.26028074  0.74527120  1
  O  O312  1  0.08161606  0.72962725  0.22067856  1
  O  O313  1  0.12124286  0.76390657  0.74252803  1
  O  O314  1  0.61228716  0.24662580  0.20566348  1
  O  O315  1  0.65128166  0.28800147  0.79864986  1
  O  O316  1  0.40763923  0.66480780  0.21036605  1
  O  O317  1  0.59080039  0.76641452  0.80495787  1
  O  O318  1  0.43077579  0.22882349  0.24211225  1
  O  O319  1  0.35484322  0.24081021  0.72985299  1
  O  O320  1  0.32216601  0.77422933  0.30250799  1
  O  O321  1  0.29112020  0.79384243  0.84181999  1
  O  O322  1  0.78245794  0.20041801  0.30057081  1
  O  O323  1  0.89855930  0.24749819  0.76853397  1
  O  O324  1  0.88869865  0.76412656  0.21314083  1
  O  O325  1  0.88328686  0.71981378  0.70427506  1
  O  O326  1  0.34225891  0.47896602  0.48119084  1
  O  O327  1  0.32601306  0.47954062  0.95166786  1
  O  O328  1  0.41439885  1.01186230  0.49750509  1
  O  O329  1  0.38990691  0.97405654  1.06160605  1
  O  O330  1  0.82875243  0.45905398  0.49030747  1
  O  O331  1  0.90045082  0.46394664  1.02359581  1
  O  O332  1  0.90736187  0.96730595  0.48964205  1
  O  O333  1  0.88511155  0.99645113  1.00243964  1
  O  O334  1  0.10136103  0.01907973  0.03521369  1
  O  O335  1  0.08377523  -0.00943742  0.48867701  1
  O  O336  1  0.16327881  0.53212928  -0.02084458  1
  O  O337  1  0.12145548  0.45845621  0.49305552  1
  O  O338  1  0.62790587  0.00308179  -0.01364217  1
  O  O339  1  0.61570536  -0.11656175  0.54607144  1
  O  O340  1  0.62241931  0.49404910  0.00089972  1
  O  O341  1  0.54673046  0.48821606  0.38723707  1
  O  O342  1  0.34367735  0.34555648  0.09862363  1
  O  O343  1  0.39555433  0.31417796  0.60357863  1
  O  O344  1  0.47749666  0.85009725  0.12419415  1
  O  O345  1  0.29229207  0.88590128  0.65285955  1
  O  O346  1  0.82111661  0.38699912  0.16348098  1
  O  O347  1  0.89846326  0.38105712  0.61423725  1
  O  O348  1  0.87773994  0.86373300  0.10107029  1
  O  O349  1  0.89404208  0.88497910  0.63888314  1
  O  O350  1  0.11494406  0.15934168  0.36151966  1
  O  O351  1  0.12239039  0.14475896  0.85842561  1
  O  O352  1  0.14237872  0.68374007  0.41602469  1
  O  O353  1  0.12880431  0.63847525  0.86423524  1
  O  O354  1  0.63519113  0.19165358  0.38979617  1
  O  O355  1  0.66999172  0.14601819  0.91634945  1
  O  O356  1  0.64093360  0.69658370  0.46092971  1
  O  O357  1  0.60652844  0.60911873  0.89267090  1
