# generated using pymatgen
data_V51Zn51O256
_symmetry_space_group_name_H-M   'P 1'
_cell_length_a   17.56520384
_cell_length_b   17.38399406
_cell_length_c   17.60621396
_cell_angle_alpha   90.78368967
_cell_angle_beta   90.33924918
_cell_angle_gamma   90.34543945
_symmetry_Int_Tables_number   1
_chemical_formula_structural   V51Zn51O256
_chemical_formula_sum   'V51 Zn51 O256'
_cell_volume   5375.41979555
_cell_formula_units_Z   1
loop_
 _symmetry_equiv_pos_site_id
 _symmetry_equiv_pos_as_xyz
  1  'x, y, z'
loop_
 _atom_site_type_symbol
 _atom_site_label
 _atom_site_symmetry_multiplicity
 _atom_site_fract_x
 _atom_site_fract_y
 _atom_site_fract_z
 _atom_site_occupancy
  V  V0  1  0.62335803  0.02820286  0.12516585  1
  V  V1  1  0.76889264  0.79074433  0.45366618  1
  V  V2  1  0.70968203  0.63060641  0.38117930  1
  V  V3  1  0.24569934  0.00995185  0.23496696  1
  V  V4  1  0.02578409  0.37216422  0.35427110  1
  V  V5  1  0.88172498  0.47130603  0.44562033  1
  V  V6  1  0.75579511  0.90270592  0.11536544  1
  V  V7  1  0.24420021  0.51369899  0.22945764  1
  V  V8  1  -0.00969181  0.71097500  0.76742297  1
  V  V9  1  0.50440074  0.24364113  0.27119701  1
  V  V10  1  0.00287754  0.12993930  0.16147623  1
  V  V11  1  0.26600237  0.85980694  0.13244452  1
  V  V12  1  -0.03252990  0.75892174  0.26423420  1
  V  V13  1  0.93865429  0.88577723  0.52458185  1
  V  V14  1  0.90654009  0.21571248  0.62646290  1
  V  V15  1  0.12115086  0.87233798  0.24809751  1
  V  V16  1  0.17427897  0.62835203  0.51161532  1
  V  V17  1  -0.02273013  0.63381820  0.14732285  1
  V  V18  1  0.64138496  0.61821863  -0.03263076  1
  V  V19  1  0.50249792  0.34068188  0.83396973  1
  V  V20  1  0.00776540  0.62518172  0.59066520  1
  V  V21  1  0.37688826  -0.00471902  0.33796932  1
  V  V22  1  0.29976050  0.16720036  0.73238915  1
  V  V23  1  0.65295172  0.23568012  0.39838294  1
  V  V24  1  0.68036984  0.32808204  0.73812544  1
  V  V25  1  -0.02092443  0.50904647  0.01410248  1
  V  V26  1  0.00330842  0.00352242  -0.00979248  1
  V  V27  1  0.59803543  0.09814085  0.49794575  1
  V  V28  1  0.74217628  -0.00397655  0.73262533  1
  V  V29  1  0.18182119  0.76429546  0.35945309  1
  V  V30  1  0.75084363  0.01859371  0.26405469  1
  V  V31  1  0.09471512  0.64663218  0.00223284  1
  V  V32  1  0.12169678  0.38751939  0.74808001  1
  V  V33  1  0.37849624  0.22593157  0.08260195  1
  V  V34  1  0.37901023  0.39966295  0.45418420  1
  V  V35  1  0.42026873  0.49657902  0.85472840  1
  V  V36  1  0.67740583  0.49384371  0.62897251  1
  V  V37  1  0.87383750  0.89643561  -0.00951769  1
  V  V38  1  0.45460733  0.84005382  0.85087208  1
  V  V39  1  0.05729656  0.85994314  0.80861539  1
  V  V40  1  0.87632602  0.73362976  0.63406643  1
  V  V41  1  0.87078938  0.27827137  0.17660610  1
  V  V42  1  0.25456223  0.75345184  -0.00480594  1
  V  V43  1  0.10879342  0.14799845  0.00234874  1
  V  V44  1  0.64101506  0.37279492  0.28365730  1
  V  V45  1  0.38011875  -0.01317978  0.94984155  1
  V  V46  1  0.67052916  0.14663704  0.02551304  1
  V  V47  1  0.62940068  0.47716734  0.07508610  1
  V  V48  1  0.60508608  0.89026903  0.23096160  1
  V  V49  1  0.22171522  0.91924095  0.60875764  1
  V  V50  1  0.51777837  0.58015536  0.62919209  1
  Zn  Zn51  1  0.29827936  0.33963105  0.84462187  1
  Zn  Zn52  1  0.41724516  0.67290944  0.93811644  1
  Zn  Zn53  1  0.16926038  0.69709571  0.17129606  1
  Zn  Zn54  1  0.43230174  0.96457124  0.14942996  1
  Zn  Zn55  1  0.41669969  0.17528429  0.90353073  1
  Zn  Zn56  1  0.97187718  0.42537299  0.17278577  1
  Zn  Zn57  1  0.02831877  0.81731301  0.07884302  1
  Zn  Zn58  1  0.28870408  0.06316406  0.06342717  1
  Zn  Zn59  1  0.91463336  0.99135280  0.17518042  1
  Zn  Zn60  1  0.70613193  0.20210780  0.21399517  1
  Zn  Zn61  1  0.02355279  0.30113730  0.06217959  1
  Zn  Zn62  1  0.81722443  0.87004239  0.28252047  1
  Zn  Zn63  1  0.40735049  0.44511283  0.69118123  1
  Zn  Zn64  1  0.18827118  0.93613919  0.95077045  1
  Zn  Zn65  1  0.70407088  0.98051558  0.94054827  1
  Zn  Zn66  1  0.37172213  0.36577065  0.25583526  1
  Zn  Zn67  1  0.97945026  0.41786906  0.60953296  1
  Zn  Zn68  1  0.20730979  0.19620492  0.14622375  1
  Zn  Zn69  1  0.66288115  0.72884505  0.13382900  1
  Zn  Zn70  1  0.11954087  -0.01812391  0.12219367  1
  Zn  Zn71  1  0.56368924  0.07689560  0.30937681  1
  Zn  Zn72  1  0.09718662  0.25822149  0.59835345  1
  Zn  Zn73  1  0.49977431  0.37291852  0.14133573  1
  Zn  Zn74  1  0.19853983  0.44781232  0.42964807  1
  Zn  Zn75  1  0.92239034  0.66941162  0.42989136  1
  Zn  Zn76  1  0.19559037  0.95809736  0.40482332  1
  Zn  Zn77  1  0.58278327  0.57130741  0.79213301  1
  Zn  Zn78  1  0.10207260  0.77486966  0.63343988  1
  Zn  Zn79  1  1.03735112  0.24988212  0.87326036  1
  Zn  Zn80  1  0.34982449  0.96130967  0.76163748  1
  Zn  Zn81  1  0.54905923  0.29886207  0.00549172  1
  Zn  Zn82  1  0.69330279  0.43657781  0.45160980  1
  Zn  Zn83  1  0.95389816  0.74234484  0.93999141  1
  Zn  Zn84  1  0.49481863  0.24385035  0.47842970  1
  Zn  Zn85  1  0.66447253  0.93090197  0.42417318  1
  Zn  Zn86  1  0.53071905  0.40690612  0.55023348  1
  Zn  Zn87  1  0.80096103  0.32360054  0.34498867  1
  Zn  Zn88  1  0.95527465  0.20996879  0.32461602  1
  Zn  Zn89  1  0.71034513  0.83243755  0.61925477  1
  Zn  Zn90  1  0.79765400  0.57197707  0.07639309  1
  Zn  Zn91  1  0.03236874  0.56441702  0.84211934  1
  Zn  Zn92  1  0.10372067  0.12312415  0.72984612  1
  Zn  Zn93  1  0.80820818  0.67855367  0.22148610  1
  Zn  Zn94  1  0.13009645  0.46672822  1.09399104  1
  Zn  Zn95  1  0.70606524  0.15997562  0.63481045  1
  Zn  Zn96  1  0.67634255  0.67739306  0.57664070  1
  Zn  Zn97  1  0.34632914  0.55503229  0.56083710  1
  Zn  Zn98  1  0.64373327  0.57478131  0.22602604  1
  Zn  Zn99  1  0.53855003  -0.03109707  0.74456409  1
  Zn  Zn100  1  0.82585240  0.07973113  0.07172629  1
  Zn  Zn101  1  0.86345147  0.29364582  0.80447138  1
  O  O102  1  0.08926735  0.17569255  0.13203054  1
  O  O103  1  0.10567931  0.15028947  0.62712913  1
  O  O104  1  0.08287950  0.65209441  0.12350692  1
  O  O105  1  0.12091987  0.65684068  0.59573140  1
  O  O106  1  0.65366948  0.14393449  0.12502886  1
  O  O107  1  0.61425378  0.10441006  0.60235354  1
  O  O108  1  0.71642507  0.63995595  0.16916464  1
  O  O109  1  0.60880628  0.58858592  0.58197987  1
  O  O110  1  0.39929771  0.38979848  0.35977794  1
  O  O111  1  0.38809265  0.39440000  0.86844395  1
  O  O112  1  0.38032306  0.90715359  0.36589679  1
  O  O113  1  0.43924042  0.90378669  0.93058224  1
  O  O114  1  0.80197942  0.48915750  0.25730404  1
  O  O115  1  0.86733898  0.42721343  0.77320374  1
  O  O116  1  0.90878528  0.91082925  0.42159587  1
  O  O117  1  0.87190839  0.90892968  0.89913665  1
  O  O118  1  0.26519102  0.01295019  0.34253589  1
  O  O119  1  0.27440652  0.01223149  0.96027811  1
  O  O120  1  0.22936961  0.50202111  0.32800361  1
  O  O121  1  0.21140882  0.48028354  0.96311886  1
  O  O122  1  0.72830656  -0.00464990  0.35512274  1
  O  O123  1  0.71106770  -0.01507800  0.83242350  1
  O  O124  1  0.70565006  0.54294002  0.42128411  1
  O  O125  1  0.82757965  0.58482721  0.84988863  1
  O  O126  1  0.24235911  0.50093136  0.12632635  1
  O  O127  1  0.32880936  0.46584480  0.62177792  1
  O  O128  1  0.23569997  0.98001217  0.12917198  1
  O  O129  1  0.19630945  1.01585688  0.60634661  1
  O  O130  1  0.72451028  0.48273474  0.09269403  1
  O  O131  1  0.75622607  0.53422485  0.59966182  1
  O  O132  1  0.74951038  1.01947423  0.13625273  1
  O  O133  1  0.77958844  1.00764962  0.64142424  1
  O  O134  1  0.02270204  0.37283203  0.25614167  1
  O  O135  1  0.02483655  0.39948197  0.71263738  1
  O  O136  1  0.02381208  0.85393550  0.26820742  1
  O  O137  1  -0.01647918  0.80618104  0.84768381  1
  O  O138  1  0.55225910  0.33820461  0.23585455  1
  O  O139  1  0.45295187  0.36248597  0.74452672  1
  O  O140  1  0.51259027  0.91784024  0.21155750  1
  O  O141  1  0.37906433  0.85331125  0.78941849  1
  O  O142  1  0.52245949  0.15343665  0.23782974  1
  O  O143  1  0.44080812  -0.00651888  0.71587334  1
  O  O144  1  0.49294233  0.80979969  0.35939270  1
  O  O145  1  0.51527423  0.62146964  0.71721381  1
  O  O146  1  1.00769523  0.14491606  0.25781475  1
  O  O147  1  1.03906050  0.17090965  0.79883380  1
  O  O148  1  0.97951051  0.65410874  0.24944998  1
  O  O149  1  1.02417828  0.62069866  0.74138855  1
  O  O150  1  0.36483179  0.22627816  -0.01546808  1
  O  O151  1  0.26529404  0.18470342  0.64205963  1
  O  O152  1  0.34818566  0.72524923  0.00431561  1
  O  O153  1  0.36449136  0.77503292  0.48035910  1
  O  O154  1  0.85330141  0.34773557  -0.01649157  1
  O  O155  1  0.85385140  0.19897014  0.54357567  1
  O  O156  1  0.87678436  0.79527176  -0.00292374  1
  O  O157  1  0.85792261  0.75449669  0.47392506  1
  O  O158  1  0.18496819  0.27617601  0.54718169  1
  O  O159  1  0.07349336  0.24513614  0.97903949  1
  O  O160  1  0.15537915  0.73227462  0.46082034  1
  O  O161  1  0.05231094  0.74259652  0.99756564  1
  O  O162  1  0.60975534  0.25688746  0.48438116  1
  O  O163  1  0.61951038  0.21642249  0.98154631  1
  O  O164  1  0.71735877  0.86128398  0.50926071  1
  O  O165  1  0.61166133  0.71004433  1.02446228  1
  O  O166  1  0.47135322  0.27639290  0.08528743  1
  O  O167  1  0.38626425  0.15090047  0.68874920  1
  O  O168  1  0.39990991  0.69346213  0.19708969  1
  O  O169  1  0.53478815  0.73103177  0.48600267  1
  O  O170  1  0.95529310  0.24303100  0.12936933  1
  O  O171  1  0.99243801  0.22033705  0.57298421  1
  O  O172  1  0.98510725  0.75322517  0.15686285  1
  O  O173  1  0.99779303  0.72559146  0.64479325  1
  O  O174  1  -0.00169286  0.28373040  0.39057466  1
  O  O175  1  -0.05452447  0.30569557  0.87057546  1
  O  O176  1  -0.02544307  0.74143457  0.36073551  1
  O  O177  1  -0.03914290  0.66708013  0.85536688  1
  O  O178  1  0.49171396  0.24171748  0.36690418  1
  O  O179  1  0.48289254  0.24504690  0.84931491  1
  O  O180  1  0.50447729  0.83699419  0.42756099  1
  O  O181  1  0.46728928  0.74523202  0.87646422  1
  O  O182  1  0.20877909  0.18783766  0.41423837  1
  O  O183  1  0.20064432  0.13592379  1.04941444  1
  O  O184  1  0.26909773  0.63212266  0.53179593  1
  O  O185  1  0.19185797  0.67223795  1.02466210  1
  O  O186  1  0.70256951  0.13296779  0.52774060  1
  O  O187  1  0.76585612  0.14632532  1.00498951  1
  O  O188  1  0.70672968  0.70358886  0.46198391  1
  O  O189  1  0.73504265  0.61998857  0.99375312  1
  O  O190  1  0.18422132  0.36311155  0.07200488  1
  O  O191  1  0.28174220  0.38371490  0.46062960  1
  O  O192  1  0.23698026  0.85699128  0.02510874  1
  O  O193  1  0.20283111  0.92699857  0.50959597  1
  O  O194  1  0.79266960  0.31247527  -0.01855656  1
  O  O195  1  0.80121461  0.41121471  0.41710885  1
  O  O196  1  0.76794303  0.92722435  0.00961010  1
  O  O197  1  0.84573804  0.90883170  0.46770215  1
  O  O198  1  0.14150696  0.49074795  0.20570476  1
  O  O199  1  0.09465582  0.47591364  0.79195165  1
  O  O200  1  0.13960835  0.97549316  0.25612260  1
  O  O201  1  0.01199575  0.92360483  0.75416056  1
  O  O202  1  0.64004199  0.46904094  0.27080596  1
  O  O203  1  0.65243442  0.53345827  0.71625504  1
  O  O204  1  0.63477668  1.02110186  0.23371519  1
  O  O205  1  0.63894906  0.97961441  0.70987930  1
  O  O206  1  0.35279954  -0.00134784  0.23298025  1
  O  O207  1  0.31461792  -0.04486681  0.86503589  1
  O  O208  1  0.33312372  0.55202326  0.22585486  1
  O  O209  1  0.37397615  0.52003495  0.77318929  1
  O  O210  1  0.84925106  -0.02147940  0.26487565  1
  O  O211  1  0.82909032  -0.00320380  0.77620842  1
  O  O212  1  0.86887150  0.50859231  0.26087287  1
  O  O213  1  0.87400334  0.46659117  0.71491988  1
  O  O214  1  0.11466119  0.39118787  0.38881730  1
  O  O215  1  0.09958584  0.33309245  0.83148384  1
  O  O216  1  0.15502460  0.86500361  0.36127051  1
  O  O217  1  0.12856671  0.89553211  0.86683820  1
  O  O218  1  0.64000310  0.35921181  0.38408931  1
  O  O219  1  0.59916709  0.34563144  0.79415486  1
  O  O220  1  0.61363524  0.89225543  0.32816820  1
  O  O221  1  0.66953514  0.84468729  0.92270784  1
  O  O222  1  0.37091167  0.13051099  0.10659379  1
  O  O223  1  0.29672746  0.06556463  0.74651157  1
  O  O224  1  0.45266286  0.64972843  0.20911446  1
  O  O225  1  0.44213238  0.61531732  0.57919343  1
  O  O226  1  0.90099232  0.10723794  0.14995063  1
  O  O227  1  0.94042817  0.12493231  0.65122679  1
  O  O228  1  0.87278654  0.63678478  0.13665258  1
  O  O229  1  0.89928742  0.64208868  0.59731583  1
  O  O230  1  0.29605875  0.26371473  0.12321310  1
  O  O231  1  0.19974844  0.16307890  0.76008583  1
  O  O232  1  0.24985012  0.75994938  0.13357798  1
  O  O233  1  0.20780532  0.81454674  0.59482225  1
  O  O234  1  0.78570858  0.24123871  0.14465046  1
  O  O235  1  0.80913612  0.19866765  0.66196777  1
  O  O236  1  0.73375555  0.80840035  0.09936865  1
  O  O237  1  0.77542657  0.73322879  0.62263887  1
  O  O238  1  0.26085039  0.27419003  0.30102256  1
  O  O239  1  0.23414766  0.29509950  0.91253113  1
  O  O240  1  0.27332131  0.76112280  0.35452810  1
  O  O241  1  0.23655880  0.75588758  0.90455502  1
  O  O242  1  0.74872647  0.24353909  0.40609437  1
  O  O243  1  0.84038451  0.17619915  0.86311876  1
  O  O244  1  0.76000815  0.81867421  0.36280843  1
  O  O245  1  0.78312625  0.75571269  0.86410244  1
  O  O246  1  0.01441655  0.10643713  0.02316735  1
  O  O247  1  -0.09022747  0.06269084  0.42322993  1
  O  O248  1  -0.01969129  0.61692097  0.02675037  1
  O  O249  1  0.00963092  0.63703061  0.49507002  1
  O  O250  1  0.56486677  0.13809752  -0.22450591  1
  O  O251  1  0.50729911  0.13628384  0.50482444  1
  O  O252  1  0.55031267  0.65628752  0.01807037  1
  O  O253  1  0.51336991  0.68162529  0.44097841  1
  O  O254  1  0.45076967  0.34249035  0.51048844  1
  O  O255  1  0.52344544  0.37007397  0.92698410  1
  O  O256  1  0.38618729  0.75554221  0.54345380  1
  O  O257  1  0.63053721  0.80356311  0.88007512  1
  O  O258  1  1.05847546  0.35605182  0.56119827  1
  O  O259  1  1.02418573  0.41499960  1.06866521  1
  O  O260  1  1.03594219  0.86445271  0.47550701  1
  O  O261  1  0.98294691  0.89902415  1.01704959  1
  O  O262  1  0.41452933  0.59442010  0.35716988  1
  O  O263  1  0.51540234  0.49163270  0.83212396  1
  O  O264  1  0.46659732  1.03530866  0.34297358  1
  O  O265  1  0.53286265  0.87747497  0.80291061  1
  O  O266  1  0.95838628  0.44317774  0.38606229  1
  O  O267  1  0.98255696  0.49759117  0.91733600  1
  O  O268  1  1.07031147  1.05996853  0.47387836  1
  O  O269  1  1.00198876  1.00709995  0.89849842  1
  O  O270  1  0.02242457  0.02571126  0.15757241  1
  O  O271  1  0.02776026  -0.18155502  0.53616820  1
  O  O272  1  -0.01192474  0.53551321  0.15814899  1
  O  O273  1  0.01125696  0.53011554  0.61006816  1
  O  O274  1  0.52986351  0.03813527  0.11955320  1
  O  O275  1  0.48259287  -0.09023768  0.55569167  1
  O  O276  1  0.58281005  0.53525434  0.13860394  1
  O  O277  1  0.50194579  0.47800366  0.63459298  1
  O  O278  1  0.27077438  0.41481848  0.23788386  1
  O  O279  1  0.21631431  0.39548256  0.78764242  1
  O  O280  1  0.23697068  0.88025084  0.23010651  1
  O  O281  1  0.25626942  0.92380104  0.70395253  1
  O  O282  1  0.73132817  0.34760583  0.25512793  1
  O  O283  1  0.75909419  0.30791683  0.79418838  1
  O  O284  1  0.72502726  0.90421445  0.22132922  1
  O  O285  1  0.74092890  0.89319639  0.70852109  1
  O  O286  1  0.22850731  0.10332471  0.21823556  1
  O  O287  1  0.10658520  0.02169877  0.75307034  1
  O  O288  1  0.21350955  0.61119823  0.23527663  1
  O  O289  1  0.22232504  0.61320464  0.74509449  1
  O  O290  1  0.76031837  0.11581317  0.26339346  1
  O  O291  1  0.72182581  0.09476179  0.73124488  1
  O  O292  1  0.79000470  0.64570971  0.32708442  1
  O  O293  1  0.74032210  0.73971599  0.81103325  1
  O  O294  1  0.34021917  0.10773871  0.46869120  1
  O  O295  1  0.42696909  0.06606212  0.91606728  1
  O  O296  1  0.36070588  0.63492640  0.37650264  1
  O  O297  1  0.40413501  0.56642775  0.92434959  1
  O  O298  1  0.88627740  0.11884252  0.38716505  1
  O  O299  1  0.89067723  0.13041745  0.88311106  1
  O  O300  1  0.87340827  0.56811411  0.43506002  1
  O  O301  1  0.80273990  0.59023963  0.78518882  1
  O  O302  1  0.14724682  0.31458185  0.11143836  1
  O  O303  1  0.16631881  0.42220035  0.66716442  1
  O  O304  1  0.11202760  0.86549731  0.14606863  1
  O  O305  1  0.12678262  0.89257340  0.64737312  1
  O  O306  1  0.59217102  0.38225883  0.07853263  1
  O  O307  1  0.70830142  0.40057968  0.67521006  1
  O  O308  1  0.63584832  0.92793140  0.11239925  1
  O  O309  1  0.48577685  0.85360471  0.59699350  1
  O  O310  1  0.20096829  0.26616575  0.26410035  1
  O  O311  1  0.12051113  0.29165316  0.70394268  1
  O  O312  1  0.14153081  0.75742319  0.26362381  1
  O  O313  1  0.08108607  0.77369668  0.75032715  1
  O  O314  1  0.63399466  0.24021931  0.29409411  1
  O  O315  1  0.66167731  0.24817476  0.68393557  1
  O  O316  1  0.60752408  0.79489860  0.20300298  1
  O  O317  1  0.62432479  0.76836775  0.61552346  1
  O  O318  1  0.41488197  0.26608882  0.23364167  1
  O  O319  1  0.33228748  0.17298999  0.83093977  1
  O  O320  1  0.45521522  0.74703350  0.35169572  1
  O  O321  1  0.24074697  0.60898733  0.81210057  1
  O  O322  1  0.87185106  0.26691074  0.27869828  1
  O  O323  1  0.92666146  0.24842750  0.72430136  1
  O  O324  1  0.86859230  0.77517242  0.25187119  1
  O  O325  1  0.89052632  0.73254941  0.73449718  1
  O  O326  1  0.39513785  0.49426255  0.47718022  1
  O  O327  1  0.27662158  0.45393632  0.96100516  1
  O  O328  1  0.36566558  1.04165913  0.45758088  1
  O  O329  1  0.38777209  0.99051368  1.04908697  1
  O  O330  1  0.90508348  0.44862181  0.53618614  1
  O  O331  1  0.88542774  0.50104668  1.03828503  1
  O  O332  1  0.96138352  0.96687324  0.56378432  1
  O  O333  1  0.89822746  1.00840496  1.01862120  1
  O  O334  1  0.10724763  -0.01101810  0.01341113  1
  O  O335  1  0.11896060  0.05012165  0.42290560  1
  O  O336  1  0.09314871  0.53846523  0.02456903  1
  O  O337  1  0.15926918  0.53378716  0.48996173  1
  O  O338  1  0.64190325  0.04744127  0.00682759  1
  O  O339  1  0.59840936  0.00118987  0.48077070  1
  O  O340  1  0.61330626  0.52014696  -0.01650693  1
  O  O341  1  0.63402352  0.43731888  0.54480097  1
  O  O342  1  0.41684475  0.42741232  0.17887319  1
  O  O343  1  0.31227614  0.27063260  0.75528510  1
  O  O344  1  0.36023037  0.86810571  0.13568097  1
  O  O345  1  0.31885190  0.91645835  0.59082768  1
  O  O346  1  0.87276598  0.37406167  0.15944161  1
  O  O347  1  0.90668577  0.32178120  0.62122645  1
  O  O348  1  0.85498301  0.90275707  0.12886976  1
  O  O349  1  0.89332259  0.83058814  0.60211166  1
  O  O350  1  0.14529442  0.21534281  0.40652623  1
  O  O351  1  0.12705033  0.11620949  0.91666317  1
  O  O352  1  0.15165497  0.66509894  0.40676685  1
  O  O353  1  0.10181403  0.62414063  0.90758216  1
  O  O354  1  0.62502340  0.13100001  0.39736715  1
  O  O355  1  0.55033900  0.07896467  0.81273153  1
  O  O356  1  0.63341052  0.63688707  0.32065943  1
  O  O357  1  0.63229182  0.63145825  0.87208316  1
