# generated using pymatgen
data_V51Zn51O256
_symmetry_space_group_name_H-M   'P 1'
_cell_length_a   17.23134173
_cell_length_b   17.28305342
_cell_length_c   17.10502766
_cell_angle_alpha   90.16533316
_cell_angle_beta   89.78769078
_cell_angle_gamma   90.17413481
_symmetry_Int_Tables_number   1
_chemical_formula_structural   V51Zn51O256
_chemical_formula_sum   'V51 Zn51 O256'
_cell_volume   5093.97216038
_cell_formula_units_Z   1
loop_
 _symmetry_equiv_pos_site_id
 _symmetry_equiv_pos_as_xyz
  1  'x, y, z'
loop_
 _atom_site_type_symbol
 _atom_site_label
 _atom_site_symmetry_multiplicity
 _atom_site_fract_x
 _atom_site_fract_y
 _atom_site_fract_z
 _atom_site_occupancy
  V  V0  1  0.40060273  0.59492610  0.73920700  1
  V  V1  1  0.32829815  0.09269035  0.79682396  1
  V  V2  1  0.61820403  0.74735241  0.85558955  1
  V  V3  1  0.12008294  0.06058198  0.01832538  1
  V  V4  1  0.09175086  0.87990097  0.78013499  1
  V  V5  1  0.02632113  0.08651556  0.16373330  1
  V  V6  1  0.12418161  0.63466788  -0.00829577  1
  V  V7  1  0.14315174  0.27431127  0.89027741  1
  V  V8  1  0.76606938  0.76073321  0.45543100  1
  V  V9  1  0.65638414  0.25755799  0.41955268  1
  V  V10  1  0.25131959  0.75098052  0.01692854  1
  V  V11  1  0.38030422  0.85804141  0.02664647  1
  V  V12  1  0.60920020  0.36269348  0.76820785  1
  V  V13  1  0.23301354  0.63125207  0.37923177  1
  V  V14  1  0.48650939  0.50689200  -0.01422846  1
  V  V15  1  0.74816001  0.75613186  -0.00217389  1
  V  V16  1  0.74291608  0.02487284  0.77661586  1
  V  V17  1  0.40049587  0.26941866  0.62512649  1
  V  V18  1  0.62232124  0.20585387  0.89939664  1
  V  V19  1  0.86911455  0.74024858  0.61670578  1
  V  V20  1  0.49297364  0.64043151  0.11563427  1
  V  V21  1  0.25464092  0.63609817  0.85063184  1
  V  V22  1  0.86158468  0.25319259  0.62657283  1
  V  V23  1  0.39228913  0.13692499  0.26077088  1
  V  V24  1  0.75619341  0.87124836  0.62837844  1
  V  V25  1  0.01483684  0.03715917  0.53533446  1
  V  V26  1  0.10968184  0.50902905  0.12361095  1
  V  V27  1  0.84674497  0.53728495  0.83825709  1
  V  V28  1  0.25622812  -0.01765657  0.26453833  1
  V  V29  1  0.89332193  0.77115075  0.08670128  1
  V  V30  1  0.49869869  -0.01427482  0.02293021  1
  V  V31  1  0.25689730  0.49442201  0.24504164  1
  V  V32  1  -0.00141279  0.73883611  0.75880060  1
  V  V33  1  0.37415628  0.64557559  0.24217106  1
  V  V34  1  0.63400291  0.62236389  -0.00604618  1
  V  V35  1  0.01072899  0.62518430  0.59721830  1
  V  V36  1  0.87468075  0.27481530  0.12534041  1
  V  V37  1  0.01847291  0.50374328  -0.06138965  1
  V  V38  1  0.89769426  0.58192683  0.27068023  1
  V  V39  1  -0.02592568  0.81987906  0.36541318  1
  V  V40  1  0.50542339  0.20650142  0.76864343  1
  V  V41  1  0.38310164  0.37332946  -0.02013861  1
  V  V42  1  0.62234432  0.00140372  0.61576847  1
  V  V43  1  0.39926759  0.26077273  0.12958720  1
  V  V44  1  0.74969856  0.59956082  0.35431415  1
  V  V45  1  0.61949377  0.49958495  0.13751957  1
  V  V46  1  0.24902839  0.87994013  0.61002888  1
  V  V47  1  0.61926366  0.64269143  0.47882275  1
  V  V48  1  0.24825489  0.37935308  0.11237091  1
  V  V49  1  0.85979520  0.12116251  0.24988687  1
  V  V50  1  0.47847833  0.86035513  0.86923401  1
  Zn  Zn51  1  0.88302173  0.89486476  0.73901473  1
  Zn  Zn52  1  0.76753245  0.19177499  0.01799586  1
  Zn  Zn53  1  0.41923381  0.46233561  0.16017317  1
  Zn  Zn54  1  0.17476332  0.70962200  0.67859258  1
  Zn  Zn55  1  0.87538979  0.62077392  0.48438203  1
  Zn  Zn56  1  0.66481787  0.45855441  0.90500552  1
  Zn  Zn57  1  0.31408788  0.56815904  0.05676102  1
  Zn  Zn58  1  0.26302640  0.27562984  0.25520894  1
  Zn  Zn59  1  0.18955319  0.66684410  0.17332611  1
  Zn  Zn60  1  0.04897767  0.81066501  -0.04451967  1
  Zn  Zn61  1  0.99243795  0.21047798  1.01224347  1
  Zn  Zn62  1  0.37170037  0.51339226  0.37194303  1
  Zn  Zn63  1  0.10382132  0.57658438  0.78039378  1
  Zn  Zn64  1  0.44792433  0.20990451  0.43904017  1
  Zn  Zn65  1  0.56332410  0.32513718  0.05616246  1
  Zn  Zn66  1  0.65643877  0.93961155  0.92651476  1
  Zn  Zn67  1  0.31248593  0.57360941  0.56206184  1
  Zn  Zn68  1  0.12277342  0.07754272  0.81286146  1
  Zn  Zn69  1  0.45173187  0.17592046  0.97149638  1
  Zn  Zn70  1  0.41253294  0.39575525  0.77096578  1
  Zn  Zn71  1  0.90377182  0.47094490  0.64699999  1
  Zn  Zn72  1  0.20560659  0.46014750  0.93895519  1
  Zn  Zn73  1  0.76540039  0.62745302  0.14528426  1
  Zn  Zn74  1  0.43787091  0.94522110  0.69514015  1
  Zn  Zn75  1  0.56005639  0.56387903  0.81220117  1
  Zn  Zn76  1  0.31558992  0.80619226  0.34147046  1
  Zn  Zn77  1  0.64975994  0.73717840  0.64845809  1
  Zn  Zn78  1  0.42434665  0.69387772  0.92352711  1
  Zn  Zn79  1  0.04187208  0.82542820  0.56355089  1
  Zn  Zn80  1  0.92003119  0.93548988  0.20416414  1
  Zn  Zn81  1  0.57028233  0.60340453  0.29208303  1
  Zn  Zn82  1  0.91580983  0.19341854  0.43472088  1
  Zn  Zn83  1  0.21238780  0.20244535  0.70877891  1
  Zn  Zn84  1  0.57940433  0.82463347  0.05151484  1
  Zn  Zn85  1  0.78785866  0.43421338  0.18716556  1
  Zn  Zn86  1  0.43942508  0.70397908  0.41579216  1
  Zn  Zn87  1  0.77880852  0.22770849  0.81489293  1
  Zn  Zn88  1  0.83717443  0.03609783  0.62588334  1
  Zn  Zn89  1  0.04109606  0.16892609  0.68083090  1
  Zn  Zn90  1  0.81090544  0.74487378  0.81340466  1
  Zn  Zn91  1  0.10588900  0.05777259  0.34270582  1
  Zn  Zn92  1  1.02859153  0.63952933  0.38306043  1
  Zn  Zn93  1  0.22104392  -0.05219194  0.06191167  1
  Zn  Zn94  1  0.41406609  0.94260401  0.20034736  1
  Zn  Zn95  1  0.73275426  0.25007919  0.22708499  1
  Zn  Zn96  1  0.64210261  0.86591050  0.49130850  1
  Zn  Zn97  1  0.66700091  0.17318557  0.68943402  1
  Zn  Zn98  1  0.68896313  0.45715728  0.44829463  1
  Zn  Zn99  1  0.24577287  0.14605103  0.11461705  1
  Zn  Zn100  1  0.92907818  0.66716669  0.92845320  1
  Zn  Zn101  1  -0.02286011  0.39210081  0.08810568  1
  O  O102  1  0.12636746  0.11481705  0.12601375  1
  O  O103  1  0.13290122  0.19433922  0.63298485  1
  O  O104  1  0.11058702  0.61426794  0.11173755  1
  O  O105  1  0.10747254  0.64964472  0.60772988  1
  O  O106  1  0.66949634  0.09189056  0.10112374  1
  O  O107  1  0.63373487  0.10091074  0.61414856  1
  O  O108  1  0.60624453  0.61289642  0.10358865  1
  O  O109  1  0.60832593  0.66380856  0.57693173  1
  O  O110  1  0.33148842  0.31706908  0.38149669  1
  O  O111  1  0.37455216  0.37423756  0.88295443  1
  O  O112  1  0.50459790  0.82606773  0.26851043  1
  O  O113  1  0.38366549  0.84790772  0.89455140  1
  O  O114  1  0.89752118  0.36440350  0.34828830  1
  O  O115  1  0.82958330  0.36869937  0.94480732  1
  O  O116  1  0.90966707  0.85942257  0.42483157  1
  O  O117  1  0.84821339  0.86409956  0.85262410  1
  O  O118  1  0.22856155  0.09554713  0.27996430  1
  O  O119  1  0.32216374  0.05556305  0.89941353  1
  O  O120  1  0.25309193  0.51712238  0.34790905  1
  O  O121  1  0.26248923  0.54343388  0.88944338  1
  O  O122  1  0.80810607  -0.00299816  0.39168872  1
  O  O123  1  0.73395930  -0.00473705  0.87189865  1
  O  O124  1  0.73349840  0.50245778  0.35429136  1
  O  O125  1  0.75881113  0.50531993  0.86862328  1
  O  O126  1  0.27476036  0.48966520  0.13132488  1
  O  O127  1  0.21271815  0.51555007  0.60484007  1
  O  O128  1  0.22038754  0.95747234  0.17559056  1
  O  O129  1  0.23201934  0.97748349  0.60420476  1
  O  O130  1  0.72468980  0.52037003  0.13785531  1
  O  O131  1  0.64899022  0.51867867  0.64226952  1
  O  O132  1  0.65489765  1.03427855  0.14239362  1
  O  O133  1  0.74747126  0.97199389  0.60472266  1
  O  O134  1  0.07026692  0.40113045  0.33823966  1
  O  O135  1  0.06754883  0.35939055  0.69291254  1
  O  O136  1  -0.03002931  0.86871360  0.27788839  1
  O  O137  1  -0.00696275  0.86786825  0.75492085  1
  O  O138  1  0.48719432  0.38625795  0.30278001  1
  O  O139  1  0.50787301  0.33846500  0.77443455  1
  O  O140  1  0.48041176  0.89709200  0.29070033  1
  O  O141  1  0.47360654  0.87248399  0.77023840  1
  O  O142  1  0.48153791  0.12973937  0.23073090  1
  O  O143  1  0.51333646  0.11433170  0.75352184  1
  O  O144  1  0.48502663  0.62881489  0.22843652  1
  O  O145  1  0.49873481  0.61148798  0.73385906  1
  O  O146  1  1.04593360  0.10167099  0.26293194  1
  O  O147  1  1.03120517  0.13130587  0.77924463  1
  O  O148  1  0.99455038  0.58160136  0.28588335  1
  O  O149  1  1.01814826  0.64182851  0.73717699  1
  O  O150  1  0.39680010  0.27428584  0.00420766  1
  O  O151  1  0.40009313  0.26243148  0.52480418  1
  O  O152  1  0.35488044  0.73843332  0.00643360  1
  O  O153  1  0.38278029  0.79192602  0.42734168  1
  O  O154  1  0.87723404  0.21755623  0.02964715  1
  O  O155  1  0.86905819  0.25105944  0.52224749  1
  O  O156  1  0.85480384  0.73820396  -0.01799945  1
  O  O157  1  0.86097875  0.73652683  0.50917895  1
  O  O158  1  0.03549323  0.30548290  0.47292666  1
  O  O159  1  0.20389306  0.23093138  0.98146939  1
  O  O160  1  0.05631780  0.79621592  0.45052532  1
  O  O161  1  0.13171696  0.73765226  1.00028828  1
  O  O162  1  0.63416831  0.24189601  0.51787256  1
  O  O163  1  0.59315517  0.24040121  0.99053180  1
  O  O164  1  0.65735095  0.75197658  0.46270634  1
  O  O165  1  0.63706156  0.73420057  1.00681177  1
  O  O166  1  0.49679227  0.26486938  0.12907223  1
  O  O167  1  0.48696165  0.23538436  0.66064713  1
  O  O168  1  0.51377904  0.73384374  0.11566398  1
  O  O169  1  0.48224176  0.81035007  0.57073004  1
  O  O170  1  0.98294580  0.28222975  0.10485021  1
  O  O171  1  0.96186640  0.23446886  0.63987582  1
  O  O172  1  0.98144920  0.78205527  0.04071032  1
  O  O173  1  0.98839259  0.74773419  0.61838312  1
  O  O174  1  0.00215383  0.27142081  0.41742935  1
  O  O175  1  0.05311409  0.24681642  0.92457209  1
  O  O176  1  -0.04081912  0.72121890  0.35198289  1
  O  O177  1  -0.00656880  0.74002094  0.86054100  1
  O  O178  1  0.55007069  0.24415744  0.41167326  1
  O  O179  1  0.49805550  0.21626600  0.87248376  1
  O  O180  1  0.52744600  0.78021184  0.32278147  1
  O  O181  1  0.50940946  0.74824484  0.87329341  1
  O  O182  1  0.20271966  0.27012469  0.49744025  1
  O  O183  1  0.22825389  0.06256390  1.03998148  1
  O  O184  1  0.26692006  0.62359204  0.47341331  1
  O  O185  1  0.23159360  0.63258180  1.01933758  1
  O  O186  1  0.75846413  -0.00122721  0.44273443  1
  O  O187  1  0.73044913  0.08396655  1.04828505  1
  O  O188  1  0.75344400  0.64292578  0.45817819  1
  O  O189  1  0.72945541  0.61623265  0.99736041  1
  O  O190  1  0.27515500  0.38848957  0.00841896  1
  O  O191  1  0.30883537  0.37555587  0.41697396  1
  O  O192  1  0.26331401  0.85630411  0.00799150  1
  O  O193  1  0.27513928  0.86721305  0.51409905  1
  O  O194  1  0.77118685  0.38686116  -0.01814743  1
  O  O195  1  0.77719864  0.45231899  0.53383559  1
  O  O196  1  0.74258779  0.85073963  0.00276266  1
  O  O197  1  0.76132151  0.85182093  0.50525283  1
  O  O198  1  0.15305192  0.51257245  0.21871873  1
  O  O199  1  0.16453802  0.47648135  0.72124714  1
  O  O200  1  0.18211608  0.97940579  0.33489603  1
  O  O201  1  0.10615832  0.97636455  0.76543571  1
  O  O202  1  0.59754655  0.50641082  0.23421446  1
  O  O203  1  0.60878568  0.46307047  0.80160418  1
  O  O204  1  0.63974970  0.94445354  0.32881577  1
  O  O205  1  0.66416424  0.99346442  0.72582699  1
  O  O206  1  0.35760689  0.03422748  0.24313855  1
  O  O207  1  0.37321626  0.02495704  0.74362656  1
  O  O208  1  0.36894376  0.50218228  0.25263348  1
  O  O209  1  0.38212323  0.50003203  0.75535289  1
  O  O210  1  0.86260101  0.02129069  0.24854662  1
  O  O211  1  0.84049364  0.00352048  0.73608057  1
  O  O212  1  0.87237524  0.49350999  0.23929779  1
  O  O213  1  0.86984427  0.49663955  0.74979590  1
  O  O214  1  0.04423441  0.36159585  0.28483155  1
  O  O215  1  0.15738025  0.37125142  0.89692336  1
  O  O216  1  0.07791068  0.85218624  0.39865976  1
  O  O217  1  0.10571088  0.86555945  0.87650699  1
  O  O218  1  0.63860566  0.36377899  0.42722678  1
  O  O219  1  0.65695861  0.33769962  0.87710497  1
  O  O220  1  0.64306715  0.87602318  0.36530005  1
  O  O221  1  0.61197242  0.84743762  0.87137876  1
  O  O222  1  0.36357689  0.16902011  0.10396820  1
  O  O223  1  0.33161723  0.20433411  0.68447088  1
  O  O224  1  0.38546113  0.62536981  0.12906487  1
  O  O225  1  0.35714000  0.61930246  0.65173783  1
  O  O226  1  0.93001938  0.12887928  0.16584725  1
  O  O227  1  0.84601130  0.14808903  0.62094850  1
  O  O228  1  0.89606985  0.62853255  0.16212075  1
  O  O229  1  0.89495974  0.63792219  0.61629854  1
  O  O230  1  0.24402737  0.27913341  0.13421519  1
  O  O231  1  0.22502254  0.29621067  0.56028165  1
  O  O232  1  0.23810918  0.74998478  0.11571385  1
  O  O233  1  0.25732941  0.77583152  0.63612478  1
  O  O234  1  0.76413503  0.25500628  0.11397211  1
  O  O235  1  0.75684300  0.25857302  0.63049748  1
  O  O236  1  0.77652752  0.72990374  0.10066500  1
  O  O237  1  0.76871406  0.73647907  0.63586338  1
  O  O238  1  0.18550882  0.27211088  0.34511356  1
  O  O239  1  0.24171911  0.22294668  0.91325319  1
  O  O240  1  0.23834781  0.72748461  0.35436707  1
  O  O241  1  0.25060137  0.72245198  0.89964447  1
  O  O242  1  0.74880485  0.30341960  0.42229062  1
  O  O243  1  0.73095541  0.21039162  0.91217289  1
  O  O244  1  0.78572613  0.77445177  0.36363703  1
  O  O245  1  0.72545552  0.74150134  0.88605134  1
  O  O246  1  0.02208778  0.10374258  0.04009289  1
  O  O247  1  -0.01639593  0.13128941  0.50155268  1
  O  O248  1  0.01412555  0.60966673  -0.02037883  1
  O  O249  1  -0.00693420  0.62282301  0.49446773  1
  O  O250  1  0.49914282  0.08335229  0.01129110  1
  O  O251  1  0.47187847  0.10105175  0.51617220  1
  O  O252  1  0.48424323  0.62040589  0.00447058  1
  O  O253  1  0.52573586  0.64502762  0.43801358  1
  O  O254  1  0.45071472  0.46221074  0.51676251  1
  O  O255  1  0.49072825  0.39745347  0.99455072  1
  O  O256  1  0.44877367  0.94065012  0.46520516  1
  O  O257  1  0.47833207  0.83448304  1.00481324  1
  O  O258  1  1.09341542  0.46216872  0.48860950  1
  O  O259  1  1.00584092  0.41597859  0.98038075  1
  O  O260  1  1.02576725  0.93838532  0.55703506  1
  O  O261  1  0.88281488  0.88507656  0.92234077  1
  O  O262  1  0.47650914  0.42827795  0.36169420  1
  O  O263  1  0.48336926  0.51898350  0.88889518  1
  O  O264  1  0.40308106  0.97879205  0.42658075  1
  O  O265  1  0.50267504  0.95323356  0.90887746  1
  O  O266  1  0.90641928  0.41375108  0.39939953  1
  O  O267  1  1.05820754  0.49593914  0.84765891  1
  O  O268  1  1.03235233  1.01849404  0.43566265  1
  O  O269  1  0.95429434  0.90604410  0.91979306  1
  O  O270  1  0.01074648  -0.01015474  0.15703643  1
  O  O271  1  0.00559166  0.06622900  0.63723361  1
  O  O272  1  0.01644522  0.48575958  0.13803445  1
  O  O273  1  -0.00183874  0.52766329  0.62279153  1
  O  O274  1  0.49245015  -0.02837450  0.12256478  1
  O  O275  1  0.52915371  -0.02008722  0.64377878  1
  O  O276  1  0.50465131  0.51352272  0.10766646  1
  O  O277  1  0.48330812  0.48865913  0.57580700  1
  O  O278  1  0.25158309  0.39198502  0.23746213  1
  O  O279  1  0.22358896  0.47909320  0.67308760  1
  O  O280  1  0.31220312  0.90247669  0.29254400  1
  O  O281  1  0.20593812  0.88201798  0.71014591  1
  O  O282  1  0.73139960  0.35709685  0.24187537  1
  O  O283  1  0.71435229  0.33778103  0.81380873  1
  O  O284  1  0.69607426  0.96239506  0.28421373  1
  O  O285  1  0.76115579  0.86298428  0.72850986  1
  O  O286  1  0.26800443  0.15166072  0.23597178  1
  O  O287  1  0.23097161  0.10297738  0.76943981  1
  O  O288  1  0.26648142  0.61695529  0.23777478  1
  O  O289  1  0.20712075  0.63477860  0.75724852  1
  O  O290  1  0.76213808  0.14232458  0.23544357  1
  O  O291  1  0.74212405  0.12791901  0.76455202  1
  O  O292  1  0.78443075  0.62922971  0.26066870  1
  O  O293  1  0.70703062  0.54280495  0.67527783  1
  O  O294  1  0.39627506  0.15236793  0.36073203  1
  O  O295  1  0.36648493  0.12396276  0.89657241  1
  O  O296  1  0.37830865  0.62694084  0.34832543  1
  O  O297  1  0.36287492  0.64917160  0.82667487  1
  O  O298  1  0.87986740  0.14639641  0.34788091  1
  O  O299  1  0.92334572  0.05529736  0.89846087  1
  O  O300  1  0.86315309  0.58607282  0.37383672  1
  O  O301  1  0.85247778  0.63927858  0.84210407  1
  O  O302  1  0.15096760  0.40620271  0.10488934  1
  O  O303  1  0.07761088  0.37177748  0.62281944  1
  O  O304  1  0.13064481  0.82041600  0.24090344  1
  O  O305  1  0.15048511  0.85352183  0.57716222  1
  O  O306  1  0.61986823  0.40380323  0.11071241  1
  O  O307  1  0.63462367  0.36675017  0.67643845  1
  O  O308  1  0.63735919  0.85790403  0.16891618  1
  O  O309  1  0.65402093  0.84607637  0.61412813  1
  O  O310  1  0.13160412  0.21687069  0.34460275  1
  O  O311  1  0.15484959  0.25236954  0.79175806  1
  O  O312  1  0.10595210  0.75458918  0.22797917  1
  O  O313  1  0.09936412  0.77450248  0.73921984  1
  O  O314  1  0.64627312  0.24766082  0.31517106  1
  O  O315  1  0.61328478  0.23252038  0.77469724  1
  O  O316  1  0.67440038  0.81092000  0.20801853  1
  O  O317  1  0.62860333  0.73040631  0.75925067  1
  O  O318  1  0.37576793  0.24895983  0.23417882  1
  O  O319  1  0.36978618  0.19183425  0.76172246  1
  O  O320  1  0.36796228  0.74058103  0.24624848  1
  O  O321  1  0.45257917  0.75861980  0.61059249  1
  O  O322  1  0.87380327  0.24849169  0.22233173  1
  O  O323  1  0.85412379  0.25155996  0.73249698  1
  O  O324  1  0.92325445  0.70494777  0.16770079  1
  O  O325  1  0.89297249  0.75098880  0.73435473  1
  O  O326  1  0.37994773  0.51068733  0.48706474  1
  O  O327  1  0.38402039  0.49194048  1.00588794  1
  O  O328  1  0.42721580  1.08834757  0.57183807  1
  O  O329  1  0.39082718  0.95821986  1.01054255  1
  O  O330  1  0.83627937  0.49728212  0.54766473  1
  O  O331  1  0.91538010  0.51670619  0.91415224  1
  O  O332  1  0.91093277  1.01604765  0.54006898  1
  O  O333  1  0.86885809  1.05363596  0.94431860  1
  O  O334  1  0.11016719  -0.03820693  0.02419338  1
  O  O335  1  0.11073988  0.06676155  0.54772218  1
  O  O336  1  0.12154808  0.51619915  0.00441829  1
  O  O337  1  0.14636764  0.41558981  0.48229190  1
  O  O338  1  0.59864163  -0.06233078  0.02194709  1
  O  O339  1  0.61928427  -0.02767510  0.51741208  1
  O  O340  1  0.60570795  0.51402987  -0.01177133  1
  O  O341  1  0.63315532  0.54309179  0.48570841  1
  O  O342  1  0.37130897  0.36687259  0.11988856  1
  O  O343  1  0.38072136  0.35791020  0.66200217  1
  O  O344  1  0.37713018  0.85880884  0.12590385  1
  O  O345  1  0.34444583  0.89547545  0.63930305  1
  O  O346  1  0.86434919  0.37819166  0.11942447  1
  O  O347  1  0.87536837  0.35379641  0.62447979  1
  O  O348  1  0.87670721  0.85736574  0.12917395  1
  O  O349  1  0.86588053  0.85298505  0.62090290  1
  O  O350  1  0.14087023  0.16107512  0.39847216  1
  O  O351  1  0.12815429  0.08577480  0.92241352  1
  O  O352  1  0.13591712  0.61657390  0.38163384  1
  O  O353  1  0.13782120  0.62575189  0.89144546  1
  O  O354  1  0.69950523  0.16834902  0.42030879  1
  O  O355  1  0.61234213  0.11249971  0.89996944  1
  O  O356  1  0.65271302  0.63956584  0.35178865  1
  O  O357  1  0.61011390  0.63593781  0.88979840  1
