# generated using pymatgen
data_V51Zn51O256
_symmetry_space_group_name_H-M   'P 1'
_cell_length_a   17.31812970
_cell_length_b   17.29570266
_cell_length_c   17.23398916
_cell_angle_alpha   89.54751391
_cell_angle_beta   90.25417596
_cell_angle_gamma   90.58772149
_symmetry_Int_Tables_number   1
_chemical_formula_structural   V51Zn51O256
_chemical_formula_sum   'V51 Zn51 O256'
_cell_volume   5161.60185905
_cell_formula_units_Z   1
loop_
 _symmetry_equiv_pos_site_id
 _symmetry_equiv_pos_as_xyz
  1  'x, y, z'
loop_
 _atom_site_type_symbol
 _atom_site_label
 _atom_site_symmetry_multiplicity
 _atom_site_fract_x
 _atom_site_fract_y
 _atom_site_fract_z
 _atom_site_occupancy
  V  V0  1  0.48860858  0.51350010  -0.00161439  1
  V  V1  1  0.74175718  0.10240129  0.34823639  1
  V  V2  1  0.77419028  0.37984557  0.15527153  1
  V  V3  1  0.49481159  0.60726193  0.15515557  1
  V  V4  1  0.42450952  -0.05149499  0.44279955  1
  V  V5  1  0.73490078  0.75682245  0.49692388  1
  V  V6  1  0.87816425  0.13143729  0.76653709  1
  V  V7  1  0.70805502  0.61559259  0.84736104  1
  V  V8  1  0.23904216  0.88639354  0.60700248  1
  V  V9  1  -0.00638668  0.51615222  -0.00475148  1
  V  V10  1  0.48538942  0.10127390  0.63129918  1
  V  V11  1  0.24720157  0.15941633  0.38642602  1
  V  V12  1  0.10348845  0.73795451  0.39044418  1
  V  V13  1  0.09130616  0.26093473  0.37817438  1
  V  V14  1  0.86734980  0.22078094  0.11579964  1
  V  V15  1  0.13088322  0.46448619  0.09253276  1
  V  V16  1  -0.00718496  -0.00306259  0.52232546  1
  V  V17  1  0.23279560  -0.00023417  0.75359782  1
  V  V18  1  0.28874495  0.34297484  0.68488470  1
  V  V19  1  0.11157466  0.12446995  0.51105833  1
  V  V20  1  0.74094282  0.71417244  0.00647014  1
  V  V21  1  0.20669330  0.50002362  0.27594720  1
  V  V22  1  0.63199576  0.48529349  0.13407210  1
  V  V23  1  0.41846894  0.46047118  0.37815059  1
  V  V24  1  0.35275060  0.14765160  0.72851636  1
  V  V25  1  0.11790691  0.90974856  0.25086485  1
  V  V26  1  0.75739369  0.24568580  0.49599274  1
  V  V27  1  0.75961995  0.87278480  0.10987693  1
  V  V28  1  0.34836467  0.33235745  0.01998359  1
  V  V29  1  0.24663934  0.49523627  0.75876191  1
  V  V30  1  0.87440500  0.85082469  -0.03006270  1
  V  V31  1  0.01881739  0.71954605  0.23530216  1
  V  V32  1  0.87314280  0.38020840  -0.01292791  1
  V  V33  1  0.61652567  0.23341866  0.37094695  1
  V  V34  1  0.12810189  0.14272621  -0.01148487  1
  V  V35  1  0.59498645  0.75708872  0.87593083  1
  V  V36  1  0.17050596  0.75505418  0.90135489  1
  V  V37  1  0.47603571  0.75116268  0.72807942  1
  V  V38  1  0.65115627  0.26049634  0.85890538  1
  V  V39  1  0.02643761  0.11921421  0.12844615  1
  V  V40  1  0.60625198  0.34909213  0.24137709  1
  V  V41  1  0.52434039  0.36725567  0.88160904  1
  V  V42  1  0.53594861  0.11671971  0.11421530  1
  V  V43  1  0.07589736  0.36713066  0.71531981  1
  V  V44  1  0.89357981  -0.00252065  0.34877294  1
  V  V45  1  0.38153716  0.02471724  0.87132686  1
  V  V46  1  0.85327107  0.63666206  0.23420680  1
  V  V47  1  -0.00269110  -0.01119360  -0.00231956  1
  V  V48  1  0.23601441  0.14898182  0.86009129  1
  V  V49  1  0.73509914  0.08999402  0.85970384  1
  V  V50  1  0.73186486  0.60654435  0.34346945  1
  Zn  Zn51  1  0.72923880  0.39793550  0.36738071  1
  Zn  Zn52  1  0.28222736  0.35215232  0.39729652  1
  Zn  Zn53  1  0.51254837  0.58585634  0.82183137  1
  Zn  Zn54  1  0.44140171  0.41719813  0.18123210  1
  Zn  Zn55  1  0.81581214  0.54562669  0.07363893  1
  Zn  Zn56  1  0.53167602  0.13861649  0.81854846  1
  Zn  Zn57  1  0.32580721  0.84426787  0.82215032  1
  Zn  Zn58  1  0.44793280  0.13274571  0.42854251  1
  Zn  Zn59  1  0.11171793  0.90396798  0.45652378  1
  Zn  Zn60  1  0.52274825  0.72847281  0.02671181  1
  Zn  Zn61  1  0.75588020  0.89608339  0.34662963  1
  Zn  Zn62  1  0.05692178  0.05796119  0.82292280  1
  Zn  Zn63  1  0.14476658  0.44740788  0.42354803  1
  Zn  Zn64  1  0.55148087  0.05971944  0.31336756  1
  Zn  Zn65  1  0.61800520  0.14662112  0.54107366  1
  Zn  Zn66  1  0.32830538  0.12537336  0.03592007  1
  Zn  Zn67  1  0.30529916  0.44673548  0.55758065  1
  Zn  Zn68  1  0.25864589  0.84059266  0.39749531  1
  Zn  Zn69  1  0.95703757  0.48208751  0.19351989  1
  Zn  Zn70  1  0.66007072  0.69063499  0.17054413  1
  Zn  Zn71  1  0.07454207  0.07739383  0.31773961  1
  Zn  Zn72  1  1.05215631  0.92946656  0.70173858  1
  Zn  Zn73  1  0.73477187  0.90150604  0.89055206  1
  Zn  Zn74  1  0.11376178  0.47817721  0.87409412  1
  Zn  Zn75  1  0.30002943  0.57160824  0.13288359  1
  Zn  Zn76  1  0.78514377  0.68261106  0.68583073  1
  Zn  Zn77  1  0.37837975  1.00058203  0.14304250  1
  Zn  Zn78  1  0.93754394  0.70064345  1.06773123  1
  Zn  Zn79  1  0.69239421  0.44130845  0.95849645  1
  Zn  Zn80  1  0.09639096  0.82787959  0.08873110  1
  Zn  Zn81  1  0.20768265  0.08283828  0.18962907  1
  Zn  Zn82  1  0.15017649  0.32870056  0.54114074  1
  Zn  Zn83  1  0.53958941  0.81467401  0.55106667  1
  Zn  Zn84  1  0.75217882  0.22979268  0.70075084  1
  Zn  Zn85  1  0.93354123  0.93937096  0.17623551  1
  Zn  Zn86  1  0.27635985  0.48750155  0.96552331  1
  Zn  Zn87  1  0.42291047  0.44396229  0.71910813  1
  Zn  Zn88  1  0.82285080  0.08959885  0.52783264  1
  Zn  Zn89  1  0.90116666  0.82172547  0.77916987  1
  Zn  Zn90  1  0.21763522  0.67359370  0.29122929  1
  Zn  Zn91  1  0.40973787  0.93793064  0.70287241  1
  Zn  Zn92  1  0.93092462  0.16849779  0.43006413  1
  Zn  Zn93  1  0.03709378  0.30584706  0.05401016  1
  Zn  Zn94  1  0.16449226  0.19789616  0.68196542  1
  Zn  Zn95  1  0.56679355  0.53703337  0.31710705  1
  Zn  Zn96  1  0.89934968  0.77961752  0.36487348  1
  Zn  Zn97  1  0.76803518  0.24247107  0.26121885  1
  Zn  Zn98  1  0.80530959  0.03687616  0.03953597  1
  Zn  Zn99  1  0.17243237  0.68214114  0.69912546  1
  Zn  Zn100  1  0.90724923  0.32372566  0.79987157  1
  Zn  Zn101  1  0.29249099  0.06205085  0.55565863  1
  O  O102  1  0.12996699  0.11883660  0.10452997  1
  O  O103  1  0.12981884  0.12031419  0.60889468  1
  O  O104  1  0.18380349  0.69775021  0.12068821  1
  O  O105  1  0.05141647  0.67678519  0.68500018  1
  O  O106  1  0.62986522  0.09524417  0.13850978  1
  O  O107  1  0.72056702  0.00820080  0.67256379  1
  O  O108  1  0.61813612  0.58294007  0.15340237  1
  O  O109  1  0.52759650  0.55825686  0.65357799  1
  O  O110  1  0.39137073  0.36987662  0.41206038  1
  O  O111  1  0.43831408  0.34689725  0.95371127  1
  O  O112  1  0.35986598  0.88885781  0.39256817  1
  O  O113  1  0.38148701  0.92511038  0.87297526  1
  O  O114  1  0.93975356  0.39878510  0.33317871  1
  O  O115  1  0.86224695  0.36963193  0.88907128  1
  O  O116  1  0.86836398  0.89406261  0.36288694  1
  O  O117  1  0.84373106  0.85776490  0.87121824  1
  O  O118  1  0.30135559  -0.01946483  0.28762291  1
  O  O119  1  0.24809070  0.01667815  0.85103590  1
  O  O120  1  0.15476090  0.53090897  0.35451573  1
  O  O121  1  0.22545658  0.50544423  0.86550950  1
  O  O122  1  0.73064152  0.00078703  0.35941828  1
  O  O123  1  0.71763044  -0.00381232  0.83402139  1
  O  O124  1  0.73907755  0.51045822  0.36449486  1
  O  O125  1  0.72033490  0.52810787  0.89092283  1
  O  O126  1  0.23083800  0.50972211  0.07352109  1
  O  O127  1  0.24412419  0.44263707  0.65801162  1
  O  O128  1  0.29699456  1.06664842  0.12731174  1
  O  O129  1  0.23913912  0.98918641  0.62894384  1
  O  O130  1  0.73662619  0.48797769  0.13902918  1
  O  O131  1  0.74364799  0.50274952  0.53633201  1
  O  O132  1  0.74823621  0.96968429  0.11461143  1
  O  O133  1  0.71138790  0.96758844  0.53015737  1
  O  O134  1  0.00112927  0.42699804  0.29195084  1
  O  O135  1  -0.02051772  0.37893412  0.73931543  1
  O  O136  1  0.02057947  0.89411837  0.23441053  1
  O  O137  1  -0.00101262  0.86367505  0.76840072  1
  O  O138  1  0.51183074  0.33584504  0.22304603  1
  O  O139  1  0.48516120  0.38925742  0.79405101  1
  O  O140  1  0.39736765  0.89006892  0.15337292  1
  O  O141  1  0.62405865  0.86906160  0.65025819  1
  O  O142  1  0.51446298  0.11438295  0.21974496  1
  O  O143  1  0.46038470  0.15007368  0.72982247  1
  O  O144  1  0.49469506  0.60002892  0.25171061  1
  O  O145  1  0.44816154  0.66298351  0.76788903  1
  O  O146  1  1.02844367  0.12611578  0.22469371  1
  O  O147  1  0.97565030  0.12209096  0.77887470  1
  O  O148  1  1.01540110  0.62505801  0.22895447  1
  O  O149  1  0.96003949  0.54157286  0.68995502  1
  O  O150  1  0.33129731  0.23665770  0.02787062  1
  O  O151  1  0.51549096  0.30226795  0.59122326  1
  O  O152  1  0.40192783  0.75902938  0.05261921  1
  O  O153  1  0.31936750  0.81223722  0.61906570  1
  O  O154  1  0.87695022  0.28515894  0.02706139  1
  O  O155  1  0.85146724  0.20502547  0.50001510  1
  O  O156  1  0.84746778  0.74800744  0.00406719  1
  O  O157  1  0.83324902  0.75409028  0.45832371  1
  O  O158  1  0.10994766  0.22750663  0.50465748  1
  O  O159  1  0.11003461  0.23625673  0.99823921  1
  O  O160  1  0.09972979  0.79107547  0.47372616  1
  O  O161  1  0.16053477  0.78684077  0.99647430  1
  O  O162  1  0.63854786  0.24155778  0.47312170  1
  O  O163  1  0.70902652  0.25905864  0.95447638  1
  O  O164  1  0.63620059  0.76950872  0.51835711  1
  O  O165  1  0.64046344  0.73304448  0.97875174  1
  O  O166  1  0.54580714  0.21513383  0.11235511  1
  O  O167  1  0.58098296  0.12976941  0.64894214  1
  O  O168  1  0.54355229  0.70112180  0.13526619  1
  O  O169  1  0.49175358  0.75209768  0.62895444  1
  O  O170  1  0.98191175  0.21175935  0.10196011  1
  O  O171  1  0.94102153  0.40418555  0.56280090  1
  O  O172  1  1.01875770  0.75410759  0.13178177  1
  O  O173  1  1.01866387  0.70950202  0.62889368  1
  O  O174  1  -0.00664792  0.23765830  0.37410982  1
  O  O175  1  0.01014162  0.26635809  0.87239923  1
  O  O176  1  0.00658015  0.76063110  0.34233022  1
  O  O177  1  0.08325981  0.79192044  0.87410880  1
  O  O178  1  0.52025831  0.21452576  0.37448078  1
  O  O179  1  0.54115525  0.26223956  0.86781125  1
  O  O180  1  0.44389037  0.87825924  0.22063878  1
  O  O181  1  0.50620615  0.76501302  0.91526404  1
  O  O182  1  0.22207980  0.10848137  0.48131248  1
  O  O183  1  0.23075700  0.12852886  0.97182850  1
  O  O184  1  0.20498665  0.67160171  0.57345885  1
  O  O185  1  0.25067840  0.69083442  1.09483261  1
  O  O186  1  0.72186697  0.12550805  0.50604759  1
  O  O187  1  0.73860191  0.07939438  0.95932501  1
  O  O188  1  0.75507634  0.69624218  0.58040091  1
  O  O189  1  0.74122675  0.62058899  1.03038519  1
  O  O190  1  0.27260939  0.37497274  -0.02430430  1
  O  O191  1  0.22874983  0.40287836  0.48817099  1
  O  O192  1  0.32173240  0.85845536  0.04062055  1
  O  O193  1  0.22461168  0.88494578  0.50804111  1
  O  O194  1  0.77547459  0.39965756  0.02415776  1
  O  O195  1  0.76638195  0.33814825  0.45661056  1
  O  O196  1  0.76035822  0.86741985  0.00213146  1
  O  O197  1  0.71607632  0.81289360  0.40843360  1
  O  O198  1  0.14301100  0.48179251  0.20022384  1
  O  O199  1  0.13096998  0.43752142  0.76932330  1
  O  O200  1  0.13548997  1.01058149  0.24518485  1
  O  O201  1  0.12728027  1.00059308  0.75244922  1
  O  O202  1  0.60628013  0.46004635  0.24276970  1
  O  O203  1  0.55988960  0.53687611  0.72150602  1
  O  O204  1  0.59366418  0.95121081  0.27875666  1
  O  O205  1  0.65098848  1.00476256  0.68154967  1
  O  O206  1  0.36455144  0.01148944  0.27085415  1
  O  O207  1  0.35031311  0.02566124  0.74817098  1
  O  O208  1  0.40982776  0.46175939  0.27875152  1
  O  O209  1  0.34471923  0.51248224  0.76242597  1
  O  O210  1  0.87779629  0.00192157  0.25206447  1
  O  O211  1  0.86456249  0.04026094  0.69993741  1
  O  O212  1  0.88656930  0.54549387  0.25402356  1
  O  O213  1  0.89004997  0.53886761  0.70041811  1
  O  O214  1  0.09046140  0.35350569  0.43152342  1
  O  O215  1  0.06717687  0.30924270  0.87809707  1
  O  O216  1  0.15470444  0.88436845  0.34664248  1
  O  O217  1  0.22601140  0.84017079  0.88044362  1
  O  O218  1  0.62313786  0.34613739  0.35257461  1
  O  O219  1  0.62899685  0.37145171  0.88965170  1
  O  O220  1  0.57582909  0.89433408  0.32108859  1
  O  O221  1  0.64409210  0.84266390  0.87124498  1
  O  O222  1  0.43853308  0.13953685  0.07992208  1
  O  O223  1  0.36577508  0.12006970  0.62665330  1
  O  O224  1  0.39852686  0.61867317  0.13121841  1
  O  O225  1  0.38339920  0.65699739  0.54269278  1
  O  O226  1  0.83860552  0.13212248  0.08803284  1
  O  O227  1  0.86564954  0.10208504  0.65126906  1
  O  O228  1  0.86658980  0.63301539  0.12975114  1
  O  O229  1  0.86805750  0.74032003  0.71753290  1
  O  O230  1  0.26829186  0.26012408  0.18973586  1
  O  O231  1  0.22266931  0.28602588  0.62917043  1
  O  O232  1  0.35401740  0.74487623  0.23048254  1
  O  O233  1  0.17821786  0.79772536  0.64736894  1
  O  O234  1  0.77303679  0.28119069  0.12769130  1
  O  O235  1  0.74023114  0.25955016  0.59467309  1
  O  O236  1  0.72898403  0.75571014  0.10398984  1
  O  O237  1  0.76443182  0.83253815  0.55169218  1
  O  O238  1  0.22376366  0.25798151  0.39173565  1
  O  O239  1  0.23242869  0.24187048  0.85723306  1
  O  O240  1  0.21857586  0.73673613  0.38103551  1
  O  O241  1  0.27617382  0.70768507  0.92397495  1
  O  O242  1  0.74379482  0.21301910  0.37514141  1
  O  O243  1  0.75377664  0.23045674  0.89702122  1
  O  O244  1  0.71950236  0.66216909  0.44452889  1
  O  O245  1  0.75531795  0.69331214  0.89211546  1
  O  O246  1  0.03513749  0.09198938  -0.00101364  1
  O  O247  1  0.00396591  0.11190839  0.50221731  1
  O  O248  1  -0.01321110  0.61345337  0.01104139  1
  O  O249  1  -0.09879884  0.55828939  0.47959599  1
  O  O250  1  0.56273478  0.08846043  0.02268127  1
  O  O251  1  0.49661350  0.12680918  0.52999183  1
  O  O252  1  0.50818875  0.60940048  0.00834826  1
  O  O253  1  0.36401379  0.70511016  0.49409870  1
  O  O254  1  0.50551947  0.33998306  0.53182417  1
  O  O255  1  0.50360864  0.38576739  0.99215757  1
  O  O256  1  0.49098422  0.88992397  0.48974968  1
  O  O257  1  0.52950258  0.86071044  1.04314274  1
  O  O258  1  1.04956375  0.51171113  0.51825414  1
  O  O259  1  0.97875913  0.38827432  1.00422571  1
  O  O260  1  0.99833091  0.90696739  0.48219394  1
  O  O261  1  0.96540624  0.82545005  0.97087850  1
  O  O262  1  0.51321075  0.48349801  0.39913850  1
  O  O263  1  0.51743980  0.49787588  0.89684535  1
  O  O264  1  0.47247085  1.02513734  0.38424717  1
  O  O265  1  0.47744143  1.04924645  0.85438123  1
  O  O266  1  0.93860003  0.41335716  0.40471880  1
  O  O267  1  1.00651594  0.50667405  0.89503121  1
  O  O268  1  0.99012470  1.01344736  0.35993524  1
  O  O269  1  1.01430230  0.98524744  0.90051821  1
  O  O270  1  -0.02667724  0.03102907  0.11345379  1
  O  O271  1  0.00087619  -0.01585854  0.62076907  1
  O  O272  1  0.02790522  0.49508267  0.10785098  1
  O  O273  1  0.05582046  0.56350803  0.56621594  1
  O  O274  1  0.48892416  0.01968907  0.13551145  1
  O  O275  1  0.48496658  0.00391887  0.64775001  1
  O  O276  1  0.49936056  0.49970516  0.11872019  1
  O  O277  1  0.46383364  0.51884375  0.63488336  1
  O  O278  1  0.25397494  0.41875497  0.30409571  1
  O  O279  1  0.27897685  0.37085173  0.77773001  1
  O  O280  1  0.30337432  0.79453084  0.22498235  1
  O  O281  1  0.25617195  0.90094194  0.74238566  1
  O  O282  1  0.76112068  0.36457027  0.25802586  1
  O  O283  1  0.75528756  0.50255087  0.60665908  1
  O  O284  1  0.72827222  0.84658841  0.23675279  1
  O  O285  1  0.81925965  0.89045522  0.65762798  1
  O  O286  1  0.23813965  0.12699591  0.29178558  1
  O  O287  1  0.23497131  0.12595161  0.74411117  1
  O  O288  1  0.26181174  0.58549770  0.24293693  1
  O  O289  1  0.20887815  0.58076277  0.72264828  1
  O  O290  1  0.75162825  0.11733779  0.25393472  1
  O  O291  1  0.75480998  0.13175654  0.75818444  1
  O  O292  1  0.74617227  0.63328028  0.23465745  1
  O  O293  1  0.73526410  0.61191394  0.75124877  1
  O  O294  1  0.34492167  0.15761144  0.40290376  1
  O  O295  1  0.34365282  0.13692831  0.84286631  1
  O  O296  1  0.34591040  0.53492227  0.41442758  1
  O  O297  1  0.32962274  0.72737056  0.87443009  1
  O  O298  1  0.85107217  0.09337879  0.37817980  1
  O  O299  1  0.84680588  0.09843950  0.85869845  1
  O  O300  1  0.82863853  0.64917240  0.34642183  1
  O  O301  1  0.91339242  0.62505054  0.85179565  1
  O  O302  1  0.12778638  0.36723859  0.09305069  1
  O  O303  1  0.08588163  0.38375490  0.61769838  1
  O  O304  1  0.16288106  0.86854646  0.17326250  1
  O  O305  1  0.13229327  0.86371225  0.63820058  1
  O  O306  1  0.65087905  0.37020656  0.14630290  1
  O  O307  1  0.62366353  0.41898765  0.62453965  1
  O  O308  1  0.63259316  0.86480177  0.12217417  1
  O  O309  1  0.67889900  0.83775847  0.68364631  1
  O  O310  1  0.11232303  0.28213624  0.28776028  1
  O  O311  1  0.10034833  0.27167691  0.73411269  1
  O  O312  1  0.11957310  0.72982807  0.26641794  1
  O  O313  1  0.18059823  0.72547893  0.80326171  1
  O  O314  1  0.64332029  0.24877294  0.25778230  1
  O  O315  1  0.68127561  0.28698924  0.76943054  1
  O  O316  1  0.67373468  0.79470261  0.24784073  1
  O  O317  1  0.56687367  0.76692991  0.76968054  1
  O  O318  1  0.32918500  0.25250352  0.22485993  1
  O  O319  1  0.33685216  0.24408760  0.72065761  1
  O  O320  1  0.47793434  0.81424688  0.22430911  1
  O  O321  1  0.41294131  0.83099029  0.74873661  1
  O  O322  1  0.87328136  0.22386337  0.21486673  1
  O  O323  1  0.86230831  0.23539215  0.75123226  1
  O  O324  1  0.90460427  0.72900346  0.24765607  1
  O  O325  1  0.94594902  0.67229046  0.80938517  1
  O  O326  1  0.37444711  0.51268760  0.48743152  1
  O  O327  1  0.39013728  0.50795090  0.99117804  1
  O  O328  1  0.37308166  1.00183399  0.50606003  1
  O  O329  1  0.36734006  1.04481383  0.96798933  1
  O  O330  1  0.89904467  0.58217243  0.54644691  1
  O  O331  1  0.88798020  0.49439903  1.00511989  1
  O  O332  1  0.89088110  1.01060011  0.49904650  1
  O  O333  1  0.89166893  0.95843281  1.00049017  1
  O  O334  1  0.05861091  -0.07444239  0.04105573  1
  O  O335  1  0.10009219  0.01323044  0.49022577  1
  O  O336  1  0.10734425  0.48927176  -0.00706579  1
  O  O337  1  0.21646603  0.60840265  0.54159018  1
  O  O338  1  0.59742127  -0.10925464  0.05713536  1
  O  O339  1  0.64145155  -0.03822622  0.51711089  1
  O  O340  1  0.61201830  0.47693901  0.03259508  1
  O  O341  1  0.60237568  0.44460155  0.56159590  1
  O  O342  1  0.37220356  0.37243263  0.10751014  1
  O  O343  1  0.37441959  0.37988485  0.63544206  1
  O  O344  1  0.38104793  0.82284545  0.01546886  1
  O  O345  1  0.35275505  0.88420643  0.60535119  1
  O  O346  1  0.86923278  0.40861274  0.15376625  1
  O  O347  1  0.87141501  0.40975977  0.57196411  1
  O  O348  1  0.85731906  0.86472257  0.13094376  1
  O  O349  1  0.84420037  0.90608716  0.59367125  1
  O  O350  1  0.12185086  0.14892699  0.38717312  1
  O  O351  1  0.12638442  0.12792382  0.87945751  1
  O  O352  1  0.08713133  0.64953251  0.42044148  1
  O  O353  1  0.13664177  0.66426435  0.92808818  1
  O  O354  1  0.63239345  0.12099543  0.35968835  1
  O  O355  1  0.63710281  0.15238508  0.85272472  1
  O  O356  1  0.63409669  0.62656528  0.33275208  1
  O  O357  1  0.60808329  0.64625823  0.85299999  1
