# generated using pymatgen
data_V51Zn51O256
_symmetry_space_group_name_H-M   'P 1'
_cell_length_a   17.48816511
_cell_length_b   17.63336059
_cell_length_c   17.31288019
_cell_angle_alpha   89.66700584
_cell_angle_beta   89.09584075
_cell_angle_gamma   90.73849713
_symmetry_Int_Tables_number   1
_chemical_formula_structural   V51Zn51O256
_chemical_formula_sum   'V51 Zn51 O256'
_cell_volume   5337.65676563
_cell_formula_units_Z   1
loop_
 _symmetry_equiv_pos_site_id
 _symmetry_equiv_pos_as_xyz
  1  'x, y, z'
loop_
 _atom_site_type_symbol
 _atom_site_label
 _atom_site_symmetry_multiplicity
 _atom_site_fract_x
 _atom_site_fract_y
 _atom_site_fract_z
 _atom_site_occupancy
  V  V0  1  0.80224656  0.09419428  0.37483483  1
  V  V1  1  0.87882955  0.23863584  0.65612140  1
  V  V2  1  0.58438960  0.49525692  0.61194175  1
  V  V3  1  0.77656381  0.07672275  0.88254814  1
  V  V4  1  0.28107399  0.11361919  0.31046309  1
  V  V5  1  0.79653133  -0.03577221  0.24932379  1
  V  V6  1  0.23202488  0.39202896  0.11577049  1
  V  V7  1  0.08769297  0.13823460  0.46029911  1
  V  V8  1  0.61377441  0.89506516  0.77699602  1
  V  V9  1  0.53378947  0.01871228  0.01530972  1
  V  V10  1  0.80110867  0.52655873  0.74666981  1
  V  V11  1  0.10799524  0.33731256  0.23324543  1
  V  V12  1  0.00850044  -0.01758983  0.51539733  1
  V  V13  1  0.56373886  0.72757390  0.86602776  1
  V  V14  1  0.63609755  0.26422806  0.90792514  1
  V  V15  1  0.25245399  0.75978395  -0.00817889  1
  V  V16  1  0.56437233  0.12292645  0.49162329  1
  V  V17  1  0.27224762  0.20541705  0.51737757  1
  V  V18  1  0.89163936  0.35236021  0.53233985  1
  V  V19  1  -0.01244116  0.81037972  0.45232087  1
  V  V20  1  0.02089681  0.12973338  0.64085588  1
  V  V21  1  0.52335368  0.65393804  0.58371920  1
  V  V22  1  0.11859155  0.11258790  -0.01507882  1
  V  V23  1  0.01259286  0.86709173  0.85087377  1
  V  V24  1  0.88355752  0.10021350  0.75714010  1
  V  V25  1  0.50124383  0.77663821  0.24892397  1
  V  V26  1  0.26055940  0.13434487  0.86100725  1
  V  V27  1  0.14980518  0.89997604  0.24608230  1
  V  V28  1  0.35494949  0.51023244  0.86932395  1
  V  V29  1  0.70768635  0.60902470  0.86539816  1
  V  V30  1  0.37618066  0.78188604  0.11035857  1
  V  V31  1  -0.00547768  0.36409746  0.87619188  1
  V  V32  1  0.25432935  0.92058174  0.11016158  1
  V  V33  1  0.73825119  0.85640938  0.63816966  1
  V  V34  1  0.00235119  0.15036540  0.10502113  1
  V  V35  1  0.14370758  -0.00523597  0.62883883  1
  V  V36  1  0.11586368  0.25548399  0.86503944  1
  V  V37  1  0.22207916  0.36697248  0.56218860  1
  V  V38  1  0.92229966  0.54450451  0.87191005  1
  V  V39  1  0.53162695  0.15042514  0.68075894  1
  V  V40  1  0.47943689  0.65090408  0.08641030  1
  V  V41  1  0.26224235  -0.00437107  0.74997116  1
  V  V42  1  0.38837052  0.23922277  0.66991650  1
  V  V43  1  0.67652244  0.12328651  0.01997101  1
  V  V44  1  0.37681478  0.26450297  0.10128061  1
  V  V45  1  0.90648820  0.13870209  0.24386595  1
  V  V46  1  0.38039150  0.91147589  -0.02349694  1
  V  V47  1  0.63565505  0.01120532  0.63626094  1
  V  V48  1  0.38649990  0.66680422  0.68772328  1
  V  V49  1  0.62576866  0.90312608  0.19637103  1
  V  V50  1  0.24056924  0.25589436  -0.00648346  1
  Zn  Zn51  1  0.09180899  0.48375906  0.80511460  1
  Zn  Zn52  1  0.59814044  0.04969592  0.84309646  1
  Zn  Zn53  1  0.69060030  0.96671348  0.46477133  1
  Zn  Zn54  1  0.46773661  1.00185235  0.72949738  1
  Zn  Zn55  1  0.18513372  0.17529549  0.16359922  1
  Zn  Zn56  1  0.57516948  0.09621035  0.16682728  1
  Zn  Zn57  1  0.07240618  0.31948943  0.04075301  1
  Zn  Zn58  1  0.78208868  0.47704091  -0.04077544  1
  Zn  Zn59  1  0.28122672  0.37162700  0.74629939  1
  Zn  Zn60  1  0.93044617  0.93092020  0.67530866  1
  Zn  Zn61  1  0.85057885  0.88749493  0.52627760  1
  Zn  Zn62  1  0.82720234  0.05968943  0.57720047  1
  Zn  Zn63  1  0.91671269  0.65339215  0.47166292  1
  Zn  Zn64  1  0.54891375  0.83080661  0.03123072  1
  Zn  Zn65  1  0.46400552  0.14834268  0.86679738  1
  Zn  Zn66  1  0.50139236  0.21183372  0.01938769  1
  Zn  Zn67  1  0.19377124  0.21543897  0.68983604  1
  Zn  Zn68  1  0.32391533  0.09152049  0.03770064  1
  Zn  Zn69  1  0.72106446  0.20219125  0.73813529  1
  Zn  Zn70  1  0.55106071  0.59117421  0.20579763  1
  Zn  Zn71  1  0.17447834  0.99268035  0.41515022  1
  Zn  Zn72  1  1.06846099  0.66527411  0.82057418  1
  Zn  Zn73  1  0.77408089  0.54983827  0.54337301  1
  Zn  Zn74  1  0.47360888  0.81997854  0.67592439  1
  Zn  Zn75  1  0.68648312  0.66852212  0.67711035  1
  Zn  Zn76  1  0.09460598  0.07301008  0.26180382  1
  Zn  Zn77  1  0.46914681  0.11616391  0.32131895  1
  Zn  Zn78  1  0.92551770  0.17201079  0.45969007  1
  Zn  Zn79  1  0.94460983  0.17976359  0.92437882  1
  Zn  Zn80  1  0.81245845  0.06406324  0.09403492  1
  Zn  Zn81  1  0.78728370  0.34758177  0.83282072  1
  Zn  Zn82  1  0.06530243  0.33014378  0.44670974  1
  Zn  Zn83  1  0.52919707  0.75314756  0.42705985  1
  Zn  Zn84  1  0.23655392  0.60803961  0.79054827  1
  Zn  Zn85  1  0.07451577  0.05529603  0.80393070  1
  Zn  Zn86  1  0.29645501  0.29796141  0.27476525  1
  Zn  Zn87  1  0.52004127  0.30013175  0.58653696  1
  Zn  Zn88  1  0.19401739  0.94474568  0.92474793  1
  Zn  Zn89  1  0.63850992  0.19098326  0.32589804  1
  Zn  Zn90  1  0.31811546  0.84183761  0.28635038  1
  Zn  Zn91  1  0.28163186  0.55857947  0.03473018  1
  Zn  Zn92  1  0.37945935  0.68829436  0.92178616  1
  Zn  Zn93  1  0.33163179  0.82139310  0.80613070  1
  Zn  Zn94  1  0.67049668  0.39700794  0.50743489  1
  Zn  Zn95  1  0.98216661  0.93063742  0.31585624  1
  Zn  Zn96  1  0.34235900  0.07377655  0.59775450  1
  Zn  Zn97  1  0.00328959  0.45213046  0.28202219  1
  Zn  Zn98  1  0.52958010  0.55559979  0.78887137  1
  Zn  Zn99  1  0.62985946  0.74492556  0.13629073  1
  Zn  Zn100  1  0.44912506  0.94456072  0.15893144  1
  Zn  Zn101  1  0.94134640  0.40813427  0.72636948  1
  O  O102  1  0.10548199  0.12576769  0.09837314  1
  O  O103  1  0.11786324  0.13853875  0.63970128  1
  O  O104  1  0.06582137  0.58234381  0.21207065  1
  O  O105  1  0.15426852  0.59966792  0.59014536  1
  O  O106  1  0.71062714  0.12131254  0.11181431  1
  O  O107  1  0.62582622  0.16493809  0.69659292  1
  O  O108  1  0.58488870  0.65153772  0.10682235  1
  O  O109  1  0.60978516  0.61194330  0.62317714  1
  O  O110  1  0.36504754  0.37378401  0.33242230  1
  O  O111  1  0.29752254  0.45628669  0.80596952  1
  O  O112  1  0.30806044  0.85170998  0.40551142  1
  O  O113  1  0.38575327  0.89033199  0.88158048  1
  O  O114  1  0.83911515  0.41338473  0.32328334  1
  O  O115  1  0.90128011  0.36005109  0.83652101  1
  O  O116  1  0.88968226  0.81654732  0.45642038  1
  O  O117  1  0.91241486  0.86626354  0.83754380  1
  O  O118  1  0.26263835  0.05523820  0.38765199  1
  O  O119  1  0.24468191  0.02469938  0.85517607  1
  O  O120  1  0.26083347  0.43810074  0.37089307  1
  O  O121  1  0.04025007  0.54745031  1.03483872  1
  O  O122  1  0.75479396  0.00431909  0.37590355  1
  O  O123  1  0.77413492  -0.01360209  0.87192570  1
  O  O124  1  0.64253081  0.51674083  0.31584785  1
  O  O125  1  0.81646752  0.57792048  0.84181244  1
  O  O126  1  0.23391392  0.48898284  0.10640557  1
  O  O127  1  0.25388533  0.45379784  0.55331202  1
  O  O128  1  0.26832303  1.01557639  0.10157359  1
  O  O129  1  0.24735799  1.02363516  0.63724759  1
  O  O130  1  0.78229616  0.47993232  0.17191793  1
  O  O131  1  0.81132224  0.54564376  0.65029231  1
  O  O132  1  0.80579047  0.96854985  0.15119341  1
  O  O133  1  0.72844506  1.04327465  0.62499380  1
  O  O134  1  0.00939291  0.35151316  0.24232409  1
  O  O135  1  0.04047616  0.39661711  0.77040076  1
  O  O136  1  0.01437571  0.83418366  0.36132836  1
  O  O137  1  0.00739126  0.88625644  0.74388358  1
  O  O138  1  0.63458182  0.35863020  0.34993974  1
  O  O139  1  0.45658395  0.34897976  0.85706601  1
  O  O140  1  0.52383041  0.89932896  0.22279198  1
  O  O141  1  0.51346147  0.90191576  0.74017516  1
  O  O142  1  0.56182150  0.14197837  0.26536111  1
  O  O143  1  0.50984355  0.09990832  0.77661452  1
  O  O144  1  0.49864385  0.67902456  0.25218522  1
  O  O145  1  0.46133288  0.62274050  0.72972265  1
  O  O146  1  1.00954956  0.13248230  0.22015289  1
  O  O147  1  0.99562750  0.10971645  0.74386694  1
  O  O148  1  0.93341701  0.76224791  0.23225446  1
  O  O149  1  1.02042927  0.50941656  0.59132716  1
  O  O150  1  0.33332337  0.27880644  -0.01974623  1
  O  O151  1  0.34262949  0.14596713  0.49475195  1
  O  O152  1  0.39082800  0.79578305  0.00687052  1
  O  O153  1  0.31278963  0.71213943  0.39425755  1
  O  O154  1  0.84607871  0.25121611  -0.04312310  1
  O  O155  1  0.88329868  0.25297831  0.52540832  1
  O  O156  1  0.82409655  0.61386521  0.09215959  1
  O  O157  1  0.71943902  0.70471822  0.37028543  1
  O  O158  1  0.03947669  0.22040298  0.43435541  1
  O  O159  1  0.12247187  0.23202870  0.98340190  1
  O  O160  1  0.18163338  0.76168731  0.70706588  1
  O  O161  1  0.16008800  0.76522004  0.98721429  1
  O  O162  1  0.53909092  0.18892317  0.56979300  1
  O  O163  1  0.68243299  0.22302257  0.99186587  1
  O  O164  1  0.59942936  0.83555907  0.46664172  1
  O  O165  1  0.58669240  0.76307099  0.95398326  1
  O  O166  1  0.46725249  0.29849603  0.07990201  1
  O  O167  1  0.49210178  0.24418002  0.70394013  1
  O  O168  1  0.49309240  0.76798288  0.11359548  1
  O  O169  1  0.53500634  0.74188142  0.62566201  1
  O  O170  1  0.99581058  0.24376192  0.09907425  1
  O  O171  1  0.99332898  0.22136121  0.62864713  1
  O  O172  1  0.96604629  0.70174518  0.23927356  1
  O  O173  1  1.04213048  0.75077396  0.63261600  1
  O  O174  1  -0.21529428  0.37910703  0.29498613  1
  O  O175  1  0.00792942  0.25505452  0.87233341  1
  O  O176  1  0.00488395  0.71429983  0.46920130  1
  O  O177  1  0.03546450  0.77496710  0.82479130  1
  O  O178  1  0.48364861  0.28905452  0.37486673  1
  O  O179  1  0.54022664  0.22166357  0.90819263  1
  O  O180  1  0.48059686  0.79680095  0.34538695  1
  O  O181  1  0.46812301  0.72895063  0.85770402  1
  O  O182  1  0.17692560  0.17103178  0.49440831  1
  O  O183  1  0.23046334  0.13212004  0.97696007  1
  O  O184  1  0.19337007  0.73567949  0.64054423  1
  O  O185  1  0.27457994  0.66245544  1.00815016  1
  O  O186  1  0.82689941  0.10402950  0.47386732  1
  O  O187  1  0.78146938  0.09208259  0.98874308  1
  O  O188  1  0.82142478  0.61666916  0.47507064  1
  O  O189  1  0.69731186  0.53507140  0.93297620  1
  O  O190  1  0.20420784  0.34835020  0.01961388  1
  O  O191  1  0.28064285  0.30278339  0.49563422  1
  O  O192  1  0.26661164  0.89142084  -0.00590239  1
  O  O193  1  0.33086198  0.79953590  0.44978640  1
  O  O194  1  0.78206454  0.36508049  -0.04881257  1
  O  O195  1  0.79169605  0.37552110  0.49738650  1
  O  O196  1  0.85059797  0.75237075  0.00234605  1
  O  O197  1  0.74286707  0.89910126  0.53626825  1
  O  O198  1  0.11622999  0.42961161  0.31308360  1
  O  O199  1  0.13968336  0.54524489  0.63237199  1
  O  O200  1  0.06627983  0.96603417  0.24884520  1
  O  O201  1  0.14731794  1.00679095  0.73546138  1
  O  O202  1  0.61912545  0.51168872  0.23812262  1
  O  O203  1  0.57653753  0.48938062  0.71032210  1
  O  O204  1  0.62968557  0.99682884  0.17702952  1
  O  O205  1  0.63061661  1.00206470  0.74212953  1
  O  O206  1  0.41428390  -0.04657661  0.35836037  1
  O  O207  1  0.35926001  0.01289174  0.73429277  1
  O  O208  1  0.35062126  0.57515158  0.31923777  1
  O  O209  1  0.09596486  0.58446520  1.01172748  1
  O  O210  1  0.87676345  -0.07791268  0.28227658  1
  O  O211  1  0.87873522  0.00720761  0.73927317  1
  O  O212  1  0.84127966  0.61189399  0.27612422  1
  O  O213  1  0.90587223  0.50833343  0.76556465  1
  O  O214  1  0.12303289  0.35456502  0.34632932  1
  O  O215  1  0.11611024  0.35200313  0.88090207  1
  O  O216  1  0.17459722  0.91207394  0.34431267  1
  O  O217  1  0.11311595  0.88577147  0.86711111  1
  O  O218  1  0.66871993  0.33066350  0.41606414  1
  O  O219  1  0.62211139  0.35131331  0.93282414  1
  O  O220  1  0.60923650  0.89360217  0.42029087  1
  O  O221  1  0.61233808  0.92792055  0.86657438  1
  O  O222  1  0.39733609  0.16982723  0.06106208  1
  O  O223  1  0.41025176  0.13988734  0.65733196  1
  O  O224  1  0.37870054  0.68367886  0.12186883  1
  O  O225  1  0.41503408  0.65881697  0.58941035  1
  O  O226  1  0.90559704  0.11052996  0.13101617  1
  O  O227  1  0.88483947  0.12816648  0.64646479  1
  O  O228  1  0.88210134  0.62800017  0.12818913  1
  O  O229  1  0.95016135  0.65539939  0.69009210  1
  O  O230  1  0.25504212  0.22327910  0.09309590  1
  O  O231  1  0.28136088  0.20322204  0.61934295  1
  O  O232  1  0.27305219  0.79101810  0.10135513  1
  O  O233  1  0.17140887  0.70859868  0.76882659  1
  O  O234  1  0.77432040  0.31493141  0.12713998  1
  O  O235  1  0.78128768  0.24663178  0.65145112  1
  O  O236  1  0.74209696  0.69447439  0.16061484  1
  O  O237  1  0.71675018  0.76155417  0.63205701  1
  O  O238  1  0.27566979  0.20787136  0.33916144  1
  O  O239  1  0.22664805  0.23710251  0.88096515  1
  O  O240  1  0.28139659  0.73483137  0.33351351  1
  O  O241  1  0.29099194  0.76115086  0.89326961  1
  O  O242  1  0.74338186  0.16503062  0.35028187  1
  O  O243  1  0.70297151  0.27160904  0.82528441  1
  O  O244  1  0.77222737  0.74717471  0.35041704  1
  O  O245  1  0.72688972  0.68990570  0.90539802  1
  O  O246  1  0.00436191  0.12265083  0.00145388  1
  O  O247  1  0.00416901  0.10617191  0.52327216  1
  O  O248  1  0.00106707  0.76024528  0.08485677  1
  O  O249  1  -0.02745418  0.75456568  0.62467349  1
  O  O250  1  0.57431678  0.13690197  0.05478234  1
  O  O251  1  0.49229909  0.09870659  0.43035695  1
  O  O252  1  0.45787155  0.64031344  -0.00773062  1
  O  O253  1  0.54221456  0.66804573  0.48662628  1
  O  O254  1  0.49321088  0.32455364  0.43516401  1
  O  O255  1  0.61914310  0.39327523  1.11127123  1
  O  O256  1  0.45132121  0.88115640  0.57443473  1
  O  O257  1  0.49469350  0.92191169  1.00279151  1
  O  O258  1  0.96637974  0.37598374  0.47345272  1
  O  O259  1  0.99298772  0.36474139  0.97522604  1
  O  O260  1  1.02591014  0.88233348  0.52031878  1
  O  O261  1  0.98817703  0.84659109  0.94438885  1
  O  O262  1  0.48367947  0.47791389  0.34708889  1
  O  O263  1  0.45168595  0.50547729  0.85204438  1
  O  O264  1  0.46192310  0.93371649  0.40572689  1
  O  O265  1  0.51176663  1.06230984  0.92763846  1
  O  O266  1  0.95214799  0.51099623  0.37058632  1
  O  O267  1  0.99945578  0.47858428  0.88106252  1
  O  O268  1  0.98425212  0.98862073  0.42132774  1
  O  O269  1  1.01751847  0.97102802  0.86072710  1
  O  O270  1  -0.00647024  -0.07309721  0.09323454  1
  O  O271  1  0.03381362  0.01019422  0.62949794  1
  O  O272  1  -0.00178839  0.53762052  0.20674901  1
  O  O273  1  0.01462260  0.55423228  0.53675190  1
  O  O274  1  0.49018586  0.03492940  0.10961983  1
  O  O275  1  0.53351064  0.05216331  0.63651511  1
  O  O276  1  0.46694346  0.56530808  0.13309078  1
  O  O277  1  0.50420256  0.53500354  0.57475972  1
  O  O278  1  0.22453127  0.36252518  0.21882969  1
  O  O279  1  0.21939262  0.33946839  0.66264309  1
  O  O280  1  0.26051680  0.90524313  0.21982101  1
  O  O281  1  0.26096983  0.90038776  0.76317570  1
  O  O282  1  0.85138536  0.46794164  0.16789944  1
  O  O283  1  0.76416843  0.43787385  0.76795005  1
  O  O284  1  0.71167839  0.90258335  0.25745561  1
  O  O285  1  0.71116215  0.87820285  0.73562669  1
  O  O286  1  0.20603869  0.09689027  0.24050809  1
  O  O287  1  0.24418914  0.13863707  0.76441429  1
  O  O288  1  0.30893653  0.57759361  0.26317715  1
  O  O289  1  0.30070234  0.62105577  0.69873447  1
  O  O290  1  0.81969662  0.06853337  0.26051646  1
  O  O291  1  0.77947884  0.11593434  0.77648908  1
  O  O292  1  0.77758730  0.58282311  0.28264145  1
  O  O293  1  0.71596228  0.59854435  0.75459729  1
  O  O294  1  0.37370815  0.09506111  0.27656368  1
  O  O295  1  0.35594903  0.14427989  0.87418099  1
  O  O296  1  0.47051364  0.49758441  0.41368850  1
  O  O297  1  0.32763313  0.60640014  0.85755424  1
  O  O298  1  0.90717780  0.12838262  0.35197651  1
  O  O299  1  0.88622600  0.10632451  0.86615789  1
  O  O300  1  0.97304047  0.58116797  0.37305108  1
  O  O301  1  0.97182574  0.62762263  0.87028567  1
  O  O302  1  0.11714533  0.37112831  0.13133292  1
  O  O303  1  0.13101281  0.35860440  0.52765081  1
  O  O304  1  0.15801559  0.91109957  0.12505508  1
  O  O305  1  0.14980990  0.90415846  0.61936279  1
  O  O306  1  0.72155066  0.30402125  0.17309934  1
  O  O307  1  0.57993017  0.38992488  0.57988146  1
  O  O308  1  0.63805721  0.85532406  0.10562522  1
  O  O309  1  0.63229036  0.91616316  0.62063404  1
  O  O310  1  0.12304469  0.24255594  0.23109977  1
  O  O311  1  0.12377460  0.24586326  0.76810674  1
  O  O312  1  0.11951343  0.81301676  0.24146315  1
  O  O313  1  0.13654472  0.57718226  0.82298523  1
  O  O314  1  0.62178172  0.30591176  0.29770141  1
  O  O315  1  0.50442999  0.36293719  0.80654221  1
  O  O316  1  0.60419007  0.78737250  0.23980265  1
  O  O317  1  0.60119696  0.79004911  0.79256620  1
  O  O318  1  0.37045821  0.25458109  0.19962645  1
  O  O319  1  0.34370168  0.28075051  0.74726335  1
  O  O320  1  0.39846234  0.80690819  0.21783018  1
  O  O321  1  0.37941903  0.76643062  0.71785193  1
  O  O322  1  0.87755794  0.22466925  0.23408204  1
  O  O323  1  0.89173800  0.22811463  0.75156009  1
  O  O324  1  0.79386316  0.73175001  0.19226011  1
  O  O325  1  1.01907528  0.64660359  0.70425575  1
  O  O326  1  0.33172580  0.42600588  0.37910020  1
  O  O327  1  0.33334224  0.49146255  0.96485739  1
  O  O328  1  0.38977804  0.98665659  0.53714959  1
  O  O329  1  0.37219243  1.00714023  0.98010907  1
  O  O330  1  0.83345892  0.44278405  0.52264924  1
  O  O331  1  0.88112488  0.52133496  0.96225366  1
  O  O332  1  0.90941333  0.97707201  0.56313867  1
  O  O333  1  0.93411902  0.93961039  1.05877098  1
  O  O334  1  0.12983565  0.01780904  -0.01595631  1
  O  O335  1  0.11887232  0.01546007  0.51128267  1
  O  O336  1  0.07142622  0.63612629  0.16416492  1
  O  O337  1  0.20012025  0.60377576  0.41903950  1
  O  O338  1  0.63205490  0.01479195  0.01409047  1
  O  O339  1  0.62232735  0.04197157  0.51624390  1
  O  O340  1  0.64158944  0.45463283  0.08504699  1
  O  O341  1  0.67564938  0.49821718  0.55140528  1
  O  O342  1  0.32554218  0.36344158  0.10439146  1
  O  O343  1  0.40714207  0.30127188  0.59540925  1
  O  O344  1  0.37001284  0.90052424  0.10091136  1
  O  O345  1  0.38459592  0.91825628  0.57253025  1
  O  O346  1  0.84424759  0.31828376  -0.01296487  1
  O  O347  1  0.90661088  0.34931765  0.63726046  1
  O  O348  1  0.86055232  0.79122851  0.05983491  1
  O  O349  1  0.83856790  0.86336810  0.64745550  1
  O  O350  1  0.09835773  0.08957003  0.37638870  1
  O  O351  1  0.10975448  0.12995337  0.87999388  1
  O  O352  1  0.16897311  0.60788477  0.35621219  1
  O  O353  1  -0.00050267  0.70741505  1.03970115  1
  O  O354  1  0.61937970  0.18098119  0.43762343  1
  O  O355  1  0.67598669  0.10989747  0.89513573  1
  O  O356  1  0.62743197  0.57856701  0.35007934  1
  O  O357  1  0.59802242  0.62989640  0.84542971  1
