# generated using pymatgen
data_V51Zn51O256
_symmetry_space_group_name_H-M   'P 1'
_cell_length_a   17.51172368
_cell_length_b   17.52207137
_cell_length_c   17.40122955
_cell_angle_alpha   90.09939937
_cell_angle_beta   90.94070292
_cell_angle_gamma   90.29761342
_symmetry_Int_Tables_number   1
_chemical_formula_structural   V51Zn51O256
_chemical_formula_sum   'V51 Zn51 O256'
_cell_volume   5338.62186470
_cell_formula_units_Z   1
loop_
 _symmetry_equiv_pos_site_id
 _symmetry_equiv_pos_as_xyz
  1  'x, y, z'
loop_
 _atom_site_type_symbol
 _atom_site_label
 _atom_site_symmetry_multiplicity
 _atom_site_fract_x
 _atom_site_fract_y
 _atom_site_fract_z
 _atom_site_occupancy
  V  V0  1  0.43152112  0.84679929  0.53757364  1
  V  V1  1  0.46887195  0.32839271  0.86003947  1
  V  V2  1  0.49975202  0.30393873  0.35770203  1
  V  V3  1  0.86560357  0.31676038  0.64243173  1
  V  V4  1  0.76677026  0.01074273  0.73015197  1
  V  V5  1  0.88483918  0.66103300  0.75119918  1
  V  V6  1  0.78552403  0.23457632  0.01160635  1
  V  V7  1  0.27652450  0.66326536  0.41685315  1
  V  V8  1  0.11998443  0.75007960  0.40992769  1
  V  V9  1  0.36440648  0.47919650  0.39048349  1
  V  V10  1  0.63640005  0.12122467  -0.00206019  1
  V  V11  1  0.03300070  0.47638165  0.01552118  1
  V  V12  1  0.11456154  0.59890807  0.50476870  1
  V  V13  1  0.66865913  0.25188457  0.33535815  1
  V  V14  1  0.12891072  0.24076681  0.85461519  1
  V  V15  1  0.49164830  0.55819599  0.01355564  1
  V  V16  1  0.89358406  -0.01129996  0.88237771  1
  V  V17  1  0.69293239  0.61157251  0.30980093  1
  V  V18  1  0.00399932  0.63980377  0.12933354  1
  V  V19  1  0.76960235  0.12709042  0.86934989  1
  V  V20  1  0.87245394  0.51983957  0.84708834  1
  V  V21  1  0.88175336  0.10911600  0.22286071  1
  V  V22  1  0.65153431  0.19817173  0.51313237  1
  V  V23  1  0.15076767  0.66988430  0.02859863  1
  V  V24  1  0.76293044  -0.02382090  0.22370845  1
  V  V25  1  0.34492656  0.59713756  0.27209568  1
  V  V26  1  0.87216790  0.00355949  0.37884320  1
  V  V27  1  0.35829762  0.60062001  0.72912137  1
  V  V28  1  -0.00911935  0.09537568  0.61636232  1
  V  V29  1  0.61977811  -0.01144147  0.11676023  1
  V  V30  1  0.00143056  0.86964287  0.39541718  1
  V  V31  1  0.29565032  -0.01579909  0.29226820  1
  V  V32  1  0.12722700  0.40920570  0.23509526  1
  V  V33  1  0.76115161  0.81643296  0.59798200  1
  V  V34  1  0.00666595  0.74590895  0.25388289  1
  V  V35  1  0.49254928  0.50156205  0.50762001  1
  V  V36  1  0.53660511  0.18938821  0.64065174  1
  V  V37  1  0.10240177  0.23749096  0.36846978  1
  V  V38  1  0.02336542  0.65540017  0.63418731  1
  V  V39  1  0.86559343  0.81750030  0.46673555  1
  V  V40  1  0.21145905  0.91401126  0.65594789  1
  V  V41  1  0.43856916  0.11825737  0.78898862  1
  V  V42  1  0.01646058  0.20565112  0.22885175  1
  V  V43  1  0.26596257  0.38560712  0.13560442  1
  V  V44  1  0.24369600  0.20791377  0.05699678  1
  V  V45  1  0.34763987  0.20612308  0.61425517  1
  V  V46  1  0.22882776  0.58348701  0.89080714  1
  V  V47  1  0.66418022  -0.02103248  0.58222947  1
  V  V48  1  0.14156796  0.88161245  0.25845237  1
  V  V49  1  0.73904661  0.38707038  0.08145535  1
  V  V50  1  0.92264345  0.48121895  0.33947286  1
  Zn  Zn51  1  0.04976294  0.62066901  0.84431752  1
  Zn  Zn52  1  0.94659353  0.44850998  0.16349880  1
  Zn  Zn53  1  0.08049010  0.57055730  0.31268709  1
  Zn  Zn54  1  0.86586626  0.29299609  0.30895502  1
  Zn  Zn55  1  0.91377105  0.93666505  0.60447565  1
  Zn  Zn56  1  0.19433705  0.70019431  0.22593891  1
  Zn  Zn57  1  0.41186726  0.69331142  0.87112019  1
  Zn  Zn58  1  0.70841194  0.16394048  0.17377258  1
  Zn  Zn59  1  0.72750446  0.20754463  0.69979952  1
  Zn  Zn60  1  0.59355488  0.36739787  0.47736199  1
  Zn  Zn61  1  0.18145500  0.94427069  0.45034840  1
  Zn  Zn62  1  0.58478448  0.79122567  0.60746085  1
  Zn  Zn63  1  0.04709203  0.25427060  0.55002121  1
  Zn  Zn64  1  0.05303595  0.05187477  0.32653209  1
  Zn  Zn65  1  0.50769652  0.54778186  0.30576959  1
  Zn  Zn66  1  0.69386568  0.52537325  0.48129260  1
  Zn  Zn67  1  0.42909385  0.66883235  0.55822673  1
  Zn  Zn68  1  0.83655535  0.53187466  0.63446507  1
  Zn  Zn69  1  0.29597408  0.57477026  0.08221049  1
  Zn  Zn70  1  0.71163200  0.91647833  0.40686830  1
  Zn  Zn71  1  0.43920775  0.18068857  0.95939235  1
  Zn  Zn72  1  0.36365991  0.47054083  0.87049711  1
  Zn  Zn73  1  0.30212243  0.55269579  0.55752851  1
  Zn  Zn74  1  0.08105899  0.30490952  0.07631073  1
  Zn  Zn75  1  0.24973943  0.33426887  0.34120340  1
  Zn  Zn76  1  0.03852949  0.09262306  0.79889045  1
  Zn  Zn77  1  0.31971038  0.77070120  0.67921970  1
  Zn  Zn78  1  0.43126834  0.41898311  0.20901966  1
  Zn  Zn79  1  0.15897407  0.16188832  0.67874457  1
  Zn  Zn80  1  0.08320771  0.41293207  0.42134432  1
  Zn  Zn81  1  0.68903347  0.98314127  0.91034701  1
  Zn  Zn82  1  0.43337767  0.99737853  0.19478996  1
  Zn  Zn83  1  0.29808401  0.84842428  0.38236862  1
  Zn  Zn84  1  0.58432936  0.30426291  0.00621674  1
  Zn  Zn85  1  0.65620974  0.82542285  0.21855747  1
  Zn  Zn86  1  0.22981774  1.09119142  0.82352226  1
  Zn  Zn87  1  0.28102784  0.04720651  0.12464766  1
  Zn  Zn88  1  0.46843553  0.02430966  0.63440970  1
  Zn  Zn89  1  0.82790509  0.04839370  0.04972544  1
  Zn  Zn90  1  0.17600604  0.62883338  0.71255175  1
  Zn  Zn91  1  0.45878030  0.20906575  0.47493932  1
  Zn  Zn92  1  0.81514380  0.07915204  0.53387745  1
  Zn  Zn93  1  0.44731568  0.36846484  0.66246563  1
  Zn  Zn94  1  0.37710157  0.32457878  1.02020949  1
  Zn  Zn95  1  0.85958239  0.85027854  0.75873542  1
  Zn  Zn96  1  0.94842084  0.92066824  0.21794905  1
  Zn  Zn97  1  0.83429515  0.61910602  0.46615172  1
  Zn  Zn98  1  0.69930725  0.72314959  0.73324359  1
  Zn  Zn99  1  0.94270267  0.18799187  0.91636288  1
  Zn  Zn100  1  0.22710659  0.17891219  0.24982037  1
  Zn  Zn101  1  0.19989785  0.40038365  0.95608133  1
  O  O102  1  0.05268737  0.00964883  0.11652914  1
  O  O103  1  0.07263374  0.15824544  0.59761248  1
  O  O104  1  0.17096909  0.65792950  0.12934188  1
  O  O105  1  0.13119152  0.61690049  0.60769413  1
  O  O106  1  0.64887001  0.10472900  0.10157657  1
  O  O107  1  0.64195884  0.18687938  0.63186243  1
  O  O108  1  0.59679925  0.74016723  0.20286599  1
  O  O109  1  0.63975801  0.53959776  0.65807783  1
  O  O110  1  0.32050790  0.39368390  0.40030461  1
  O  O111  1  0.39072016  0.37231762  0.91259922  1
  O  O112  1  0.38411524  0.84724740  0.45104198  1
  O  O113  1  0.38418981  0.78772360  0.77742531  1
  O  O114  1  0.89280472  0.38805283  0.35169761  1
  O  O115  1  0.88160710  0.42539775  0.84406597  1
  O  O116  1  0.89122220  0.85485232  0.37441569  1
  O  O117  1  0.88743341  0.89335535  0.85597842  1
  O  O118  1  0.27239560  -0.03664488  0.39426783  1
  O  O119  1  0.27117167  0.03154681  0.91355713  1
  O  O120  1  0.29875914  0.55914557  0.37635721  1
  O  O121  1  0.26227961  0.48847531  0.91688485  1
  O  O122  1  0.77491126  -0.01774253  0.34377975  1
  O  O123  1  0.78292510  -0.00053732  0.84452254  1
  O  O124  1  0.68922125  0.51661013  0.35999409  1
  O  O125  1  0.79953292  0.54123805  0.90086568  1
  O  O126  1  0.25782905  0.47924590  0.11996871  1
  O  O127  1  0.24693026  0.45239823  0.59865523  1
  O  O128  1  0.32147115  0.96773874  0.17815600  1
  O  O129  1  0.21658048  1.00678280  0.61976602  1
  O  O130  1  0.73569159  0.47704607  0.06013963  1
  O  O131  1  0.58066200  0.53200829  0.69408436  1
  O  O132  1  0.78402951  0.98177786  0.12662756  1
  O  O133  1  0.74944222  1.03037167  0.61849142  1
  O  O134  1  0.03119796  0.39810339  0.21914990  1
  O  O135  1  0.05101436  0.45034337  0.73747840  1
  O  O136  1  0.02200271  0.86009621  0.26871876  1
  O  O137  1  0.01021558  0.90431300  0.73760173  1
  O  O138  1  0.44147965  0.34507218  0.29182937  1
  O  O139  1  0.46816225  0.37375604  0.77242077  1
  O  O140  1  0.45617336  0.82923116  0.20146092  1
  O  O141  1  0.57191156  0.88918279  0.84248915  1
  O  O142  1  0.43937329  0.16612500  0.14725090  1
  O  O143  1  0.52758800  0.16424131  0.73842527  1
  O  O144  1  0.43306209  0.63222751  0.29495531  1
  O  O145  1  0.43477293  0.64517210  0.77142695  1
  O  O146  1  0.99352563  0.10243207  0.24364035  1
  O  O147  1  0.96908819  0.10572218  0.71069217  1
  O  O148  1  1.03123163  0.63932415  0.23979770  1
  O  O149  1  1.06385175  0.64490799  0.73240976  1
  O  O150  1  0.33326773  0.21201251  0.00752947  1
  O  O151  1  0.35867940  0.21524948  0.51579054  1
  O  O152  1  0.37652915  0.77103296  -0.05258560  1
  O  O153  1  0.39682008  0.76681824  0.59554753  1
  O  O154  1  0.88276279  0.22866965  -0.00579458  1
  O  O155  1  0.82904408  0.33946005  0.55134948  1
  O  O156  1  0.76383757  0.68350886  0.09686539  1
  O  O157  1  0.87192424  0.72163987  0.46517345  1
  O  O158  1  0.08400837  0.29383692  0.45460128  1
  O  O159  1  0.15195100  0.23691366  1.02839873  1
  O  O160  1  0.11144922  0.74040654  0.50275481  1
  O  O161  1  0.16044830  0.76102354  1.01233847  1
  O  O162  1  0.66419918  0.29574775  0.51754851  1
  O  O163  1  0.66485240  0.21934243  0.99336302  1
  O  O164  1  0.59153192  0.80871700  0.37974892  1
  O  O165  1  0.63767243  0.74311429  0.99890025  1
  O  O166  1  0.47706139  0.27557624  0.01100078  1
  O  O167  1  0.51825784  0.28259289  0.63363633  1
  O  O168  1  0.43334073  0.80089681  -0.00492691  1
  O  O169  1  0.60314885  0.73242415  0.69021734  1
  O  O170  1  1.01153609  0.24470425  0.14035490  1
  O  O171  1  0.94915518  0.28888183  0.59094082  1
  O  O172  1  1.02044344  0.74695037  0.15244939  1
  O  O173  1  1.02044056  0.74617188  0.62273441  1
  O  O174  1  0.01649080  0.26724262  0.31412797  1
  O  O175  1  0.03789512  0.18733351  0.87003569  1
  O  O176  1  0.01940066  0.76016324  0.37384171  1
  O  O177  1  0.04159369  0.85663783  0.77777387  1
  O  O178  1  0.47877433  0.20892291  0.36108765  1
  O  O179  1  0.45177077  0.23204849  0.84870961  1
  O  O180  1  0.52990516  0.78759279  0.34883538  1
  O  O181  1  0.51989278  0.76061351  0.87533394  1
  O  O182  1  0.22093949  0.10163804  0.47473768  1
  O  O183  1  0.22683196  0.10789931  1.06140819  1
  O  O184  1  0.23278133  0.61902574  0.49974480  1
  O  O185  1  0.24148807  0.62053298  1.00080063  1
  O  O186  1  0.73724519  0.15259814  0.51829493  1
  O  O187  1  0.77105402  0.12259704  0.98748882  1
  O  O188  1  0.72788315  0.63519718  0.41016676  1
  O  O189  1  0.78908749  0.69827479  0.94723618  1
  O  O190  1  0.26118371  0.34501168  0.03519538  1
  O  O191  1  0.25370609  0.39381466  0.55796934  1
  O  O192  1  0.28059913  0.95476240  -0.09549453  1
  O  O193  1  0.18761739  0.90537084  0.55358996  1
  O  O194  1  0.77102798  0.33440207  -0.00444350  1
  O  O195  1  0.78322412  0.55120174  0.53958975  1
  O  O196  1  0.58864800  0.77685401  0.03493264  1
  O  O197  1  0.76698828  0.83912606  0.46921220  1
  O  O198  1  0.14409280  0.50466774  0.24685279  1
  O  O199  1  0.04068425  0.48324028  0.67574555  1
  O  O200  1  0.12395879  0.97533172  0.29035077  1
  O  O201  1  0.14102997  1.08156934  0.75726387  1
  O  O202  1  0.51857938  0.48223480  0.22214673  1
  O  O203  1  0.69517283  0.42915929  0.86532660  1
  O  O204  1  0.66624336  1.00812329  0.21503498  1
  O  O205  1  0.68704386  0.96175933  0.73130966  1
  O  O206  1  0.39383665  -0.01436759  0.30209909  1
  O  O207  1  0.45811719  0.03215830  0.74629759  1
  O  O208  1  0.36754848  0.49319480  0.27841509  1
  O  O209  1  0.34935426  0.51060376  0.76657855  1
  O  O210  1  0.87994516  -0.00436983  0.25012342  1
  O  O211  1  0.85063240  -0.04349037  0.70466643  1
  O  O212  1  0.90881133  0.50981193  0.24645302  1
  O  O213  1  0.84580108  0.53924317  0.74379418  1
  O  O214  1  0.13693734  0.36771931  0.33367034  1
  O  O215  1  0.13893394  0.33202073  0.89204666  1
  O  O216  1  0.10890425  0.86858220  0.40865125  1
  O  O217  1  0.13567570  0.91581513  0.95284625  1
  O  O218  1  0.60226557  0.33235563  0.34945835  1
  O  O219  1  0.55812534  0.34514646  0.90246054  1
  O  O220  1  0.63775435  0.86165954  0.33462169  1
  O  O221  1  0.63429538  0.88093197  0.87753301  1
  O  O222  1  0.39047090  0.10118670  0.16286020  1
  O  O223  1  0.43833788  0.13715227  0.61899413  1
  O  O224  1  0.32893206  0.61669200  0.17778721  1
  O  O225  1  0.37914900  0.59183529  0.62850788  1
  O  O226  1  0.89225399  0.10351993  0.12737073  1
  O  O227  1  0.82706801  0.21936043  0.63939061  1
  O  O228  1  0.91285530  0.64532105  0.11804948  1
  O  O229  1  0.92180527  0.62756040  0.65476506  1
  O  O230  1  0.25944070  0.22906805  0.15466964  1
  O  O231  1  0.25365934  0.17945319  0.62585768  1
  O  O232  1  0.28519616  0.79803510  0.09812972  1
  O  O233  1  0.21048891  0.80760795  0.66332526  1
  O  O234  1  0.77549914  0.22951698  0.10851389  1
  O  O235  1  0.77992286  0.31632242  0.70033657  1
  O  O236  1  0.76259557  0.74910038  0.12169585  1
  O  O237  1  0.74042935  0.72751753  0.57818633  1
  O  O238  1  0.20675055  0.23290174  0.35230716  1
  O  O239  1  0.20249605  0.18181070  0.88369343  1
  O  O240  1  0.23188386  0.76009634  0.41533586  1
  O  O241  1  0.23826108  0.79820469  0.86984985  1
  O  O242  1  0.76194501  0.27654356  0.34207905  1
  O  O243  1  0.76750415  0.22156620  0.87234520  1
  O  O244  1  0.69500218  0.70962463  0.30117156  1
  O  O245  1  0.78350595  0.76791356  0.94898545  1
  O  O246  1  0.06863242  0.06648583  -0.00822026  1
  O  O247  1  -0.08627064  0.12183036  0.56083283  1
  O  O248  1  0.04578278  0.64970563  0.03587729  1
  O  O249  1  0.01806963  0.61507441  0.52713115  1
  O  O250  1  0.54183384  0.12752655  -0.01189278  1
  O  O251  1  0.55023008  0.16880413  0.52696972  1
  O  O252  1  0.47933908  0.63960516  -0.04805737  1
  O  O253  1  0.50503262  0.59646334  0.52607590  1
  O  O254  1  0.48651351  0.33157216  0.45470605  1
  O  O255  1  0.51794394  0.46404729  1.03580675  1
  O  O256  1  0.52582295  0.82162286  0.52373373  1
  O  O257  1  0.41765334  0.89679081  0.84028106  1
  O  O258  1  0.98767305  0.41818554  0.50930101  1
  O  O259  1  1.00912167  0.38375155  1.03460870  1
  O  O260  1  0.97520911  0.85807892  0.48914264  1
  O  O261  1  0.91001915  0.82398141  1.06257626  1
  O  O262  1  0.47176248  0.48743558  0.39564798  1
  O  O263  1  0.46058252  0.51971923  0.91595544  1
  O  O264  1  0.44283303  1.02605777  0.43908245  1
  O  O265  1  0.42373299  0.85846734  0.77968609  1
  O  O266  1  1.02190334  0.48976239  0.36370285  1
  O  O267  1  1.02213327  0.50582128  0.90851700  1
  O  O268  1  0.98173037  0.97221666  0.37497249  1
  O  O269  1  0.98517778  1.01345854  0.85609699  1
  O  O270  1  0.00415298  -0.04247957  0.11163336  1
  O  O271  1  0.00100806  -0.00191032  0.59806438  1
  O  O272  1  0.00704687  0.52521882  0.10479737  1
  O  O273  1  -0.05565070  0.47301795  0.52193611  1
  O  O274  1  0.52440377  -0.00127649  0.13583952  1
  O  O275  1  0.57976943  0.01457580  0.61055681  1
  O  O276  1  0.48399532  0.61013381  0.09858299  1
  O  O277  1  0.47898191  0.44683362  0.58839675  1
  O  O278  1  0.25225546  0.37589084  0.23764098  1
  O  O279  1  0.14009754  0.35887012  0.67040272  1
  O  O280  1  0.24883767  0.88009347  0.28004766  1
  O  O281  1  0.24247996  0.94512944  0.74682629  1
  O  O282  1  0.78726935  0.38663924  0.18472924  1
  O  O283  1  0.67987383  0.46266088  0.80541077  1
  O  O284  1  0.75147043  0.87891071  0.23414990  1
  O  O285  1  0.76740794  0.81620443  0.69955807  1
  O  O286  1  0.25790627  0.07336360  0.27266869  1
  O  O287  1  0.32989886  0.10447676  0.76146622  1
  O  O288  1  0.27309463  0.67157609  0.30472075  1
  O  O289  1  0.18736327  0.56247753  0.80167119  1
  O  O290  1  0.78277741  0.10314456  0.23593700  1
  O  O291  1  0.75684524  0.11519987  0.75711708  1
  O  O292  1  0.66030136  0.58702735  0.21889047  1
  O  O293  1  0.78836592  0.67228229  0.76531346  1
  O  O294  1  0.39618064  0.07764870  0.44258993  1
  O  O295  1  0.43227140  0.09397924  0.88311939  1
  O  O296  1  0.36355732  0.68081086  0.45135194  1
  O  O297  1  0.30953020  0.63496810  0.86526703  1
  O  O298  1  0.88239230  0.09619270  0.36611445  1
  O  O299  1  0.87200166  0.10749223  0.87339635  1
  O  O300  1  0.78273497  0.59151286  0.27641779  1
  O  O301  1  0.93646861  0.61843141  0.83242648  1
  O  O302  1  0.15132364  0.36887650  0.14052823  1
  O  O303  1  0.10940627  0.35228449  0.60579924  1
  O  O304  1  0.14219600  0.88571173  0.16518732  1
  O  O305  1  0.12400338  0.90579774  0.69327656  1
  O  O306  1  0.64539200  0.35336631  0.08695382  1
  O  O307  1  0.62642610  0.33509510  0.74469288  1
  O  O308  1  0.63226786  0.89258020  0.12603980  1
  O  O309  1  0.67178483  0.87483845  0.59220997  1
  O  O310  1  0.11402077  0.19136618  0.24421849  1
  O  O311  1  0.13472399  0.24279476  0.75560164  1
  O  O312  1  0.13416190  0.77125627  0.28378672  1
  O  O313  1  0.17266668  0.78453421  0.84759331  1
  O  O314  1  0.64726740  0.21479732  0.24792450  1
  O  O315  1  0.65350992  0.27817996  0.77666186  1
  O  O316  1  0.41120462  0.78962114  0.23750319  1
  O  O317  1  0.56718033  0.71823689  0.83603134  1
  O  O318  1  0.42713794  0.22429006  0.18665263  1
  O  O319  1  0.35624337  0.17844545  0.74141197  1
  O  O320  1  0.32886976  0.85238032  0.09757467  1
  O  O321  1  0.27986267  0.67003308  0.71302311  1
  O  O322  1  0.89853808  0.21069122  0.24491661  1
  O  O323  1  0.93220786  0.30680166  0.71784222  1
  O  O324  1  0.91432889  0.74457843  0.26039114  1
  O  O325  1  0.91561507  0.75374466  0.75075614  1
  O  O326  1  0.37816040  0.50467169  0.49254221  1
  O  O327  1  0.39430773  0.53785611  1.04278081  1
  O  O328  1  0.43101030  0.93544338  0.58121703  1
  O  O329  1  0.30401494  0.91963566  0.96382866  1
  O  O330  1  0.87937335  0.54598879  0.39915157  1
  O  O331  1  0.94949581  0.51556808  0.94305098  1
  O  O332  1  0.85653078  0.99093233  0.47777895  1
  O  O333  1  0.88759967  0.98770550  0.98018189  1
  O  O334  1  0.06954252  -0.10683574  -0.04528601  1
  O  O335  1  0.16188313  0.06127477  0.47180155  1
  O  O336  1  0.12906585  0.47597755  0.00839046  1
  O  O337  1  0.12198746  0.50425317  0.48673997  1
  O  O338  1  0.64293195  -0.00099927  0.01147271  1
  O  O339  1  0.66921084  -0.01338503  0.48552655  1
  O  O340  1  0.58963903  0.57266123  0.01282237  1
  O  O341  1  0.59651169  0.47650048  0.49081248  1
  O  O342  1  0.37095946  0.37149852  0.13070992  1
  O  O343  1  0.36119837  0.29715353  0.64863812  1
  O  O344  1  0.46659047  0.86218757  -0.02442706  1
  O  O345  1  0.31193237  0.88360287  0.64803293  1
  O  O346  1  0.84852635  0.38356982  0.13554470  1
  O  O347  1  0.87233561  0.41539139  0.65338171  1
  O  O348  1  0.88169316  0.85050679  0.12123618  1
  O  O349  1  0.86232362  0.84251632  0.57829343  1
  O  O350  1  0.07785752  0.14596914  0.39037698  1
  O  O351  1  0.13013471  0.05179465  0.96376592  1
  O  O352  1  0.12319024  0.64041986  0.39759375  1
  O  O353  1  0.13507111  0.63464175  0.91560245  1
  O  O354  1  0.64121004  0.18630254  0.40693874  1
  O  O355  1  0.66823647  0.09336675  0.89267317  1
  O  O356  1  0.59302503  0.61062376  0.33742273  1
  O  O357  1  0.64053502  0.72934282  0.84895230  1
