# generated using pymatgen
data_V51Zn51O256
_symmetry_space_group_name_H-M   'P 1'
_cell_length_a   17.38728173
_cell_length_b   17.32411226
_cell_length_c   17.30690767
_cell_angle_alpha   89.95592323
_cell_angle_beta   90.48695334
_cell_angle_gamma   89.49371841
_symmetry_Int_Tables_number   1
_chemical_formula_structural   V51Zn51O256
_chemical_formula_sum   'V51 Zn51 O256'
_cell_volume   5212.77959248
_cell_formula_units_Z   1
loop_
 _symmetry_equiv_pos_site_id
 _symmetry_equiv_pos_as_xyz
  1  'x, y, z'
loop_
 _atom_site_type_symbol
 _atom_site_label
 _atom_site_symmetry_multiplicity
 _atom_site_fract_x
 _atom_site_fract_y
 _atom_site_fract_z
 _atom_site_occupancy
  V  V0  1  0.66588100  0.37688274  0.76399472  1
  V  V1  1  0.62388389  0.72214936  0.85303192  1
  V  V2  1  0.73428840  0.53622054  0.68838586  1
  V  V3  1  0.77375334  0.85662764  0.07260093  1
  V  V4  1  0.37323357  -0.00051145  0.86989858  1
  V  V5  1  -0.02622540  0.25536428  0.76141102  1
  V  V6  1  0.57026344  0.30866641  0.87433102  1
  V  V7  1  0.51241021  -0.00214132  0.00722042  1
  V  V8  1  0.64211355  0.82707006  0.28681096  1
  V  V9  1  0.89550523  0.47461683  0.40416830  1
  V  V10  1  0.79654222  0.50509428  0.19200035  1
  V  V11  1  0.06523982  0.54421550  0.57411758  1
  V  V12  1  0.72196969  0.23589778  0.50429859  1
  V  V13  1  -0.02810975  0.42682826  0.85024755  1
  V  V14  1  0.24029440  0.82825972  0.11574686  1
  V  V15  1  0.78662712  0.63437195  0.39555911  1
  V  V16  1  0.50304682  0.87858339  0.86531557  1
  V  V17  1  0.86700755  0.25757396  0.61877595  1
  V  V18  1  0.36088069  0.37287318  0.49969599  1
  V  V19  1  0.86850099  0.08580361  0.23991166  1
  V  V20  1  0.50494905  0.51582014  -0.00097671  1
  V  V21  1  0.38076514  0.48859489  0.87597291  1
  V  V22  1  0.74279237  -0.03271123  0.28601006  1
  V  V23  1  0.47994633  0.71514870  0.75407500  1
  V  V24  1  0.41025154  0.24288223  0.12121232  1
  V  V25  1  0.48306045  0.12689527  0.62161310  1
  V  V26  1  0.49074165  0.30741439  0.26722071  1
  V  V27  1  0.09581701  0.02010185  0.16315021  1
  V  V28  1  0.74074819  0.12129108  0.38616040  1
  V  V29  1  0.78185351  0.90515926  0.62875141  1
  V  V30  1  0.39703253  0.01573602  0.34865266  1
  V  V31  1  0.86966957  0.43693010  0.01139035  1
  V  V32  1  0.73678936  0.11731603  0.86700501  1
  V  V33  1  0.12476473  0.36277978  0.81618416  1
  V  V34  1  0.14227621  0.12589466  0.51237778  1
  V  V35  1  0.64252912  0.41890663  0.21571248  1
  V  V36  1  -0.00576658  0.74758268  0.74987155  1
  V  V37  1  0.14105886  0.01390670  0.65396639  1
  V  V38  1  0.22683600  0.36200328  0.12472817  1
  V  V39  1  0.82003733  0.75363758  0.51835553  1
  V  V40  1  0.21030957  0.22854318  0.01463226  1
  V  V41  1  -0.00241973  0.00684781  0.50784691  1
  V  V42  1  0.38776686  0.85823714  0.01156434  1
  V  V43  1  0.27073377  0.63315703  0.90203698  1
  V  V44  1  0.13522183  0.75853185  0.38831086  1
  V  V45  1  0.35131511  0.13510383  0.24677883  1
  V  V46  1  0.14921338  0.24000074  0.37841253  1
  V  V47  1  0.24726038  0.12535803  0.86531310  1
  V  V48  1  0.75836602  0.71567139  -0.03812675  1
  V  V49  1  0.24122180  0.85117260  0.67283730  1
  V  V50  1  -0.00813816  0.12516700  0.63743099  1
  Zn  Zn51  1  0.37143685  0.40066695  0.70535675  1
  Zn  Zn52  1  0.75539876  0.70256723  0.16754153  1
  Zn  Zn53  1  0.59856604  0.00432482  0.39604278  1
  Zn  Zn54  1  0.45138125  0.16999865  0.93189261  1
  Zn  Zn55  1  0.92275857  0.43712819  0.66471618  1
  Zn  Zn56  1  0.15701897  0.18398143  0.19853350  1
  Zn  Zn57  1  0.05986597  0.35071101  0.01754703  1
  Zn  Zn58  1  0.29672206  0.53394105  0.03652838  1
  Zn  Zn59  1  0.07968768  0.83967812  0.57418609  1
  Zn  Zn60  1  0.31969475  0.80473793  0.83322745  1
  Zn  Zn61  1  -0.03222736  0.63438044  0.37864987  1
  Zn  Zn62  1  0.42906239  0.19860590  0.42410274  1
  Zn  Zn63  1  0.41743743  0.92910257  0.68857897  1
  Zn  Zn64  1  0.45177946  0.68110546  0.93978580  1
  Zn  Zn65  1  0.64454975  0.86973525  -0.03620213  1
  Zn  Zn66  1  0.32342977  0.28877612  0.84278843  1
  Zn  Zn67  1  0.82442137  0.78227446  0.32274079  1
  Zn  Zn68  1  0.31066616  0.07852760  0.59895029  1
  Zn  Zn69  1  0.21946414  0.95122064  0.96444319  1
  Zn  Zn70  1  0.83923270  0.30812296  0.43147280  1
  Zn  Zn71  1  0.24812515  0.52043616  0.50978833  1
  Zn  Zn72  1  0.29980694  0.84816144  0.30206606  1
  Zn  Zn73  1  0.66308799  0.84306072  0.48737450  1
  Zn  Zn74  1  0.92076261  0.93721757  0.76551023  1
  Zn  Zn75  1  0.13764868  0.38879951  0.47826750  1
  Zn  Zn76  1  0.30729980  0.31478700  0.30061643  1
  Zn  Zn77  1  0.64315918  0.61898568  0.25730672  1
  Zn  Zn78  1  0.05397522  0.07249611  0.82356327  1
  Zn  Zn79  1  0.55782177  0.82353631  0.64028479  1
  Zn  Zn80  1  0.22422123  0.64554627  0.65327809  1
  Zn  Zn81  1  0.85459728  0.56196806  0.56574765  1
  Zn  Zn82  1  0.67940624  0.41111340  1.00893621  1
  Zn  Zn83  1  0.26034951  0.40349999  0.93837596  1
  Zn  Zn84  1  0.91082905  0.93127054  0.17026092  1
  Zn  Zn85  1  0.38168351  0.44171150  0.16827090  1
  Zn  Zn86  1  0.49961838  0.89615450  0.16518799  1
  Zn  Zn87  1  0.06069345  0.88302816  0.06721162  1
  Zn  Zn88  1  0.83229128  0.04619156  0.04733345  1
  Zn  Zn89  1  0.05785218  0.09006078  0.33024258  1
  Zn  Zn90  1  0.74125325  0.39385010  0.59032068  1
  Zn  Zn91  1  0.55557194  0.31957524  0.07225990  1
  Zn  Zn92  1  0.79338889  0.81089684  0.79340742  1
  Zn  Zn93  1  0.91730718  0.61456227  0.90717430  1
  Zn  Zn94  1  0.28068410  0.65076737  0.37034903  1
  Zn  Zn95  1  0.01394221  0.26030990  0.52615506  1
  Zn  Zn96  1  0.56646665  0.53694308  0.80895339  1
  Zn  Zn97  1  0.15743028  0.19366735  0.72329365  1
  Zn  Zn98  1  0.33930272  0.07569129  0.04685655  1
  Zn  Zn99  1  0.69564728  0.73767312  0.65758624  1
  Zn  Zn100  1  0.81452627  0.06818681  0.56794454  1
  Zn  Zn101  1  0.80547504  0.31715414  0.88767893  1
  O  O102  1  0.08842517  0.11553100  0.13915588  1
  O  O103  1  0.11854965  0.12906157  0.64257414  1
  O  O104  1  0.13744292  0.65391865  0.13370423  1
  O  O105  1  0.12166267  0.60142285  0.62986245  1
  O  O106  1  0.58736715  0.11364844  0.16677107  1
  O  O107  1  0.56228426  0.07659311  0.58952567  1
  O  O108  1  0.49997657  0.68588878  0.20689244  1
  O  O109  1  0.58585027  0.65385306  0.47874121  1
  O  O110  1  0.34031897  0.37480560  0.39610807  1
  O  O111  1  0.37267881  0.38895493  0.89502557  1
  O  O112  1  0.35815442  0.92455248  0.35189338  1
  O  O113  1  0.36508024  0.88937195  0.89509236  1
  O  O114  1  0.89087662  0.38043589  0.36998476  1
  O  O115  1  0.89420456  0.39349360  0.90150607  1
  O  O116  1  0.92751566  0.84583928  0.35329020  1
  O  O117  1  0.85546388  0.88766197  0.83787558  1
  O  O118  1  0.31500571  0.03567379  0.44110611  1
  O  O119  1  0.26264585  0.01642767  0.88818712  1
  O  O120  1  0.11435921  0.48978535  0.29890766  1
  O  O121  1  0.27492918  0.50785412  0.90527394  1
  O  O122  1  0.76511934  0.01747805  0.37466477  1
  O  O123  1  0.80478709  0.04283622  0.85099299  1
  O  O124  1  0.81114206  0.53220744  0.38401747  1
  O  O125  1  0.79467399  0.53202960  0.80807447  1
  O  O126  1  0.28046101  0.45458587  0.11134827  1
  O  O127  1  0.27902706  0.57029484  0.59929615  1
  O  O128  1  0.18416376  0.97896287  0.11750290  1
  O  O129  1  0.23807301  1.02705833  0.66060805  1
  O  O130  1  0.81657967  0.46351216  0.10116182  1
  O  O131  1  0.70748025  0.50093334  0.59949024  1
  O  O132  1  0.83787322  0.94010336  0.08098408  1
  O  O133  1  0.74459113  0.99655654  0.61898808  1
  O  O134  1  -0.00781692  0.40055983  0.22253634  1
  O  O135  1  -0.03513184  0.37992259  0.75926263  1
  O  O136  1  -0.03259250  0.87068815  0.29865087  1
  O  O137  1  -0.00319195  0.85171988  0.76627707  1
  O  O138  1  0.42524802  0.38261092  0.26108953  1
  O  O139  1  0.48951963  0.45058622  0.66910409  1
  O  O140  1  0.55342896  0.84185777  0.24053166  1
  O  O141  1  0.46489312  0.86048889  0.77404223  1
  O  O142  1  0.55791702  0.10678487  0.23015410  1
  O  O143  1  0.49885132  0.10247336  0.71765654  1
  O  O144  1  0.52413414  0.63535865  0.26265099  1
  O  O145  1  0.49870571  0.61769760  0.75671992  1
  O  O146  1  0.95924058  0.10750633  0.26780026  1
  O  O147  1  1.00698482  0.15154014  0.74545990  1
  O  O148  1  0.96017121  0.68893336  0.12506088  1
  O  O149  1  0.98005279  0.66361163  0.70038199  1
  O  O150  1  0.43810282  0.23620749  0.02753768  1
  O  O151  1  0.35811122  0.26970053  0.48078120  1
  O  O152  1  0.38859469  0.76369471  -0.01309228  1
  O  O153  1  0.32415070  0.71263660  0.50185251  1
  O  O154  1  0.90272088  0.23298849  0.03755632  1
  O  O155  1  0.89815775  0.25640696  0.51629649  1
  O  O156  1  0.85567069  0.70218463  -0.05958200  1
  O  O157  1  0.91245381  0.76136957  0.50517106  1
  O  O158  1  0.11965471  0.23456471  0.48543002  1
  O  O159  1  0.11622583  0.24911431  0.99273005  1
  O  O160  1  0.12603841  0.77366571  0.49301991  1
  O  O161  1  0.07498836  0.69089029  0.98007952  1
  O  O162  1  0.62952095  0.23515889  0.50854581  1
  O  O163  1  0.60594443  0.31813381  0.97108545  1
  O  O164  1  0.53511591  0.64768598  0.42263009  1
  O  O165  1  0.63831715  0.75606153  0.95380299  1
  O  O166  1  0.50655455  0.26898969  0.16403812  1
  O  O167  1  0.51841505  0.21693135  0.64156338  1
  O  O168  1  0.43295653  0.67617825  0.18005004  1
  O  O169  1  0.48191181  0.74318093  0.65768467  1
  O  O170  1  0.95900776  0.22455905  0.08011941  1
  O  O171  1  0.98144638  0.24674787  0.63898078  1
  O  O172  1  0.97214601  0.80563066  0.06824979  1
  O  O173  1  1.02761228  0.78101749  0.65470461  1
  O  O174  1  0.01918475  0.34231608  0.25192372  1
  O  O175  1  -0.03639415  0.25162421  0.85560007  1
  O  O176  1  0.04137786  0.71923657  0.38961691  1
  O  O177  1  -0.02740610  0.71247530  0.84504696  1
  O  O178  1  0.48984366  0.25952084  0.35346708  1
  O  O179  1  0.48919232  0.25434027  0.86945150  1
  O  O180  1  0.46685913  0.80684577  0.43393797  1
  O  O181  1  0.51124934  0.74773452  0.86676939  1
  O  O182  1  0.23574453  0.13803156  0.54134230  1
  O  O183  1  0.24237365  0.13042172  1.02522013  1
  O  O184  1  0.28551095  0.55292650  0.41370234  1
  O  O185  1  0.25036165  0.62641682  1.00010656  1
  O  O186  1  0.75093355  0.12301732  0.49115383  1
  O  O187  1  0.76595183  0.08713865  0.96701053  1
  O  O188  1  0.80465775  0.63596305  0.49880355  1
  O  O189  1  0.72975096  0.62751007  0.97374443  1
  O  O190  1  0.25109989  0.32799761  0.01610246  1
  O  O191  1  0.25503630  0.39616786  0.50257059  1
  O  O192  1  0.27917662  0.87807953  0.02632919  1
  O  O193  1  0.32296638  0.78213753  0.51801553  1
  O  O194  1  0.78106569  0.37876945  -0.01678582  1
  O  O195  1  0.74626751  0.33786027  0.49614878  1
  O  O196  1  0.75729672  0.85726407  -0.02787895  1
  O  O197  1  0.77943060  0.85692035  0.53367687  1
  O  O198  1  0.17053179  0.50176874  0.25882854  1
  O  O199  1  0.11954327  0.43982725  0.76311916  1
  O  O200  1  0.11202150  1.01608750  0.25877817  1
  O  O201  1  0.11285510  1.00786147  0.74721125  1
  O  O202  1  0.60687999  0.50879310  0.22267498  1
  O  O203  1  0.66047538  0.48892015  0.75184889  1
  O  O204  1  0.64286142  0.94255558  0.31008180  1
  O  O205  1  0.51842282  0.92325510  0.64922370  1
  O  O206  1  0.39286777  0.03680209  0.24578822  1
  O  O207  1  0.37043026  -0.00805780  0.77299502  1
  O  O208  1  0.35659797  0.53815258  0.24483650  1
  O  O209  1  0.37243981  0.48581287  0.77512213  1
  O  O210  1  0.85976782  -0.01717469  0.25805557  1
  O  O211  1  0.95987729  0.01839131  0.81986755  1
  O  O212  1  0.87828625  0.51796109  0.23552249  1
  O  O213  1  0.84042613  0.52308635  0.67032586  1
  O  O214  1  0.12714855  0.33845309  0.37918838  1
  O  O215  1  0.05961351  0.38777089  0.90048135  1
  O  O216  1  0.12089668  0.85753410  0.38908203  1
  O  O217  1  0.11576209  0.89799641  0.90438770  1
  O  O218  1  0.59915726  0.43217289  0.44178430  1
  O  O219  1  0.57091124  0.39941343  0.82582963  1
  O  O220  1  0.62603707  0.80402671  0.37968780  1
  O  O221  1  0.59904309  0.87973646  0.85356279  1
  O  O222  1  0.37496099  0.14319537  0.13482069  1
  O  O223  1  0.38120147  0.16327770  0.63267543  1
  O  O224  1  0.30239405  0.58147316  0.21084876  1
  O  O225  1  0.46646178  0.62178496  0.55203020  1
  O  O226  1  0.85693421  0.10186574  0.14142631  1
  O  O227  1  0.89037174  0.13144680  0.62969385  1
  O  O228  1  0.99580441  0.75210289  0.12420110  1
  O  O229  1  0.97131196  0.60859399  0.56426152  1
  O  O230  1  0.20916402  0.24796913  0.12098282  1
  O  O231  1  0.20588472  0.30619493  0.64868358  1
  O  O232  1  0.27787339  0.74137263  0.12112164  1
  O  O233  1  0.22705248  0.75472501  0.65089949  1
  O  O234  1  0.81036358  0.27967917  0.16236028  1
  O  O235  1  0.77095265  0.22516694  0.60289298  1
  O  O236  1  0.77107103  0.74592830  0.06766755  1
  O  O237  1  0.80293881  0.72794945  0.61390712  1
  O  O238  1  0.24523024  0.23991274  0.35943471  1
  O  O239  1  0.26818540  0.21890043  0.91395556  1
  O  O240  1  0.23936156  0.77067774  0.37086078  1
  O  O241  1  0.25522262  0.72809613  0.88564853  1
  O  O242  1  0.75327300  0.23012709  0.39979399  1
  O  O243  1  0.66227158  0.17298700  0.91432996  1
  O  O244  1  0.77243780  0.74924633  0.41961995  1
  O  O245  1  0.73215432  0.73935069  0.84901449  1
  O  O246  1  -0.03305259  0.09809334  -0.02045384  1
  O  O247  1  0.02007343  0.13691202  0.53430829  1
  O  O248  1  0.01452964  0.65541904  -0.00945678  1
  O  O249  1  0.01314412  0.60694048  0.49665931  1
  O  O250  1  0.51134663  0.09556591  -0.00995616  1
  O  O251  1  0.46771617  0.15177954  0.51845687  1
  O  O252  1  0.50663303  0.61353446  0.01373252  1
  O  O253  1  0.44288763  0.62953494  0.48606989  1
  O  O254  1  0.45942239  0.37297688  0.49381170  1
  O  O255  1  0.48230529  0.40814237  1.04987616  1
  O  O256  1  0.48171531  0.80746851  0.50329834  1
  O  O257  1  0.49063797  0.87722401  0.97832168  1
  O  O258  1  1.05490954  0.36113960  0.54060115  1
  O  O259  1  1.06409735  0.52679277  1.03532256  1
  O  O260  1  1.01255745  0.90847183  0.52228559  1
  O  O261  1  1.05251516  0.89006782  0.93939174  1
  O  O262  1  0.56194758  0.48539451  0.41228793  1
  O  O263  1  0.48739197  0.50923637  0.88991599  1
  O  O264  1  0.48746187  1.01233900  0.38273015  1
  O  O265  1  0.48263458  0.98360749  0.87762118  1
  O  O266  1  0.97405029  0.52527371  0.36991791  1
  O  O267  1  0.96925651  0.52456834  0.84956470  1
  O  O268  1  1.01543559  1.02567514  0.41241647  1
  O  O269  1  1.03280466  1.10046178  0.94521283  1
  O  O270  1  0.01373472  -0.04168522  0.14041254  1
  O  O271  1  0.00885886  0.02592285  0.63462276  1
  O  O272  1  0.09170794  0.60974244  0.16318441  1
  O  O273  1  0.02006851  0.47520590  0.62778943  1
  O  O274  1  0.50910290  -0.01248661  0.10730064  1
  O  O275  1  0.41977881  0.03794495  0.61151806  1
  O  O276  1  0.48176729  0.46736360  0.10786118  1
  O  O277  1  0.53739596  0.45185385  0.61583534  1
  O  O278  1  0.23834625  0.35797760  0.22421649  1
  O  O279  1  0.21953006  0.34949872  0.84522651  1
  O  O280  1  0.25315257  0.86898140  0.20865720  1
  O  O281  1  0.24297396  0.86027677  0.77028278  1
  O  O282  1  0.74076257  0.42960939  0.24327331  1
  O  O283  1  0.75563860  0.37322665  0.80372986  1
  O  O284  1  0.75109405  0.85955559  0.28104954  1
  O  O285  1  0.73596654  0.84837212  0.70044062  1
  O  O286  1  0.25608241  0.13097115  0.24015745  1
  O  O287  1  0.25488546  0.15631467  0.77108780  1
  O  O288  1  0.26259513  0.63001089  0.25505865  1
  O  O289  1  0.23414623  0.61324065  0.77613163  1
  O  O290  1  0.72194961  0.02235752  0.21134956  1
  O  O291  1  0.74258401  0.15157633  0.77406403  1
  O  O292  1  0.74241273  0.59319843  0.18878074  1
  O  O293  1  0.71248321  0.62982088  0.69194068  1
  O  O294  1  0.37679548  0.12799761  0.35357449  1
  O  O295  1  0.37112311  0.10593711  0.88551993  1
  O  O296  1  0.38453619  0.69740174  0.34628191  1
  O  O297  1  0.37013519  0.61581042  0.88695781  1
  O  O298  1  0.80191600  0.13827062  0.29763541  1
  O  O299  1  0.79880036  0.20274794  0.88434719  1
  O  O300  1  0.86778621  0.67048512  0.34027007  1
  O  O301  1  0.81631038  0.59854732  0.82578345  1
  O  O302  1  0.13346391  0.38664591  0.10049280  1
  O  O303  1  0.22464386  0.37022094  0.67526666  1
  O  O304  1  0.14321479  0.81517830  0.09504433  1
  O  O305  1  0.15465958  0.90235760  0.63132488  1
  O  O306  1  0.64228416  0.38277012  0.12108720  1
  O  O307  1  0.67019577  0.35230265  0.66981422  1
  O  O308  1  0.69113523  0.87854533  0.11308876  1
  O  O309  1  0.63260539  0.78036109  0.57493890  1
  O  O310  1  0.10036766  0.20188025  0.29518208  1
  O  O311  1  0.09340964  0.27873281  0.76344114  1
  O  O312  1  0.11886888  0.75257236  0.28880937  1
  O  O313  1  0.08652213  0.73199007  0.78570131  1
  O  O314  1  0.58450056  0.35384625  0.27085420  1
  O  O315  1  0.63658721  0.27858842  0.80572968  1
  O  O316  1  0.67174684  0.73581496  0.23933241  1
  O  O317  1  0.60198985  0.74831867  0.75339130  1
  O  O318  1  0.38604387  0.23590401  0.24518394  1
  O  O319  1  0.37326908  0.30295672  0.74947960  1
  O  O320  1  0.38699026  0.76159226  0.30934091  1
  O  O321  1  0.38392215  0.73000935  0.77666561  1
  O  O322  1  0.87148614  0.29687343  0.19340145  1
  O  O323  1  0.87655054  0.25152996  0.72971250  1
  O  O324  1  0.85147680  0.76094455  0.20745709  1
  O  O325  1  0.89042597  0.76511735  0.74503751  1
  O  O326  1  0.37566450  0.47455898  0.50343445  1
  O  O327  1  0.39559283  0.50876184  0.99316298  1
  O  O328  1  0.31587675  0.99383622  0.50147521  1
  O  O329  1  0.39183325  0.99126679  0.99906787  1
  O  O330  1  0.89505265  0.47447438  0.50351626  1
  O  O331  1  0.88695997  0.52749974  0.98088133  1
  O  O332  1  0.89990725  1.01869515  0.51454238  1
  O  O333  1  0.93479840  1.02912009  0.98962955  1
  O  O334  1  0.13964396  -0.02064422  0.04478943  1
  O  O335  1  0.11996727  0.02560403  0.53783737  1
  O  O336  1  0.12369393  0.53517561  -0.00149120  1
  O  O337  1  0.13545755  0.49934165  0.51049772  1
  O  O338  1  0.60720048  -0.02961976  -0.01129786  1
  O  O339  1  0.62228339  -0.05393603  0.48462172  1
  O  O340  1  0.60161766  0.48849323  -0.00486268  1
  O  O341  1  0.58107791  0.60528808  0.53551412  1
  O  O342  1  0.35318750  0.32216316  0.12430560  1
  O  O343  1  0.35440503  0.35772478  0.59854783  1
  O  O344  1  0.40986529  0.85930122  0.10934555  1
  O  O345  1  0.32920551  0.88292128  0.63993863  1
  O  O346  1  0.95509584  0.39245155  0.04056439  1
  O  O347  1  0.85013419  0.35856128  0.62572545  1
  O  O348  1  0.85396264  0.82748585  0.16282167  1
  O  O349  1  0.87243169  0.92226622  0.66536782  1
  O  O350  1  0.14665844  0.11732770  0.41128793  1
  O  O351  1  0.14936144  0.11742298  0.86948951  1
  O  O352  1  0.17368426  0.66071468  0.40847478  1
  O  O353  1  0.18206492  0.59960690  0.82848227  1
  O  O354  1  0.64502163  0.11120438  0.37095442  1
  O  O355  1  0.65816773  0.05980349  0.84555876  1
  O  O356  1  0.69654497  0.62663601  0.35775831  1
  O  O357  1  0.62093674  0.62559499  0.85831040  1
