# generated using pymatgen
data_V51Zn51O256
_symmetry_space_group_name_H-M   'P 1'
_cell_length_a   17.41228464
_cell_length_b   18.19643687
_cell_length_c   17.74738515
_cell_angle_alpha   90.73740659
_cell_angle_beta   88.13618280
_cell_angle_gamma   89.24753605
_symmetry_Int_Tables_number   1
_chemical_formula_structural   V51Zn51O256
_chemical_formula_sum   'V51 Zn51 O256'
_cell_volume   5619.15183335
_cell_formula_units_Z   1
loop_
 _symmetry_equiv_pos_site_id
 _symmetry_equiv_pos_as_xyz
  1  'x, y, z'
loop_
 _atom_site_type_symbol
 _atom_site_label
 _atom_site_symmetry_multiplicity
 _atom_site_fract_x
 _atom_site_fract_y
 _atom_site_fract_z
 _atom_site_occupancy
  V  V0  1  0.70541590  0.58338000  0.39063449  1
  V  V1  1  0.30809645  0.44445608  0.58249971  1
  V  V2  1  -0.04390810  0.83777721  0.37111942  1
  V  V3  1  0.60147735  0.80098235  0.39079502  1
  V  V4  1  -0.01247867  0.66556988  0.57210393  1
  V  V5  1  0.23240265  -0.02459705  0.76596769  1
  V  V6  1  0.74108147  0.03946481  0.43820401  1
  V  V7  1  0.49301274  0.76790335  0.25194065  1
  V  V8  1  0.14463649  -0.03536898  0.13423930  1
  V  V9  1  0.64699852  0.11997250  0.02402481  1
  V  V10  1  0.95249284  0.15285858  0.73328569  1
  V  V11  1  0.05654063  0.83884154  0.71297182  1
  V  V12  1  0.73578711  0.73063331  0.05163743  1
  V  V13  1  -0.04047461  0.25476861  0.26680173  1
  V  V14  1  0.61952442  -0.00796623  0.13000827  1
  V  V15  1  0.89109304  -0.05914000  0.88889884  1
  V  V16  1  0.24079549  0.06765455  0.91904725  1
  V  V17  1  0.01001645  -0.01485618  0.46415280  1
  V  V18  1  0.63532221  0.87135742  0.24029373  1
  V  V19  1  0.64888529  0.24781407  0.37213115  1
  V  V20  1  0.07238931  0.29697129  0.75279615  1
  V  V21  1  0.36979569  0.24409763  0.62946987  1
  V  V22  1  0.89369125  0.08697972  0.19689344  1
  V  V23  1  0.49639758  0.35462130  0.38112315  1
  V  V24  1  0.15619039  0.30026600  0.89829741  1
  V  V25  1  0.23139965  0.31764268  0.46200010  1
  V  V26  1  0.42650817  0.52722484  0.33501345  1
  V  V27  1  0.31917613  0.14938674  0.23899469  1
  V  V28  1  0.61200417  0.61669121  0.55572546  1
  V  V29  1  0.08948457  0.59936095  -0.07140158  1
  V  V30  1  0.25212076  0.81891228  0.14243948  1
  V  V31  1  0.83117794  0.74439301  0.58418595  1
  V  V32  1  0.32840703  0.02272179  0.38073498  1
  V  V33  1  0.73753850  0.25942856  0.52321791  1
  V  V34  1  0.73419008  0.62561984  0.86575391  1
  V  V35  1  0.38087818  0.67644483  0.08527659  1
  V  V36  1  0.87272786  0.38564535  -0.00210099  1
  V  V37  1  0.63385912  0.48265087  0.12225286  1
  V  V38  1  0.65403759  0.80469514  0.87190964  1
  V  V39  1  0.12020482  0.74931053  0.87196031  1
  V  V40  1  0.11005528  -0.00640947  0.61549555  1
  V  V41  1  0.47117540  0.05174791  0.50243545  1
  V  V42  1  -0.01700305  0.48551300  0.51165946  1
  V  V43  1  0.30978547  0.47662547  0.19899872  1
  V  V44  1  0.15363784  0.55196385  0.57198487  1
  V  V45  1  0.08287437  0.15665351  -0.00191865  1
  V  V46  1  0.49911930  0.20850204  0.27008298  1
  V  V47  1  0.09032012  0.49714282  0.15629623  1
  V  V48  1  0.26477443  0.86418143  0.64319540  1
  V  V49  1  0.37403425  0.85003140  0.01993398  1
  V  V50  1  0.25504599  0.79977067  0.46710250  1
  Zn  Zn51  1  0.84072197  0.17632056  0.39472293  1
  Zn  Zn52  1  0.87371926  0.68252371  0.42965979  1
  Zn  Zn53  1  0.77077348  0.22416169  0.23629876  1
  Zn  Zn54  1  0.73303992  0.90987775  1.00075696  1
  Zn  Zn55  1  0.63862420  0.47639801  0.91534781  1
  Zn  Zn56  1  0.06048631  0.63792815  0.73131634  1
  Zn  Zn57  1  0.53086957  0.23543239  0.51938406  1
  Zn  Zn58  1  0.96436057  0.22299423  0.89432007  1
  Zn  Zn59  1  0.22651790  0.55639941  0.04341316  1
  Zn  Zn60  1  0.95211962  0.39555987  0.18185991  1
  Zn  Zn61  1  0.07046215  0.35132013  0.03850680  1
  Zn  Zn62  1  0.53012894  0.58217928  0.99500207  1
  Zn  Zn63  1  0.89711650  0.61792878  0.96167171  1
  Zn  Zn64  1  0.31820720  0.21192192  0.82150514  1
  Zn  Zn65  1  0.19209141  0.90756728  0.97205808  1
  Zn  Zn66  1  0.66389619  0.67096145  0.21664553  1
  Zn  Zn67  1  0.04830052  0.42853520  0.33171564  1
  Zn  Zn68  1  0.23021808  0.49098632  0.41039098  1
  Zn  Zn69  1  0.48839034  0.74478826  0.94864132  1
  Zn  Zn70  1  0.07274493  0.81379316  0.52352987  1
  Zn  Zn71  1  0.66101002  0.40742154  0.44280715  1
  Zn  Zn72  1  0.55729511  0.80730578  0.09051270  1
  Zn  Zn73  1  0.55800116  0.76803763  0.57474312  1
  Zn  Zn74  1  0.23127286  0.39646509  1.05143904  1
  Zn  Zn75  1  0.39323696  0.98268886  0.66823132  1
  Zn  Zn76  1  0.50937520  0.64698685  0.41713048  1
  Zn  Zn77  1  0.49373287  0.48412434  0.51514466  1
  Zn  Zn78  1  0.19863647  0.69953477  0.70793363  1
  Zn  Zn79  1  0.36038914  0.85730853  0.29915286  1
  Zn  Zn80  1  0.26832138  0.80696686  0.84208938  1
  Zn  Zn81  1  0.24129070  0.33728403  0.71782092  1
  Zn  Zn82  1  0.98504924  0.92500971  0.22414523  1
  Zn  Zn83  1  0.76337802  0.84528785  0.43548830  1
  Zn  Zn84  1  0.32624432  0.02911095  0.09329738  1
  Zn  Zn85  1  0.15486009  0.20809353  0.14604545  1
  Zn  Zn86  1  0.61596243  0.21937531  0.13654353  1
  Zn  Zn87  1  0.21912291  0.63158920  0.18407389  1
  Zn  Zn88  1  0.02726622  0.06594539  0.27921739  1
  Zn  Zn89  1  0.69355716  0.73462817  0.70522650  1
  Zn  Zn90  1  1.10928497  0.36146928  0.58032866  1
  Zn  Zn91  1  0.92536115  0.96489006  0.71026169  1
  Zn  Zn92  1  0.33419610  0.31768275  0.30705190  1
  Zn  Zn93  1  0.83899032  0.77597078  0.94671173  1
  Zn  Zn94  1  0.56831032  -0.03398391  0.95854200  1
  Zn  Zn95  1  0.80899117  0.56320802  0.53543690  1
  Zn  Zn96  1  0.85130058  0.11058368  0.56280151  1
  Zn  Zn97  1  0.05344340  0.00527657  0.81947101  1
  Zn  Zn98  1  0.60817792  0.93787446  0.48576200  1
  Zn  Zn99  1  0.33743093  0.58406468  0.47899002  1
  Zn  Zn100  1  0.81130258  0.05064502  0.03439235  1
  Zn  Zn101  1  0.57357587  0.04478604  0.33043517  1
  O  O102  1  0.10057241  0.13478827  0.09033868  1
  O  O103  1  0.12364231  0.08004742  0.62988172  1
  O  O104  1  0.14057962  0.57803349  0.12571330  1
  O  O105  1  0.07183994  0.70520088  0.54717274  1
  O  O106  1  0.62497713  0.09353434  0.12342435  1
  O  O107  1  0.62842062  0.12892357  0.68526549  1
  O  O108  1  0.63067638  0.58004214  0.15418629  1
  O  O109  1  0.62998809  0.69435491  0.62257065  1
  O  O110  1  0.40049656  0.35119574  0.39667540  1
  O  O111  1  0.45428129  0.31016659  0.87625243  1
  O  O112  1  0.38174447  0.95563786  0.33403388  1
  O  O113  1  0.35517386  0.84276940  0.91160251  1
  O  O114  1  0.83153472  0.48300179  0.27376594  1
  O  O115  1  0.84734194  0.41748128  0.91010209  1
  O  O116  1  0.86262606  0.89436338  0.38872530  1
  O  O117  1  0.89434147  0.84594435  0.89548423  1
  O  O118  1  0.25481724  -0.01323304  0.42360397  1
  O  O119  1  0.24183242  -0.02745024  0.88735624  1
  O  O120  1  0.32665521  0.53210129  0.37487378  1
  O  O121  1  0.34223304  0.42684411  0.86913449  1
  O  O122  1  0.71890412  -0.05886535  0.45448537  1
  O  O123  1  0.73155964  0.09757574  0.83040026  1
  O  O124  1  0.70282142  0.48974840  0.38874103  1
  O  O125  1  0.71136154  0.53392123  0.86136346  1
  O  O126  1  0.29160942  0.47474670  0.09686476  1
  O  O127  1  0.29041786  0.54067798  0.57201311  1
  O  O128  1  0.22780127  1.00795878  0.14845532  1
  O  O129  1  0.20392447  0.95509993  0.66136824  1
  O  O130  1  0.72548401  0.49304932  0.15494021  1
  O  O131  1  0.87683547  0.39672842  0.67025844  1
  O  O132  1  0.70996127  0.98402834  0.07989905  1
  O  O133  1  0.84650474  0.98742455  0.62891435  1
  O  O134  1  -0.01442063  0.35270072  0.28108321  1
  O  O135  1  0.00233518  0.35682646  0.75187629  1
  O  O136  1  -0.13249791  0.85563487  0.31669597  1
  O  O137  1  -0.03963890  0.85149993  0.71198326  1
  O  O138  1  0.50202402  0.31167181  0.28764458  1
  O  O139  1  0.51932949  0.35501338  0.74298324  1
  O  O140  1  0.49322585  0.86018307  0.24427712  1
  O  O141  1  0.53807648  0.96069722  0.80634134  1
  O  O142  1  0.49231217  0.11794222  0.30333192  1
  O  O143  1  0.67064731  0.16445550  0.72518522  1
  O  O144  1  0.39428387  0.63686131  0.16454279  1
  O  O145  1  0.49267077  0.62130822  0.77636559  1
  O  O146  1  0.97382812  0.14653127  0.22784229  1
  O  O147  1  0.98009081  0.06592141  0.76252662  1
  O  O148  1  0.89726348  0.61533871  0.30188452  1
  O  O149  1  0.98068862  0.62917264  0.66314532  1
  O  O150  1  0.40111097  0.20287249  -0.09512896  1
  O  O151  1  0.31737360  0.27731148  0.52289309  1
  O  O152  1  0.37126404  0.76819535  -0.06007896  1
  O  O153  1  0.32066839  0.73669302  0.52301159  1
  O  O154  1  0.91207678  0.29951916  -0.04288819  1
  O  O155  1  0.82532475  0.20617004  0.50198865  1
  O  O156  1  0.83426669  0.69146475  0.01237915  1
  O  O157  1  0.81524314  0.76677494  0.48811741  1
  O  O158  1  0.16329697  0.27986138  0.51946415  1
  O  O159  1  0.10250544  0.25206249  0.99226269  1
  O  O160  1  0.15913364  0.79159618  0.45340655  1
  O  O161  1  0.12478659  0.68796941  0.95289245  1
  O  O162  1  0.65043603  0.22568639  0.47653272  1
  O  O163  1  0.60496681  0.20563891  1.02683521  1
  O  O164  1  0.58133120  0.83235217  0.48523007  1
  O  O165  1  0.63891379  0.74989175  1.03867497  1
  O  O166  1  0.51324443  0.20719305  0.17594764  1
  O  O167  1  0.46387784  0.26461105  0.60564383  1
  O  O168  1  0.50759969  0.73573102  0.15890807  1
  O  O169  1  0.53450874  0.85377553  0.64160688  1
  O  O170  1  1.01944022  0.30842663  0.13395550  1
  O  O171  1  1.13825129  0.31647878  0.67394112  1
  O  O172  1  1.04452648  0.74912616  0.15848960  1
  O  O173  1  0.93400976  0.75331175  0.58895212  1
  O  O174  1  -0.06398422  0.22148297  0.35353751  1
  O  O175  1  0.06500196  0.26366803  0.85628645  1
  O  O176  1  -0.04901190  0.74580165  0.38339487  1
  O  O177  1  0.02699518  0.76445138  0.87285453  1
  O  O178  1  0.52868375  0.26311163  0.41501155  1
  O  O179  1  0.62404304  0.26184747  0.88124692  1
  O  O180  1  0.52816654  0.74110699  0.35931743  1
  O  O181  1  0.56887988  0.75609812  0.87844119  1
  O  O182  1  0.25830907  0.27534395  0.37868897  1
  O  O183  1  0.28461117  0.07356445  1.00217266  1
  O  O184  1  0.29813849  0.69268064  0.46207658  1
  O  O185  1  0.16009092  0.53990376  0.95980681  1
  O  O186  1  0.74998045  0.07608072  0.52824454  1
  O  O187  1  0.74459013  0.13057748  1.00911546  1
  O  O188  1  0.69838323  0.56888319  0.55633314  1
  O  O189  1  0.70931540  0.63661417  0.98100249  1
  O  O190  1  0.32848911  0.31817813  0.02898638  1
  O  O191  1  0.26627324  0.41058880  0.48742389  1
  O  O192  1  0.26010869  0.85047101  0.04114990  1
  O  O193  1  0.25594590  0.86946795  0.54251594  1
  O  O194  1  0.78701537  0.33957016  0.01139107  1
  O  O195  1  0.73612540  0.35097647  0.49879742  1
  O  O196  1  0.77509895  0.82028464  0.04083172  1
  O  O197  1  0.77198118  0.96866980  0.65389153  1
  O  O198  1  0.09930663  0.48359865  0.24979723  1
  O  O199  1  0.15869894  0.61330700  0.65427816  1
  O  O200  1  0.07049155  0.99486289  0.19991951  1
  O  O201  1  0.08795065  0.90342196  0.77510037  1
  O  O202  1  0.58109243  0.45441868  0.20075996  1
  O  O203  1  0.51326884  0.41178141  0.78771876  1
  O  O204  1  0.60597390  0.98433709  0.23353511  1
  O  O205  1  0.50680746  0.99190507  0.75054577  1
  O  O206  1  0.27383029  0.06559765  0.29120670  1
  O  O207  1  0.31749340  0.01713263  0.74135866  1
  O  O208  1  0.39918467  0.50056087  0.23291938  1
  O  O209  1  0.37357655  0.55050720  0.75954631  1
  O  O210  1  0.91406863  0.00483166  0.24337033  1
  O  O211  1  0.85935810  -0.03819949  0.80049340  1
  O  O212  1  0.96074780  0.59000843  0.28268467  1
  O  O213  1  0.81582589  0.43378995  0.68763978  1
  O  O214  1  0.15909597  0.41893035  0.36741604  1
  O  O215  1  0.16517988  0.37522187  0.96071204  1
  O  O216  1  0.01724083  0.85437777  0.29581984  1
  O  O217  1  0.16619503  0.82882750  0.90420795  1
  O  O218  1  0.64497727  0.33852272  0.35324202  1
  O  O219  1  0.65949247  0.38064641  0.86794285  1
  O  O220  1  0.59990520  0.88495647  0.34538312  1
  O  O221  1  0.64911021  0.88964002  0.92871792  1
  O  O222  1  0.36101084  0.10180164  0.16537488  1
  O  O223  1  0.35739118  0.15656851  0.61540706  1
  O  O224  1  0.29834491  0.63596614  0.05235745  1
  O  O225  1  0.42397665  0.54806708  0.71011280  1
  O  O226  1  0.89149913  0.07109048  0.10165631  1
  O  O227  1  0.89537524  0.14399652  0.65630570  1
  O  O228  1  1.05424566  0.70842512  0.21198622  1
  O  O229  1  0.81676720  0.65445140  0.59908706  1
  O  O230  1  0.22166988  0.28832922  0.09407166  1
  O  O231  1  0.30333551  0.32039473  0.59059263  1
  O  O232  1  0.22560872  0.73385485  0.17541516  1
  O  O233  1  0.25452081  0.77234151  0.65453668  1
  O  O234  1  0.70038927  0.26488150  0.17253711  1
  O  O235  1  0.71689659  0.25406662  0.61376415  1
  O  O236  1  0.73929671  0.70282690  0.14260188  1
  O  O237  1  0.77281705  0.79198714  0.64692826  1
  O  O238  1  0.14141824  0.36614968  0.42346611  1
  O  O239  1  0.23775036  0.24992375  0.89681387  1
  O  O240  1  0.29567009  0.83121926  0.38771597  1
  O  O241  1  0.21413049  0.71662273  0.81549231  1
  O  O242  1  0.74830057  0.22624092  0.34947638  1
  O  O243  1  0.75415131  0.26924085  0.80860930  1
  O  O244  1  0.69431397  0.77029355  0.39197317  1
  O  O245  1  0.73295675  0.75037189  0.89742954  1
  O  O246  1  -0.00961098  0.15017513  -0.02953331  1
  O  O247  1  0.13142649  0.15040358  0.39212025  1
  O  O248  1  -0.00069006  0.58747730  -0.02944050  1
  O  O249  1  -0.05870254  0.62573463  0.49564514  1
  O  O250  1  0.51073195  0.16960319  -0.22283694  1
  O  O251  1  0.51523452  0.13121099  0.52217218  1
  O  O252  1  0.46164106  0.66143516  0.01575448  1
  O  O253  1  0.52954697  0.68322918  0.52056395  1
  O  O254  1  0.54726816  0.40294190  0.46206782  1
  O  O255  1  0.44850546  0.25745705  0.92229979  1
  O  O256  1  0.60129532  0.89216624  0.65067198  1
  O  O257  1  0.47707179  0.83405104  1.01866321  1
  O  O258  1  1.01627535  0.40507924  0.54689861  1
  O  O259  1  0.97853735  0.39566371  0.99263235  1
  O  O260  1  0.99874697  0.88067444  0.45858377  1
  O  O261  1  0.97426940  0.85408026  1.06858919  1
  O  O262  1  0.49167477  0.45406375  0.34042684  1
  O  O263  1  0.53546675  0.50651193  0.92409718  1
  O  O264  1  0.53347939  1.00032111  0.43912738  1
  O  O265  1  0.49307110  0.95610495  0.87304100  1
  O  O266  1  0.99642665  0.48048604  0.41529327  1
  O  O267  1  1.22875221  0.51240173  0.79505103  1
  O  O268  1  1.02486729  1.01800320  0.37530704  1
  O  O269  1  0.98186237  0.97584325  0.89783832  1
  O  O270  1  -0.06500013  -0.12191635  0.12396915  1
  O  O271  1  0.01886606  -0.02195653  0.64862516  1
  O  O272  1  -0.00795229  0.49054423  0.14757631  1
  O  O273  1  0.05047606  0.55214066  0.55766513  1
  O  O274  1  0.54613951  -0.02115361  0.06958475  1
  O  O275  1  0.45640996  0.00423210  0.58530470  1
  O  O276  1  0.54283842  0.51068689  0.07751770  1
  O  O277  1  0.54286298  0.47376828  0.76673089  1
  O  O278  1  0.29473362  0.39176571  0.23887351  1
  O  O279  1  0.28974468  0.42392412  0.67638927  1
  O  O280  1  0.30142197  0.86678029  0.20581177  1
  O  O281  1  0.25314727  0.87730665  0.76230352  1
  O  O282  1  0.84189644  0.41757118  0.25456980  1
  O  O283  1  0.65011501  0.36890643  0.70208426  1
  O  O284  1  0.72699364  0.87700848  0.24983266  1
  O  O285  1  0.69880828  1.03901819  0.82645805  1
  O  O286  1  0.23746232  0.19229200  0.21334275  1
  O  O287  1  0.15721890  0.03614981  0.78688618  1
  O  O288  1  0.24904401  0.54503769  0.23566824  1
  O  O289  1  0.38013594  0.70311491  0.75527670  1
  O  O290  1  0.80803008  0.12245072  0.22916626  1
  O  O291  1  0.79284674  0.30549859  0.76455938  1
  O  O292  1  0.69759527  0.61996286  0.30327768  1
  O  O293  1  0.71627825  0.65912887  0.77804758  1
  O  O294  1  0.29777106  0.12317284  0.34513020  1
  O  O295  1  0.29283777  0.11475614  0.85406950  1
  O  O296  1  0.47585444  0.60420090  0.31389995  1
  O  O297  1  0.44133998  0.62275034  0.82535775  1
  O  O298  1  0.82262665  0.06833477  0.39086113  1
  O  O299  1  0.90482530  0.19575645  0.80973899  1
  O  O300  1  0.79371550  0.60996547  0.43050629  1
  O  O301  1  0.83356067  0.61947798  0.87446709  1
  O  O302  1  0.12762993  0.42151337  0.10234611  1
  O  O303  1  0.16389757  0.46124144  0.59322164  1
  O  O304  1  0.15948346  0.86892518  0.15309632  1
  O  O305  1  0.09904824  0.85257040  0.62165819  1
  O  O306  1  0.64376591  0.38845755  0.10445103  1
  O  O307  1  0.66423401  0.42982260  0.72608526  1
  O  O308  1  0.62210135  0.88020918  0.13912909  1
  O  O309  1  0.73361920  1.01949120  0.68593959  1
  O  O310  1  0.05441705  0.26174156  0.18651431  1
  O  O311  1  0.16575900  0.34088713  0.80633239  1
  O  O312  1  0.13685174  0.68413749  0.34125178  1
  O  O313  1  0.09033630  0.74759833  0.74359718  1
  O  O314  1  0.60564336  0.20357308  0.29632384  1
  O  O315  1  0.61787157  0.32639484  0.90719415  1
  O  O316  1  0.61831680  0.77099986  0.24756439  1
  O  O317  1  0.66435991  0.81899249  0.77741869  1
  O  O318  1  0.38442830  0.22251480  0.26726234  1
  O  O319  1  0.32915400  0.26441698  0.72842153  1
  O  O320  1  0.39872880  0.75500839  0.27911547  1
  O  O321  1  0.43460404  0.69952248  0.70942146  1
  O  O322  1  0.87673756  0.26632954  0.22221738  1
  O  O323  1  1.03468728  0.21058677  0.71701467  1
  O  O324  1  0.90209326  0.67098023  0.16411407  1
  O  O325  1  0.90548844  0.69072858  0.77528116  1
  O  O326  1  0.44565000  0.55904137  0.44919602  1
  O  O327  1  0.38803768  0.46085877  0.90694581  1
  O  O328  1  0.38489655  1.06487174  0.45554181  1
  O  O329  1  0.37533781  0.94044382  1.04618244  1
  O  O330  1  0.88728398  0.48961111  0.54100491  1
  O  O331  1  0.85223838  0.47781997  1.02365436  1
  O  O332  1  0.93987770  1.03461213  0.50935522  1
  O  O333  1  0.82085944  0.97147461  0.96068093  1
  O  O334  1  0.12546190  -0.03449249  0.03963552  1
  O  O335  1  0.09775278  -0.01208185  0.51217728  1
  O  O336  1  0.16673645  0.48951437  -0.22358163  1
  O  O337  1  0.18393415  0.56766426  0.47889181  1
  O  O338  1  0.60909025  0.06652036  -0.04693141  1
  O  O339  1  0.61266140  -0.05158589  0.60652655  1
  O  O340  1  0.66321423  0.49154971  0.02188142  1
  O  O341  1  0.54979902  0.54989271  0.58349319  1
  O  O342  1  0.29510604  0.26359720  0.06232467  1
  O  O343  1  0.40388847  0.43963494  0.56777290  1
  O  O344  1  0.35884935  0.77735142  0.09734156  1
  O  O345  1  0.35965323  0.88101599  0.65041234  1
  O  O346  1  0.88204597  0.37247168  0.09890019  1
  O  O347  1  0.87219270  0.33911899  0.62845692  1
  O  O348  1  0.90797526  0.73618153  0.14951374  1
  O  O349  1  0.87148578  0.74890126  0.76832046  1
  O  O350  1  0.11704351  0.14770924  0.32413597  1
  O  O351  1  0.14453540  0.10594783  0.93208125  1
  O  O352  1  0.08521208  0.64433179  0.36421906  1
  O  O353  1  0.08324917  0.60640787  0.83099568  1
  O  O354  1  0.66253776  0.07323434  0.39139396  1
  O  O355  1  0.54474233  0.14297435  0.82988265  1
  O  O356  1  0.62149233  0.61204054  0.44375298  1
  O  O357  1  0.63946059  0.63308992  0.94708107  1
