# generated using pymatgen
data_V51Zn51O256
_symmetry_space_group_name_H-M   'P 1'
_cell_length_a   17.33319456
_cell_length_b   17.32928764
_cell_length_c   17.30585483
_cell_angle_alpha   90.95073149
_cell_angle_beta   90.61709784
_cell_angle_gamma   90.37673395
_symmetry_Int_Tables_number   1
_chemical_formula_structural   V51Zn51O256
_chemical_formula_sum   'V51 Zn51 O256'
_cell_volume   5197.05708572
_cell_formula_units_Z   1
loop_
 _symmetry_equiv_pos_site_id
 _symmetry_equiv_pos_as_xyz
  1  'x, y, z'
loop_
 _atom_site_type_symbol
 _atom_site_label
 _atom_site_symmetry_multiplicity
 _atom_site_fract_x
 _atom_site_fract_y
 _atom_site_fract_z
 _atom_site_occupancy
  V  V0  1  0.12657716  0.12437838  0.49855802  1
  V  V1  1  0.11482868  0.24503659  0.92034617  1
  V  V2  1  0.24683563  0.11828454  0.91900588  1
  V  V3  1  0.84125539  0.24396196  0.63257362  1
  V  V4  1  0.87504244  0.34468605  -0.02797198  1
  V  V5  1  0.61972494  0.46558554  0.63194871  1
  V  V6  1  -0.00436222  0.51064707  -0.01862569  1
  V  V7  1  0.65201339  0.49957510  0.11082609  1
  V  V8  1  0.49389641  0.73531984  0.23225370  1
  V  V9  1  0.00754195  -0.01508067  0.48893980  1
  V  V10  1  0.29494353  0.76280356  0.02903803  1
  V  V11  1  0.47247409  0.87675293  0.87366663  1
  V  V12  1  0.85200674  0.86857684  0.50025543  1
  V  V13  1  -0.00088622  0.75937888  0.26837030  1
  V  V14  1  0.40529383  0.14219315  0.27344572  1
  V  V15  1  0.12420417  0.37189752  0.72610395  1
  V  V16  1  0.86648417  0.51926260  0.86689908  1
  V  V17  1  0.72612895  0.00032483  0.23435638  1
  V  V18  1  0.83932485  0.00862421  0.39268410  1
  V  V19  1  0.49581938  0.62159044  0.09629736  1
  V  V20  1  0.36221100  0.37401631  0.01372290  1
  V  V21  1  0.75974241  0.60666515  0.36512592  1
  V  V22  1  0.73349309  0.02776574  0.73259911  1
  V  V23  1  0.35219578  0.12278628  0.75824967  1
  V  V24  1  0.65246068  0.87898243  0.69902801  1
  V  V25  1  0.12974647  0.76776982  0.87925518  1
  V  V26  1  0.64566593  0.74092130  0.36212137  1
  V  V27  1  0.88338333  0.60155301  0.21240355  1
  V  V28  1  0.11176025  0.00229911  0.63630110  1
  V  V29  1  0.27123648  0.89559949  0.13684949  1
  V  V30  1  0.62848048  0.64131202  0.52470340  1
  V  V31  1  0.00100487  0.35476102  0.39644646  1
  V  V32  1  -0.03966513  0.48767968  0.50487244  1
  V  V33  1  0.14200292  0.90249143  0.26090677  1
  V  V34  1  0.36171490  0.26877264  0.63096964  1
  V  V35  1  0.84546929  -0.00845083  0.87983865  1
  V  V36  1  0.24692078  0.25600912  0.50405881  1
  V  V37  1  0.64034614  0.85438942  0.21674514  1
  V  V38  1  0.09282413  0.48447116  0.14633563  1
  V  V39  1  0.88627234  0.11068718  0.25360325  1
  V  V40  1  0.52800429  0.49634639  0.47158418  1
  V  V41  1  0.75001598  0.50898220  0.74524319  1
  V  V42  1  0.48481941  0.11166458  0.63855409  1
  V  V43  1  -0.00050018  0.13133666  0.62936288  1
  V  V44  1  0.61319205  -0.00133473  0.08854670  1
  V  V45  1  0.64481443  0.34917520  0.79835986  1
  V  V46  1  0.64729619  0.62359431  -0.02727608  1
  V  V47  1  0.25298764  0.10656118  0.37622192  1
  V  V48  1  0.24506277  0.87171431  0.63008467  1
  V  V49  1  0.46907381  0.26648817  0.76806771  1
  V  V50  1  0.08940363  0.08320665  0.02567958  1
  Zn  Zn51  1  0.81726604  0.27630982  0.16432916  1
  Zn  Zn52  1  0.33267925  0.95948061  0.31198587  1
  Zn  Zn53  1  0.06575946  0.31405633  0.56433481  1
  Zn  Zn54  1  0.19510352  0.05939818  0.18091094  1
  Zn  Zn55  1  0.46527487  0.92568668  0.19117032  1
  Zn  Zn56  1  0.04333901  0.51369380  0.78099818  1
  Zn  Zn57  1  0.80432099  0.56972007  0.04448163  1
  Zn  Zn58  1  0.43762522  0.43582181  0.67729227  1
  Zn  Zn59  1  0.06067638  0.06552475  0.32184982  1
  Zn  Zn60  1  0.19775222  0.68827419  0.15646223  1
  Zn  Zn61  1  0.64345361  0.85013329  0.50686761  1
  Zn  Zn62  1  0.92228372  0.17890186  0.45691446  1
  Zn  Zn63  1  0.17571753  0.19963144  0.69363163  1
  Zn  Zn64  1  0.56930687  0.56815587  0.28273668  1
  Zn  Zn65  1  0.66000971  0.19603338  0.69923955  1
  Zn  Zn66  1  0.51910923  0.42395163  0.15184296  1
  Zn  Zn67  1  0.19608536  0.93798052  0.96174723  1
  Zn  Zn68  1  0.27888565  0.28203136  0.30413166  1
  Zn  Zn69  1  0.35170134  0.07248845  0.08080923  1
  Zn  Zn70  1  0.94257704  0.68278786  0.91907397  1
  Zn  Zn71  1  0.42561585  0.18121808  0.94234238  1
  Zn  Zn72  1  0.85593977  0.86329771  0.70297494  1
  Zn  Zn73  1  0.27810430  0.29760948  0.82601268  1
  Zn  Zn74  1  0.95152446  0.16277239  0.93263808  1
  Zn  Zn75  1  0.40686213  0.16024668  0.46802793  1
  Zn  Zn76  1  0.31138541  0.58606370  0.00215086  1
  Zn  Zn77  1  0.55970562  0.80354211  0.05546575  1
  Zn  Zn78  1  0.08599776  0.82003431  0.08620012  1
  Zn  Zn79  1  0.84975639  0.30937423  0.78523039  1
  Zn  Zn80  1  0.42209851  0.62331192  0.53185848  1
  Zn  Zn81  1  0.92769111  0.43134868  0.67663003  1
  Zn  Zn82  1  0.05543927  0.81303604  0.57538875  1
  Zn  Zn83  1  0.16051894  0.41535757  0.29947045  1
  Zn  Zn84  1  0.71070501  0.43884543  0.94266923  1
  Zn  Zn85  1  0.56503950  0.35459415  -0.00951817  1
  Zn  Zn86  1  0.63397866  0.96355240  0.87985523  1
  Zn  Zn87  1  -0.00574693  0.53262869  0.30603406  1
  Zn  Zn88  1  0.53750649  0.02495997  0.30446399  1
  Zn  Zn89  1  0.81294101  0.82612116  0.31070778  1
  Zn  Zn90  1  0.93114182  0.69617441  0.43033535  1
  Zn  Zn91  1  0.84622077  0.01639562  0.60106737  1
  Zn  Zn92  1  0.69551334  0.65382498  0.19853061  1
  Zn  Zn93  1  0.27465408  0.08689200  0.61264111  1
  Zn  Zn94  1  0.17368014  0.45573760  0.90227168  1
  Zn  Zn95  1  0.19160416  0.93900662  0.44775183  1
  Zn  Zn96  1  0.70473958  0.70224875  0.71453402  1
  Zn  Zn97  1  0.89955049  1.11178416  0.76241624  1
  Zn  Zn98  1  0.90192150  0.03248501  0.06362582  1
  Zn  Zn99  1  0.91359960  0.43132164  0.14379583  1
  Zn  Zn100  1  0.06379484  0.34974127  0.02410612  1
  Zn  Zn101  1  0.67278649  0.16358205  0.18105663  1
  O  O102  1  0.12542420  0.11263362  0.11413193  1
  O  O103  1  0.12187699  0.11172830  0.61624783  1
  O  O104  1  0.14279784  0.58439386  0.13332538  1
  O  O105  1  0.02839481  0.64768349  0.55758016  1
  O  O106  1  0.61812069  0.09687770  0.11051818  1
  O  O107  1  0.58164899  0.13669344  0.65085484  1
  O  O108  1  0.64687433  0.60685660  0.11086711  1
  O  O109  1  0.66900802  0.66891109  0.60921855  1
  O  O110  1  0.44485407  0.39881007  0.28216844  1
  O  O111  1  0.31880156  0.36361398  0.91893405  1
  O  O112  1  0.40645119  0.92003141  0.46112214  1
  O  O113  1  0.38903411  0.91869429  0.90427452  1
  O  O114  1  0.89189314  0.37311240  0.35159559  1
  O  O115  1  0.87893189  0.36993845  0.87248444  1
  O  O116  1  0.85630213  0.89811821  0.39307000  1
  O  O117  1  0.87004826  0.88653718  0.83074544  1
  O  O118  1  0.26804855  0.00435092  0.39695605  1
  O  O119  1  0.24164379  0.02013792  0.90381733  1
  O  O120  1  0.34455790  0.60154437  0.32967860  1
  O  O121  1  0.25101803  0.53122837  0.92630766  1
  O  O122  1  0.75146254  0.01780073  0.42337324  1
  O  O123  1  0.74470266  -0.01291257  0.86263518  1
  O  O124  1  0.75587463  0.51394858  0.34828856  1
  O  O125  1  0.76183866  0.48921243  0.85540615  1
  O  O126  1  0.19278528  0.52146377  0.12282384  1
  O  O127  1  0.15928937  0.58042255  0.60554914  1
  O  O128  1  0.26494677  0.99891042  0.11408698  1
  O  O129  1  0.23847909  0.97737915  0.62184837  1
  O  O130  1  0.75120165  0.49104558  0.11146323  1
  O  O131  1  0.72757597  0.49170224  0.64753518  1
  O  O132  1  0.72595331  0.99808735  0.13654685  1
  O  O133  1  0.73838124  1.03668569  0.63409814  1
  O  O134  1  -0.05905844  0.35897986  0.29510132  1
  O  O135  1  0.02323514  0.41069773  0.73808063  1
  O  O136  1  0.04880450  0.85011554  0.25849715  1
  O  O137  1  -0.02370337  0.84204889  0.71417760  1
  O  O138  1  0.50026926  0.35804897  0.24671311  1
  O  O139  1  0.46453381  0.36599122  0.76454242  1
  O  O140  1  0.53337070  0.84042870  0.22946430  1
  O  O141  1  0.46470511  0.87822848  0.77295972  1
  O  O142  1  0.50410773  0.13286472  0.28402563  1
  O  O143  1  0.45990971  0.15111368  0.74942771  1
  O  O144  1  0.50225572  0.62653588  0.20967047  1
  O  O145  1  0.41465130  0.52762457  0.84983420  1
  O  O146  1  0.98423250  0.11398780  0.26407565  1
  O  O147  1  1.00872861  0.11997157  0.72568060  1
  O  O148  1  0.96873918  0.63793545  0.25902865  1
  O  O149  1  1.03818755  0.61683865  0.76587764  1
  O  O150  1  0.37383178  0.27161753  0.00153906  1
  O  O151  1  0.35548240  0.24658468  0.51964362  1
  O  O152  1  0.38613098  0.77565161  0.04755052  1
  O  O153  1  0.44041047  0.81328051  0.55835653  1
  O  O154  1  0.88689204  0.24698530  -0.03198370  1
  O  O155  1  0.86464820  0.23664552  0.53533684  1
  O  O156  1  0.89214910  0.77529782  -0.03679532  1
  O  O157  1  0.89160281  0.77867647  0.49740944  1
  O  O158  1  0.13385327  0.22765605  0.50770239  1
  O  O159  1  0.09346366  0.24201071  1.01900632  1
  O  O160  1  0.06689973  0.70848513  0.52868688  1
  O  O161  1  0.10720662  0.76848501  0.98670354  1
  O  O162  1  0.63570110  0.17680870  0.50564297  1
  O  O163  1  0.54444784  0.23914961  1.00715072  1
  O  O164  1  0.62756667  0.74455274  0.46554783  1
  O  O165  1  0.64280246  0.74758092  1.00147679  1
  O  O166  1  0.55941691  0.26064237  0.13653821  1
  O  O167  1  0.46015193  0.25469575  0.64644500  1
  O  O168  1  0.50974761  0.73412224  0.12373237  1
  O  O169  1  0.46268917  0.86491673  0.60106378  1
  O  O170  1  1.05835439  0.24829600  0.21219215  1
  O  O171  1  1.01084873  0.22824298  0.61217558  1
  O  O172  1  1.03792939  0.73545909  0.15157841  1
  O  O173  1  1.00022968  0.78485170  0.67250651  1
  O  O174  1  -0.01579739  0.25904041  0.40997402  1
  O  O175  1  0.02893691  0.22105613  0.87531033  1
  O  O176  1  0.01068334  0.74047509  0.36433401  1
  O  O177  1  0.02935273  0.74476667  0.87929268  1
  O  O178  1  0.58323695  0.25113606  0.38921614  1
  O  O179  1  0.47205666  0.24546412  0.86502050  1
  O  O180  1  0.54441543  0.71992725  0.32340019  1
  O  O181  1  0.43284510  0.78496107  0.86248560  1
  O  O182  1  0.23425618  0.11438771  0.50860709  1
  O  O183  1  0.27719006  0.13167016  1.01116715  1
  O  O184  1  0.33185394  0.67407637  0.54408714  1
  O  O185  1  0.24781331  0.66580926  1.05715117  1
  O  O186  1  0.69577009  0.16276366  0.47288729  1
  O  O187  1  0.77957618  0.12172565  1.02218974  1
  O  O188  1  0.70050455  0.61718703  0.45416178  1
  O  O189  1  0.74713583  0.64374297  0.98858293  1
  O  O190  1  0.28247082  0.35972554  0.07135812  1
  O  O191  1  0.23537479  0.34621716  0.48635739  1
  O  O192  1  0.25991225  0.86775218  0.02427874  1
  O  O193  1  0.23629750  0.86561266  0.52308708  1
  O  O194  1  0.77884695  0.36586578  -0.01001980  1
  O  O195  1  0.71350020  0.34774890  0.48029670  1
  O  O196  1  0.70379331  0.80126270  -0.02165764  1
  O  O197  1  0.75531633  0.85930786  0.50375895  1
  O  O198  1  0.08380228  0.48253526  0.24870598  1
  O  O199  1  0.14439165  0.46737418  0.79487996  1
  O  O200  1  0.12221039  1.00112127  0.25253366  1
  O  O201  1  0.11471354  1.00234457  0.72938040  1
  O  O202  1  0.61744282  0.49171302  0.20800315  1
  O  O203  1  0.65260842  0.44081842  0.75229003  1
  O  O204  1  0.62325576  0.97233419  0.25065157  1
  O  O205  1  0.63978652  0.96938894  0.75476468  1
  O  O206  1  0.43718998  -0.02767890  0.29001257  1
  O  O207  1  0.36465065  0.02989043  0.75780617  1
  O  O208  1  0.43180608  0.46568613  0.25197534  1
  O  O209  1  0.34598453  0.50750791  0.70208053  1
  O  O210  1  0.83029282  0.00844336  0.28347281  1
  O  O211  1  0.83818084  0.01396606  0.74788395  1
  O  O212  1  0.89909734  0.50245344  0.22910261  1
  O  O213  1  0.85481780  0.49482398  0.74968142  1
  O  O214  1  0.09218526  0.35623262  0.36155067  1
  O  O215  1  0.13197451  0.34801753  0.92133147  1
  O  O216  1  0.15785627  0.88264608  0.35721270  1
  O  O217  1  0.12157816  0.87349998  0.89514967  1
  O  O218  1  0.63757204  0.38998869  0.33676334  1
  O  O219  1  0.62345684  0.36923487  0.89613391  1
  O  O220  1  0.63584292  0.83454843  0.33676772  1
  O  O221  1  0.57883256  0.85654037  0.87027184  1
  O  O222  1  0.37502633  0.09961097  0.18819793  1
  O  O223  1  0.36863693  0.13813646  0.64237011  1
  O  O224  1  0.40089936  0.61258836  0.07326968  1
  O  O225  1  0.36946289  0.58153390  0.70648634  1
  O  O226  1  0.87507058  0.07656951  0.15902192  1
  O  O227  1  0.89684518  0.11829527  0.61766104  1
  O  O228  1  0.87852969  0.61914212  0.11708396  1
  O  O229  1  0.90150582  0.66335137  0.65895007  1
  O  O230  1  0.18179169  0.22501010  0.24035628  1
  O  O231  1  0.24906459  0.24650153  0.61341636  1
  O  O232  1  0.26217232  0.77836152  0.13312692  1
  O  O233  1  0.23285430  0.77291818  0.63877528  1
  O  O234  1  0.76591652  0.18870124  0.04248981  1
  O  O235  1  0.74356174  0.23203690  0.63435456  1
  O  O236  1  0.84226375  0.81508101  0.07680252  1
  O  O237  1  0.81530785  0.75154724  0.70999019  1
  O  O238  1  0.25568384  0.21566545  0.39922748  1
  O  O239  1  0.21134468  0.22026245  0.87635355  1
  O  O240  1  0.23624507  0.69934017  0.32899499  1
  O  O241  1  0.22914185  0.78148767  0.90527192  1
  O  O242  1  0.77109537  0.33992681  0.44144440  1
  O  O243  1  0.67796766  0.21474894  0.93257704  1
  O  O244  1  0.74980727  0.74197664  0.35662594  1
  O  O245  1  0.73863493  0.78521885  0.91762050  1
  O  O246  1  -0.01349404  0.09363617  0.01714663  1
  O  O247  1  0.01899812  0.11117545  0.50242774  1
  O  O248  1  -0.01164353  0.60957981  -0.01200690  1
  O  O249  1  -0.01515950  0.61125635  0.49701522  1
  O  O250  1  0.53569390  0.21567087  0.08197443  1
  O  O251  1  0.47500137  0.11616482  0.53483803  1
  O  O252  1  0.54422223  0.64568692  0.00740210  1
  O  O253  1  0.52963368  0.65123813  0.52831381  1
  O  O254  1  0.53356443  0.40267580  0.46037122  1
  O  O255  1  0.45856520  0.39035516  0.97445383  1
  O  O256  1  0.57496191  0.92301741  0.44199322  1
  O  O257  1  0.50013278  0.85313371  0.97232884  1
  O  O258  1  1.00085567  0.38229437  0.50156543  1
  O  O259  1  0.96736863  0.39816585  0.99693908  1
  O  O260  1  1.01403446  0.88752980  0.50671888  1
  O  O261  1  0.98577218  0.87925068  1.06453790  1
  O  O262  1  0.53646042  0.53923854  0.38273007  1
  O  O263  1  0.44834695  0.56217352  0.90299392  1
  O  O264  1  0.56661463  1.04917156  0.41975328  1
  O  O265  1  0.50963996  0.97681198  0.87234311  1
  O  O266  1  0.99823456  0.48104303  0.40081874  1
  O  O267  1  0.97271195  0.49969480  0.87266548  1
  O  O268  1  1.01208738  0.99250769  0.39173398  1
  O  O269  1  0.93485256  0.92884207  0.84759350  1
  O  O270  1  -0.02996512  -0.06571220  0.11127879  1
  O  O271  1  0.01106131  0.00896479  0.60984170  1
  O  O272  1  0.00096089  0.50177238  0.10206591  1
  O  O273  1  -0.02295812  0.49895053  0.60412653  1
  O  O274  1  0.51635588  -0.02260132  0.10674448  1
  O  O275  1  0.47969246  0.01863952  0.65302051  1
  O  O276  1  0.51928758  0.52259235  0.09548894  1
  O  O277  1  0.53060715  0.49346575  0.66791004  1
  O  O278  1  0.25985544  0.38605197  0.28689339  1
  O  O279  1  0.22480667  0.37417843  0.76628198  1
  O  O280  1  0.25394447  0.90833079  0.24677164  1
  O  O281  1  0.26371892  0.88452080  0.72764394  1
  O  O282  1  0.71068876  0.26187789  0.16811986  1
  O  O283  1  0.73335826  0.31132359  0.79623931  1
  O  O284  1  0.74066594  0.88964091  0.24883577  1
  O  O285  1  0.74955660  0.89120490  0.69539641  1
  O  O286  1  0.24437610  0.10289175  0.27928944  1
  O  O287  1  0.24913879  0.12417370  0.72567330  1
  O  O288  1  0.23892442  0.64923474  0.27663388  1
  O  O289  1  0.22897413  0.57366460  0.61470592  1
  O  O290  1  0.71127603  0.09651084  0.26042927  1
  O  O291  1  0.71264995  0.11810077  0.76532154  1
  O  O292  1  0.79513040  0.63175215  0.25106752  1
  O  O293  1  0.73130284  0.60363225  0.75417036  1
  O  O294  1  0.36634427  0.11505919  0.37316999  1
  O  O295  1  0.33915096  0.14435644  0.86572204  1
  O  O296  1  0.34523534  0.65499685  0.37662831  1
  O  O297  1  0.32447395  0.68850088  0.95126136  1
  O  O298  1  0.87892739  0.10600949  0.37987536  1
  O  O299  1  0.88728664  0.08720436  0.87323057  1
  O  O300  1  0.85478573  0.62414984  0.39567691  1
  O  O301  1  0.87158477  0.61652101  0.85931016  1
  O  O302  1  0.11129401  0.39231067  0.11820317  1
  O  O303  1  0.13310142  0.38009011  0.62794416  1
  O  O304  1  0.15311757  0.87678906  0.15331589  1
  O  O305  1  0.13719037  0.87986404  0.62654724  1
  O  O306  1  0.60922253  0.40236330  0.08130272  1
  O  O307  1  0.61250416  0.37640727  0.60399456  1
  O  O308  1  0.62975595  0.88246726  0.11762369  1
  O  O309  1  0.61391025  0.88117243  0.60828085  1
  O  O310  1  0.12703239  0.27313639  0.21389899  1
  O  O311  1  0.11085136  0.27400025  0.74092757  1
  O  O312  1  0.09468708  0.71163606  0.20760975  1
  O  O313  1  0.12479874  0.79078926  0.78374359  1
  O  O314  1  0.67905598  0.34958695  0.29719012  1
  O  O315  1  0.58694649  0.27314097  0.75574798  1
  O  O316  1  0.66664882  0.76167238  0.20089752  1
  O  O317  1  0.64132920  0.78825509  0.73715351  1
  O  O318  1  0.37740117  0.23678585  0.27129706  1
  O  O319  1  0.35415408  0.25752498  0.74880170  1
  O  O320  1  0.40269786  0.74855527  0.24928061  1
  O  O321  1  0.32669908  0.62757201  0.74456292  1
  O  O322  1  0.85598259  0.20387207  0.24514528  1
  O  O323  1  0.86711901  0.21213347  0.73300156  1
  O  O324  1  0.90459387  0.78455755  0.25632404  1
  O  O325  1  0.87527103  0.69177308  0.72015597  1
  O  O326  1  0.43902243  0.51564740  0.51583078  1
  O  O327  1  0.34429911  0.47358847  1.01132987  1
  O  O328  1  0.41334717  0.97265476  0.50887015  1
  O  O329  1  0.43097473  1.09893272  1.01051782  1
  O  O330  1  0.86834302  0.47577778  0.49415098  1
  O  O331  1  0.86724409  0.50735010  0.97041546  1
  O  O332  1  0.89564172  0.99584325  0.49189716  1
  O  O333  1  0.85456975  0.97953780  0.97682337  1
  O  O334  1  0.11127301  -0.01264170  0.01701403  1
  O  O335  1  0.11947526  0.00345211  0.50941964  1
  O  O336  1  0.09162835  0.49361293  -0.02549908  1
  O  O337  1  0.21489423  0.54566309  0.43052788  1
  O  O338  1  0.62996075  -0.01033249  -0.00818983  1
  O  O339  1  0.58354414  -0.00492910  0.46939999  1
  O  O340  1  0.64782056  0.51755745  -0.00767462  1
  O  O341  1  0.61488400  0.52417054  0.53884957  1
  O  O342  1  0.41966548  0.37740949  0.10175533  1
  O  O343  1  0.36018344  0.36645661  0.63002975  1
  O  O344  1  0.36770562  0.89203228  0.14628637  1
  O  O345  1  0.34145978  0.86594682  0.60823631  1
  O  O346  1  0.88435427  0.33599118  0.10648465  1
  O  O347  1  0.86043819  0.34162703  0.66512087  1
  O  O348  1  0.86915766  0.75912627  0.03837622  1
  O  O349  1  0.87358677  0.90361255  0.59883799  1
  O  O350  1  0.14053541  0.10855254  0.39426587  1
  O  O351  1  0.13601014  0.12423213  0.94274972  1
  O  O352  1  0.18633510  0.60951903  0.44096626  1
  O  O353  1  0.15653928  0.67355570  0.86419307  1
  O  O354  1  0.63681519  0.22686444  0.35059141  1
  O  O355  1  0.66033225  0.14710902  0.92132735  1
  O  O356  1  0.66034125  0.63793252  0.30898158  1
  O  O357  1  0.63196794  0.62985620  0.87998609  1
