# generated using pymatgen
data_V51Zn51O256
_symmetry_space_group_name_H-M   'P 1'
_cell_length_a   17.42625400
_cell_length_b   17.43379750
_cell_length_c   17.18958317
_cell_angle_alpha   89.47922843
_cell_angle_beta   89.42064622
_cell_angle_gamma   89.39678227
_symmetry_Int_Tables_number   1
_chemical_formula_structural   V51Zn51O256
_chemical_formula_sum   'V51 Zn51 O256'
_cell_volume   5221.52768833
_cell_formula_units_Z   1
loop_
 _symmetry_equiv_pos_site_id
 _symmetry_equiv_pos_as_xyz
  1  'x, y, z'
loop_
 _atom_site_type_symbol
 _atom_site_label
 _atom_site_symmetry_multiplicity
 _atom_site_fract_x
 _atom_site_fract_y
 _atom_site_fract_z
 _atom_site_occupancy
  V  V0  1  0.32335878  0.59345899  0.87586845  1
  V  V1  1  0.85794225  0.37394882  -0.01129785  1
  V  V2  1  0.12310723  0.85124084  0.74986017  1
  V  V3  1  0.90653355  0.49133044  0.41488393  1
  V  V4  1  0.48962181  0.01502238  0.05785776  1
  V  V5  1  0.11260931  0.71938320  0.88022124  1
  V  V6  1  0.61810203  0.41189223  0.28338668  1
  V  V7  1  0.48056628  0.27676736  0.21932612  1
  V  V8  1  0.77662239  0.26420468  0.52764137  1
  V  V9  1  0.75451818  0.50874827  0.74602182  1
  V  V10  1  0.12469220  0.51183366  0.11668811  1
  V  V11  1  0.38015224  0.09380275  0.78532694  1
  V  V12  1  0.71368684  0.15230789  0.85693633  1
  V  V13  1  0.48293225  0.36860253  0.40587182  1
  V  V14  1  0.88360442  0.65718046  0.25877980  1
  V  V15  1  0.36650114  0.52520834  0.41378721  1
  V  V16  1  0.62526708  0.78744087  0.91119327  1
  V  V17  1  0.52668727  0.89541085  0.34179032  1
  V  V18  1  0.21525475  0.09619648  0.90499869  1
  V  V19  1  0.81252022  0.38816785  0.62780210  1
  V  V20  1  0.70341069  0.73096394  0.48371891  1
  V  V21  1  0.65065685  0.61627225  0.00019652  1
  V  V22  1  0.75498882  0.77255727  0.03146581  1
  V  V23  1  0.72664963  -0.00193475  0.77520777  1
  V  V24  1  0.23355439  0.30131910  0.60392430  1
  V  V25  1  -0.00805768  0.85016666  0.88648592  1
  V  V26  1  0.13994385  0.07444226  0.47039918  1
  V  V27  1  0.27129866  0.14299461  0.27774730  1
  V  V28  1  0.63557735  0.25040399  0.37613671  1
  V  V29  1  0.12157033  0.38609407  0.27679082  1
  V  V30  1  0.89294700  0.00971084  0.86972203  1
  V  V31  1  0.26924911  0.50401339  0.24240457  1
  V  V32  1  0.24308441  0.43300522  0.72154867  1
  V  V33  1  0.24294127  -0.02076957  0.75463473  1
  V  V34  1  -0.00072358  0.63289663  0.12504846  1
  V  V35  1  0.38622326  0.20624680  0.63920688  1
  V  V36  1  0.51928726  0.74523694  0.24718021  1
  V  V37  1  0.78668994  0.49848309  0.24481964  1
  V  V38  1  0.84221580  0.75214794  0.65337688  1
  V  V39  1  0.00767150  0.32790814  0.39323596  1
  V  V40  1  -0.04485405  0.90227223  0.42531562  1
  V  V41  1  0.50496093  0.50199979  -0.01377205  1
  V  V42  1  0.28114068  0.74582157  -0.01314759  1
  V  V43  1  0.73074562  0.25344037  0.01298250  1
  V  V44  1  0.59897410  0.01073113  0.62650415  1
  V  V45  1  0.59032843  0.37311513  0.75958623  1
  V  V46  1  0.39249860  0.86182672  0.48804021  1
  V  V47  1  0.17328291  0.72209886  0.35126096  1
  V  V48  1  0.61065477  0.49890019  0.12942684  1
  V  V49  1  0.37477688  0.70964414  0.12723325  1
  V  V50  1  0.73872051  0.89846025  0.59079140  1
  Zn  Zn51  1  0.06961428  0.02700040  0.82100623  1
  Zn  Zn52  1  0.19604476  0.68159666  0.17652346  1
  Zn  Zn53  1  0.72801418  0.93820868  0.94380048  1
  Zn  Zn54  1  0.68457994  0.98265003  0.42213484  1
  Zn  Zn55  1  0.23692851  0.40608651  0.88988622  1
  Zn  Zn56  1  0.46815540  1.08004101  0.26461771  1
  Zn  Zn57  1  0.39803328  0.97653199  0.65391010  1
  Zn  Zn58  1  0.67746429  0.17271157  0.67637393  1
  Zn  Zn59  1  -0.00046209  0.84779847  0.10816235  1
  Zn  Zn60  1  0.89312450  0.53300623  0.62944023  1
  Zn  Zn61  1  0.61336762  0.54193190  0.82100424  1
  Zn  Zn62  1  0.21251886  0.88261889  0.41295702  1
  Zn  Zn63  1  0.95445660  0.72456048  1.00048584  1
  Zn  Zn64  1  1.00923222  0.98760518  0.24815679  1
  Zn  Zn65  1  0.25824147  0.09409045  0.63973032  1
  Zn  Zn66  1  0.27521733  0.75785135  0.78488116  1
  Zn  Zn67  1  0.69886239  0.66320074  0.19170416  1
  Zn  Zn68  1  0.31777815  0.54901930  0.06061053  1
  Zn  Zn69  1  0.74031644  0.07578508  0.54150212  1
  Zn  Zn70  1  0.28366315  0.51163621  0.59435049  1
  Zn  Zn71  1  0.76457017  0.55355282  0.53512347  1
  Zn  Zn72  1  0.17779154  0.61363102  0.75042430  1
  Zn  Zn73  1  0.00327239  0.14124382  0.32027805  1
  Zn  Zn74  1  0.50923718  0.55984208  0.31082374  1
  Zn  Zn75  1  0.09814484  0.36785816  0.00756382  1
  Zn  Zn76  1  0.96965072  0.42562535  0.17419828  1
  Zn  Zn77  1  0.05984170  0.24635413  0.57182964  1
  Zn  Zn78  1  0.40828270  0.38099378  0.68546404  1
  Zn  Zn79  1  0.46654150  0.68387990  0.95350806  1
  Zn  Zn80  1  0.64723016  0.28662287  0.16897887  1
  Zn  Zn81  1  0.34514829  0.66836234  0.29923378  1
  Zn  Zn82  1  0.67709826  0.69982757  0.74575203  1
  Zn  Zn83  1  0.67616480  0.42631598  0.93183736  1
  Zn  Zn84  1  0.25351815  0.22845023  0.77272873  1
  Zn  Zn85  1  0.32188801  0.33431332  0.29165280  1
  Zn  Zn86  1  0.18145104  0.24414891  0.14679148  1
  Zn  Zn87  1  0.79832573  0.80516902  0.82722061  1
  Zn  Zn88  1  0.46346987  0.70707285  0.42641735  1
  Zn  Zn89  1  0.11607457  0.52652619  0.91065428  1
  Zn  Zn90  1  0.53502000  0.29912969  0.02321065  1
  Zn  Zn91  1  0.80198940  0.81909649  0.31371510  1
  Zn  Zn92  1  0.28785110  0.08264755  0.09511474  1
  Zn  Zn93  1  0.52926135  0.81431284  0.06395461  1
  Zn  Zn94  1  0.51897170  0.14162554  0.89663043  1
  Zn  Zn95  1  0.06293089  0.57244455  0.30420483  1
  Zn  Zn96  1  0.82327557  0.55585636  0.08328387  1
  Zn  Zn97  1  0.86690324  0.71573961  0.44331664  1
  Zn  Zn98  1  0.20674587  0.89061874  0.90595635  1
  Zn  Zn99  1  0.87203316  0.16307273  -0.02729738  1
  Zn  Zn100  1  0.81843006  0.32626003  0.80845579  1
  Zn  Zn101  1  0.56605924  0.85201702  0.53034611  1
  O  O102  1  0.07804823  0.22755436  0.09358638  1
  O  O103  1  0.22024617  0.09024507  0.52925182  1
  O  O104  1  0.10706577  0.62133369  0.14592876  1
  O  O105  1  0.21751333  0.59885126  0.62985787  1
  O  O106  1  0.82122943  0.03533544  0.14929288  1
  O  O107  1  0.59248080  0.10591520  0.64908194  1
  O  O108  1  0.63214742  0.60098550  0.12514326  1
  O  O109  1  0.54295719  0.74396949  0.66728669  1
  O  O110  1  0.39467698  0.33809810  0.37514872  1
  O  O111  1  0.42415315  0.36895258  0.88794236  1
  O  O112  1  0.37118939  1.04730902  0.43365754  1
  O  O113  1  0.47134156  0.84580201  0.76733655  1
  O  O114  1  0.92430834  0.38934191  0.40719769  1
  O  O115  1  0.87202171  0.38230117  0.89095459  1
  O  O116  1  0.87948246  0.88897205  0.35386362  1
  O  O117  1  0.90058040  0.82918228  0.86082013  1
  O  O118  1  0.18959564  -0.10051311  0.28438605  1
  O  O119  1  0.23562629  -0.00882606  0.87591949  1
  O  O120  1  0.28676532  0.50728132  0.36029397  1
  O  O121  1  0.30355628  0.49607421  0.86501336  1
  O  O122  1  0.73314599  -0.00757587  0.28427884  1
  O  O123  1  0.70562271  0.03128389  0.87271148  1
  O  O124  1  0.83214121  0.50668098  0.35392935  1
  O  O125  1  0.73302213  0.48527202  0.84418675  1
  O  O126  1  0.23503783  0.51146775  0.13354074  1
  O  O127  1  0.22037853  0.41442894  0.62255281  1
  O  O128  1  0.10259201  0.99764335  0.10026196  1
  O  O129  1  0.24905483  0.97683115  0.65390885  1
  O  O130  1  0.74095793  0.50339420  0.15557946  1
  O  O131  1  0.75806794  0.49068906  0.62772126  1
  O  O132  1  0.84575451  0.97548722  0.12178439  1
  O  O133  1  0.74892167  0.99301468  0.62800473  1
  O  O134  1  0.02022504  0.38542774  0.26610829  1
  O  O135  1  -0.01913718  0.30411051  0.77672354  1
  O  O136  1  0.02192166  0.92277656  0.34249392  1
  O  O137  1  0.02582003  0.83932157  0.77551707  1
  O  O138  1  0.51702106  0.35819592  0.26858263  1
  O  O139  1  0.49113733  0.37189927  0.75054230  1
  O  O140  1  0.53839948  0.85523856  0.24553476  1
  O  O141  1  0.43000009  0.78700505  0.77316361  1
  O  O142  1  0.49127300  0.18812558  0.26493785  1
  O  O143  1  0.47446868  0.08894914  0.81230867  1
  O  O144  1  0.46801137  0.65733664  0.27338631  1
  O  O145  1  0.60861446  0.70776791  0.64760855  1
  O  O146  1  0.94313873  0.19630902  0.18761535  1
  O  O147  1  1.00703261  0.09451456  0.74225530  1
  O  O148  1  0.98696707  0.63955955  0.24480889  1
  O  O149  1  1.03690823  0.61378917  0.69171284  1
  O  O150  1  0.39559852  0.22080323  -0.02625539  1
  O  O151  1  0.37136366  0.18945030  0.54472484  1
  O  O152  1  0.38545492  0.74267449  0.02249371  1
  O  O153  1  0.40273302  0.76400276  0.50059416  1
  O  O154  1  0.84507579  0.26521112  0.00096396  1
  O  O155  1  0.85399042  0.23455044  0.48398691  1
  O  O156  1  0.84885417  0.74996171  0.01196052  1
  O  O157  1  0.88693136  0.69992314  0.55501097  1
  O  O158  1  0.10994836  0.16477060  0.50784536  1
  O  O159  1  0.21151440  0.29984901  1.04533614  1
  O  O160  1  0.15218177  0.79609559  0.41915054  1
  O  O161  1  0.17174717  0.71586408  0.95790538  1
  O  O162  1  0.51280010  0.14746877  0.50501436  1
  O  O163  1  0.63537385  0.25924748  0.99166172  1
  O  O164  1  0.61057357  0.76415612  0.47346072  1
  O  O165  1  0.64973707  0.72508678  1.01078773  1
  O  O166  1  0.53850459  0.26797763  0.13270894  1
  O  O167  1  0.47753910  0.22817623  0.64656266  1
  O  O168  1  0.48132819  0.75044961  0.14476612  1
  O  O169  1  0.50374340  0.77400322  0.61043393  1
  O  O170  1  1.08264135  0.25432945  -0.03473575  1
  O  O171  1  0.99757730  0.18714335  0.65140354  1
  O  O172  1  1.00022434  0.73671555  0.11207891  1
  O  O173  1  0.92782733  0.75530079  0.68821803  1
  O  O174  1  -0.00859877  0.24439487  0.34368915  1
  O  O175  1  0.03724174  0.27463329  0.81206566  1
  O  O176  1  -0.05766376  0.79846333  0.41579760  1
  O  O177  1  0.01269438  0.73140658  0.90059737  1
  O  O178  1  0.54136122  0.27631762  0.40735691  1
  O  O179  1  0.47350198  0.23559333  0.94449537  1
  O  O180  1  0.48877046  0.78495689  0.34654979  1
  O  O181  1  0.52725598  0.77856460  0.95645861  1
  O  O182  1  0.19450435  0.10870266  0.38418914  1
  O  O183  1  0.23424229  0.09780632  1.00350547  1
  O  O184  1  0.23900135  0.67057128  0.57924083  1
  O  O185  1  0.28439298  0.61606116  0.96824041  1
  O  O186  1  0.73138544  0.18002803  0.57698378  1
  O  O187  1  0.75053907  0.15701897  0.96251683  1
  O  O188  1  0.70854110  0.63122076  0.48685591  1
  O  O189  1  0.74816503  0.60840355  1.01885296  1
  O  O190  1  0.36366762  0.33737528  -0.12613469  1
  O  O191  1  0.24272391  0.28934867  0.51124002  1
  O  O192  1  0.25264226  0.83907376  -0.00457227  1
  O  O193  1  0.31918590  0.88743871  0.42526131  1
  O  O194  1  0.74631695  0.35889548  -0.00839815  1
  O  O195  1  0.77501491  0.37356356  0.53136821  1
  O  O196  1  0.74496344  0.87255188  0.03647405  1
  O  O197  1  0.74647329  0.90748500  0.49308323  1
  O  O198  1  0.13041276  0.49306147  0.24952153  1
  O  O199  1  0.17705377  0.49972947  0.75042708  1
  O  O200  1  0.14688803  0.93485739  0.23845136  1
  O  O201  1  0.12889057  0.95844959  0.75609317  1
  O  O202  1  0.58722348  0.50683886  0.24872562  1
  O  O203  1  0.61706372  0.46454826  0.73313806  1
  O  O204  1  0.71107771  0.94361139  0.23398595  1
  O  O205  1  0.63817734  0.98861251  0.73007477  1
  O  O206  1  0.26779959  0.00488707  0.17979454  1
  O  O207  1  0.35273381  -0.01301144  0.76317828  1
  O  O208  1  0.35940181  0.48450393  0.22278760  1
  O  O209  1  0.33526422  0.47152866  0.69953702  1
  O  O210  1  0.93438274  0.06366752  0.28769774  1
  O  O211  1  0.84304948  0.01416655  0.78349371  1
  O  O212  1  0.86833167  0.45385797  0.21467574  1
  O  O213  1  0.84510429  0.54558156  0.73860374  1
  O  O214  1  0.10770118  0.36322723  0.37786716  1
  O  O215  1  0.12924156  0.41860141  0.91320071  1
  O  O216  1  0.04187765  0.88733643  0.46992086  1
  O  O217  1  0.10992967  0.83717759  0.88613224  1
  O  O218  1  0.58936838  0.41670376  0.37863392  1
  O  O219  1  0.61927931  0.36383259  0.85506362  1
  O  O220  1  0.61850700  0.91485000  0.36992923  1
  O  O221  1  0.63073297  0.88509558  0.91602062  1
  O  O222  1  0.38172629  0.24783375  0.04070974  1
  O  O223  1  0.37256969  0.09305854  0.66431404  1
  O  O224  1  0.38644694  0.61425433  0.12911985  1
  O  O225  1  0.39238812  0.65106390  0.63730286  1
  O  O226  1  0.93031385  0.13384459  0.07479728  1
  O  O227  1  0.88149773  0.09585256  0.59037117  1
  O  O228  1  0.89160834  0.61648086  0.14761931  1
  O  O229  1  0.84464397  0.64828567  0.60599088  1
  O  O230  1  0.27294862  0.34855896  0.05847217  1
  O  O231  1  0.24471832  0.20519187  0.65732707  1
  O  O232  1  0.26834085  0.71035225  0.09396329  1
  O  O233  1  0.23945410  0.73155258  0.61545973  1
  O  O234  1  0.72955540  0.24011672  0.11218696  1
  O  O235  1  0.81602304  0.28675446  0.63286588  1
  O  O236  1  0.74051395  0.74431653  0.12745059  1
  O  O237  1  0.73872038  0.76521902  0.56994213  1
  O  O238  1  0.27883854  0.22933202  0.31511308  1
  O  O239  1  0.22177045  0.19324850  0.87265559  1
  O  O240  1  0.26952575  0.71275030  0.36967322  1
  O  O241  1  0.31381248  0.74871421  0.89233744  1
  O  O242  1  0.70418719  0.27063738  0.44769801  1
  O  O243  1  0.75565226  0.23932213  0.83471861  1
  O  O244  1  0.76816425  0.76265718  0.40628435  1
  O  O245  1  0.73348709  0.77292564  0.91496697  1
  O  O246  1  0.08537559  0.20155754  0.01981639  1
  O  O247  1  0.09296289  0.02175881  0.54269623  1
  O  O248  1  -0.01481113  0.61571209  0.02700013  1
  O  O249  1  0.06905188  0.71472407  0.57511039  1
  O  O250  1  0.52071520  0.09972106  0.00756963  1
  O  O251  1  0.51899482  0.10537969  0.44951613  1
  O  O252  1  0.53605634  0.60846152  0.00591447  1
  O  O253  1  0.51463877  0.60886483  0.54087686  1
  O  O254  1  0.47295960  0.38402202  0.49901842  1
  O  O255  1  0.51653539  0.40169257  0.99797091  1
  O  O256  1  0.48842912  0.89296422  0.45483477  1
  O  O257  1  0.47473728  0.91823510  1.08754553  1
  O  O258  1  1.01528571  0.29842451  0.48714429  1
  O  O259  1  0.97009861  0.36096778  1.01410315  1
  O  O260  1  0.90804695  0.89702785  0.51428219  1
  O  O261  1  0.98827410  0.85470502  0.98853721  1
  O  O262  1  0.45258079  0.48096912  0.37450869  1
  O  O263  1  0.52914714  0.50906630  0.88775887  1
  O  O264  1  0.48555854  0.98245155  0.31739693  1
  O  O265  1  0.44335240  0.98769160  0.97241104  1
  O  O266  1  0.99145884  0.52662722  0.38297830  1
  O  O267  1  0.94846546  0.52627982  0.87988864  1
  O  O268  1  0.92926690  0.99835750  0.43291488  1
  O  O269  1  0.98695177  0.95922137  0.86467786  1
  O  O270  1  0.06929985  0.07808988  0.25539740  1
  O  O271  1  -0.09109287  0.05034624  0.63771464  1
  O  O272  1  0.01719010  0.52012869  0.13867007  1
  O  O273  1  0.01631910  0.56840026  0.63998986  1
  O  O274  1  0.50395778  0.04698548  0.15657699  1
  O  O275  1  0.50762954  -0.02186938  0.62488276  1
  O  O276  1  0.51694814  0.49681921  0.11126377  1
  O  O277  1  0.43863161  0.62031525  0.68097216  1
  O  O278  1  0.23713295  0.40269390  0.26892368  1
  O  O279  1  0.24222786  0.35126235  0.78308667  1
  O  O280  1  0.30291218  0.93417949  0.17906687  1
  O  O281  1  0.23464140  0.86736951  0.78505940  1
  O  O282  1  0.71837203  0.43620939  0.29201105  1
  O  O283  1  0.77730700  0.39694524  0.73152347  1
  O  O284  1  0.74385831  0.87295976  0.23205487  1
  O  O285  1  0.74857474  0.90301262  0.79296182  1
  O  O286  1  0.24637609  0.15547110  0.17745288  1
  O  O287  1  0.22257183  0.07931268  0.75914022  1
  O  O288  1  0.26073911  0.60695864  0.24767758  1
  O  O289  1  0.27875163  0.63907295  0.79349854  1
  O  O290  1  0.78378524  0.15067925  0.26466638  1
  O  O291  1  0.73135092  0.11336018  0.75740671  1
  O  O292  1  0.78358630  0.60808050  0.25205065  1
  O  O293  1  0.68978854  0.58997943  0.74181993  1
  O  O294  1  0.35538671  0.09648789  0.28021481  1
  O  O295  1  0.33225757  0.09480028  0.87253677  1
  O  O296  1  0.38751775  0.62188994  0.40087139  1
  O  O297  1  0.41674875  0.62389633  0.87277820  1
  O  O298  1  0.81811274  0.18424097  0.31524963  1
  O  O299  1  0.91573569  0.10261451  0.89511417  1
  O  O300  1  0.88835222  0.64900135  0.35951914  1
  O  O301  1  0.89116914  0.56383592  0.89579896  1
  O  O302  1  0.10879709  0.41051365  0.11066080  1
  O  O303  1  0.13440068  0.29844285  0.62738131  1
  O  O304  1  0.11890607  0.86922852  0.09724829  1
  O  O305  1  0.12955172  0.83689926  0.65637648  1
  O  O306  1  0.63395651  0.40104006  0.16369475  1
  O  O307  1  0.63683241  0.33224689  0.66560242  1
  O  O308  1  0.62152177  0.85689572  0.10108607  1
  O  O309  1  0.63831659  0.88695927  0.60976590  1
  O  O310  1  0.14224356  0.29863204  0.23320467  1
  O  O311  1  0.04384588  0.14279186  0.69627712  1
  O  O312  1  0.15975536  0.75197477  0.25541876  1
  O  O313  1  0.15591294  0.73954212  0.78156488  1
  O  O314  1  0.65479306  0.29871161  0.28329851  1
  O  O315  1  0.62594295  0.27019849  0.71618669  1
  O  O316  1  0.61075529  0.71419851  0.24748029  1
  O  O317  1  0.61218603  0.75707696  0.81735951  1
  O  O318  1  0.38586279  0.29426421  0.20145441  1
  O  O319  1  0.36406764  0.19607388  0.76127094  1
  O  O320  1  0.34819604  0.74750582  0.21599717  1
  O  O321  1  0.37156534  0.78134521  0.72045958  1
  O  O322  1  0.90139786  0.18322012  0.12938252  1
  O  O323  1  0.91562795  0.26220782  0.77668444  1
  O  O324  1  0.86173175  0.75186920  0.24523633  1
  O  O325  1  0.78173697  0.73694330  0.73824316  1
  O  O326  1  0.35054914  0.50609542  0.51072338  1
  O  O327  1  0.40757651  0.51326636  0.99857543  1
  O  O328  1  0.37770235  1.04464920  0.50453406  1
  O  O329  1  0.39699956  1.05830678  1.08516119  1
  O  O330  1  0.87623254  0.52850835  0.50855150  1
  O  O331  1  0.85015847  0.46537038  1.02433671  1
  O  O332  1  0.76424137  1.05368674  0.43588500  1
  O  O333  1  0.83698489  0.97113548  0.94059860  1
  O  O334  1  0.13383120  -0.06037124  0.06779463  1
  O  O335  1  0.17087639  -0.01643667  0.43370181  1
  O  O336  1  0.13237276  0.53641353  0.02184102  1
  O  O337  1  0.06384673  0.66569565  0.52493908  1
  O  O338  1  0.58601821  -0.01156603  0.04369825  1
  O  O339  1  0.63073389  0.02146866  0.52719093  1
  O  O340  1  0.63527406  0.49925595  0.01690147  1
  O  O341  1  0.55598405  0.58280457  0.48661937  1
  O  O342  1  0.28709462  0.39799061  0.00238623  1
  O  O343  1  0.34080242  0.31118012  0.64109430  1
  O  O344  1  0.29934436  0.89728213  0.11542243  1
  O  O345  1  0.37418859  0.90012957  0.57697684  1
  O  O346  1  0.93569717  0.35177972  0.08705145  1
  O  O347  1  0.90559644  0.41877126  0.62705497  1
  O  O348  1  0.96546553  0.91966046  0.18115561  1
  O  O349  1  0.82344470  0.85412976  0.63592974  1
  O  O350  1  0.05463934  0.08748040  0.41264399  1
  O  O351  1  0.11621556  0.08404079  0.90023479  1
  O  O352  1  0.11919921  0.64165913  0.36931982  1
  O  O353  1  0.11105709  0.61692885  0.85122952  1
  O  O354  1  0.63833096  0.15766402  0.36172919  1
  O  O355  1  0.61886442  0.17008643  0.86222990  1
  O  O356  1  0.54746805  0.62353959  0.41368688  1
  O  O357  1  0.64804730  0.61630222  0.90070166  1
