# generated using pymatgen
data_V51Zn51O256
_symmetry_space_group_name_H-M   'P 1'
_cell_length_a   17.62020298
_cell_length_b   17.90941959
_cell_length_c   17.23043578
_cell_angle_alpha   89.42186954
_cell_angle_beta   89.58914185
_cell_angle_gamma   90.34901135
_symmetry_Int_Tables_number   1
_chemical_formula_structural   V51Zn51O256
_chemical_formula_sum   'V51 Zn51 O256'
_cell_volume   5436.84752933
_cell_formula_units_Z   1
loop_
 _symmetry_equiv_pos_site_id
 _symmetry_equiv_pos_as_xyz
  1  'x, y, z'
loop_
 _atom_site_type_symbol
 _atom_site_label
 _atom_site_symmetry_multiplicity
 _atom_site_fract_x
 _atom_site_fract_y
 _atom_site_fract_z
 _atom_site_occupancy
  V  V0  1  -0.02432137  0.64051557  0.64422100  1
  V  V1  1  0.77589100  0.48868764  0.75265622  1
  V  V2  1  0.26577544  0.16929430  0.40974874  1
  V  V3  1  0.55582166  0.74498894  0.28554627  1
  V  V4  1  0.19442114  0.92232358  0.59992728  1
  V  V5  1  0.08925791  0.56318933  0.45243472  1
  V  V6  1  0.37449991  0.59227551  0.22187926  1
  V  V7  1  0.13285430  0.09630878  -0.00366636  1
  V  V8  1  0.94954503  0.37816654  0.91144774  1
  V  V9  1  0.12135828  0.51306854  0.63916560  1
  V  V10  1  0.30628990  0.45985655  0.83416140  1
  V  V11  1  0.61602880  0.28482087  0.89954807  1
  V  V12  1  0.87866121  0.83841725  0.51248582  1
  V  V13  1  0.00826151  0.66116124  0.14874110  1
  V  V14  1  0.53949970  0.41097904  0.82599335  1
  V  V15  1  0.72198529  0.13244764  0.42420199  1
  V  V16  1  0.40288071  0.24639477  0.07498790  1
  V  V17  1  0.54461698  0.30259617  0.21948165  1
  V  V18  1  0.70969251  0.74762354  0.53372586  1
  V  V19  1  0.51636353  -0.05486690  0.01920734  1
  V  V20  1  0.74842562  -0.05333087  0.76565069  1
  V  V21  1  0.48490099  0.23700054  0.69970536  1
  V  V22  1  -0.02135396  0.02353773  0.04816002  1
  V  V23  1  0.84901882  0.16032071  0.28540236  1
  V  V24  1  0.73669727  0.02284617  0.27682016  1
  V  V25  1  0.86368921  0.01066969  0.89269422  1
  V  V26  1  0.40692421  0.07741143  0.72769383  1
  V  V27  1  0.50149404  0.52695260  -0.02701952  1
  V  V28  1  0.89026128  0.64687653  0.81146518  1
  V  V29  1  0.63149490  0.73682494  0.91723615  1
  V  V30  1  -0.04661775  0.50081066  0.54386623  1
  V  V31  1  0.11376654  0.52988269  0.11841366  1
  V  V32  1  -0.01018253  0.09655256  0.63131561  1
  V  V33  1  0.60754342  0.91012364  0.30472735  1
  V  V34  1  0.40043351  0.09096404  0.20106305  1
  V  V35  1  0.18344734  0.27814026  0.71192521  1
  V  V36  1  0.53568906  0.49961441  0.48592697  1
  V  V37  1  0.72889626  0.35013222  0.63236774  1
  V  V38  1  0.75654948  0.85095333  0.19265810  1
  V  V39  1  0.84535692  -0.01428101  0.40102645  1
  V  V40  1  0.66093144  0.59122732  0.03979319  1
  V  V41  1  -0.04061009  0.23339707  0.73870438  1
  V  V42  1  0.85855272  0.23328371  0.11067849  1
  V  V43  1  0.86254010  0.34810071  0.52891271  1
  V  V44  1  0.67739206  -0.03637764  0.09488073  1
  V  V45  1  0.34846767  0.72586519  0.61816679  1
  V  V46  1  0.78886663  0.51666148  0.27869616  1
  V  V47  1  -0.01513320  -0.00236031  0.49568673  1
  V  V48  1  -0.01638867  0.88391066  0.84764535  1
  V  V49  1  0.84065565  0.10862964  0.74217973  1
  V  V50  1  0.48667087  0.39016235  0.35826420  1
  Zn  Zn51  1  0.69848549  0.67269506  0.22259109  1
  Zn  Zn52  1  -0.11034037  0.86610034  0.04931325  1
  Zn  Zn53  1  0.34939682  0.90955905  0.47177405  1
  Zn  Zn54  1  0.79944645  0.59322693  0.59734202  1
  Zn  Zn55  1  0.19556706  0.09652769  0.67631136  1
  Zn  Zn56  1  0.01658994  0.22715313  0.02812440  1
  Zn  Zn57  1  0.94168260  0.72071742  0.95508897  1
  Zn  Zn58  1  0.83647195  0.05037229  0.11241341  1
  Zn  Zn59  1  0.12920499  0.43882562  0.30620550  1
  Zn  Zn60  1  0.57265709  0.55686219  0.29585249  1
  Zn  Zn61  1  0.44246612  0.42717663  0.14031520  1
  Zn  Zn62  1  0.01608970  0.83367911  0.64773669  1
  Zn  Zn63  1  0.35137527  0.33200639  0.76646423  1
  Zn  Zn64  1  0.97822987  0.68363666  0.46019076  1
  Zn  Zn65  1  0.89331130  0.93539199  0.67714804  1
  Zn  Zn66  1  0.24511523  0.59727621  0.56076511  1
  Zn  Zn67  1  0.57890325  0.12280948  0.29084794  1
  Zn  Zn68  1  0.55665540  0.75857128  0.08525779  1
  Zn  Zn69  1  0.67967587  0.20211851  0.74622676  1
  Zn  Zn70  1  0.79333136  0.31322079  0.80614101  1
  Zn  Zn71  1  0.70311693  0.43166521  0.44604220  1
  Zn  Zn72  1  0.72973280  0.74091527  0.76911074  1
  Zn  Zn73  1  0.40657921  0.90261099  0.26329148  1
  Zn  Zn74  1  0.02731856  0.31279193  0.59922396  1
  Zn  Zn75  1  0.27256988  0.76104097  0.22923244  1
  Zn  Zn76  1  0.43270738  0.21494127  0.33570350  1
  Zn  Zn77  1  0.35369000  0.61734375  0.91324498  1
  Zn  Zn78  1  0.89470425  0.20604192  0.90396941  1
  Zn  Zn79  1  0.23513072  0.81138481  0.75203571  1
  Zn  Zn80  1  0.25597082  0.13714125  0.10564784  1
  Zn  Zn81  1  0.62058651  0.57390442  0.83374761  1
  Zn  Zn82  1  0.81059311  0.81555142  0.89761601  1
  Zn  Zn83  1  0.53546719  0.82197147  0.45889459  1
  Zn  Zn84  1  0.13600532  0.70722601  0.64349944  1
  Zn  Zn85  1  0.95457632  1.03105372  0.26705853  1
  Zn  Zn86  1  0.94816635  0.43084867  0.36951461  1
  Zn  Zn87  1  0.12818423  0.41585443  0.81195793  1
  Zn  Zn88  1  0.68847731  0.25304851  0.17437966  1
  Zn  Zn89  1  0.46969799  0.47514459  0.69576929  1
  Zn  Zn90  1  0.91275932  0.17163325  0.46306829  1
  Zn  Zn91  1  -0.02455386  0.44044541  0.72969249  1
  Zn  Zn92  1  0.46357628  0.19436525  0.88029205  1
  Zn  Zn93  1  0.43009577  0.92667488  0.61218958  1
  Zn  Zn94  1  0.64312667  0.39619711  0.05912547  1
  Zn  Zn95  1  0.78706192  0.30949605  0.37303036  1
  Zn  Zn96  1  0.30790552  0.06795716  0.56963660  1
  Zn  Zn97  1  0.29411483  0.34043090  0.33996809  1
  Zn  Zn98  1  0.02181029  0.09760251  0.83768405  1
  Zn  Zn99  1  0.53396173  0.36772047  0.57766497  1
  Zn  Zn100  1  0.08304668  0.91339282  0.98270297  1
  Zn  Zn101  1  0.78163065  0.03565162  0.58603594  1
  O  O102  1  0.13607139  0.15765956  0.09647658  1
  O  O103  1  0.08109200  0.08503675  0.64568397  1
  O  O104  1  0.11197619  0.63653371  0.13008690  1
  O  O105  1  0.09642633  0.60505571  0.66272383  1
  O  O106  1  0.65024705  0.16101286  0.07422188  1
  O  O107  1  0.58112801  0.12131874  0.56897500  1
  O  O108  1  0.65365791  0.63118840  0.13332391  1
  O  O109  1  0.55444749  0.69493514  0.67043046  1
  O  O110  1  0.39091199  0.39483210  0.35862465  1
  O  O111  1  0.31141760  0.36846460  0.86525862  1
  O  O112  1  0.36207912  0.90078034  0.36551903  1
  O  O113  1  0.38324172  0.89475863  0.82962438  1
  O  O114  1  0.87130242  0.37154140  0.42089450  1
  O  O115  1  0.87893083  0.31219619  0.87718169  1
  O  O116  1  0.84429657  0.89187429  0.40412171  1
  O  O117  1  0.88606510  0.90076722  0.89207828  1
  O  O118  1  0.24777427  0.07011714  0.36907481  1
  O  O119  1  0.29269129  0.01367561  0.87038862  1
  O  O120  1  0.21814121  0.38810850  0.28695243  1
  O  O121  1  0.21265078  0.48111136  0.81265802  1
  O  O122  1  0.74338518  0.01794130  0.38429944  1
  O  O123  1  0.77030351  -0.01745351  0.87174047  1
  O  O124  1  0.76994872  0.50432879  0.38142171  1
  O  O125  1  0.87881773  0.45436430  0.86812258  1
  O  O126  1  0.20647057  0.53069891  0.09461887  1
  O  O127  1  0.21813671  0.51339445  0.62848377  1
  O  O128  1  0.24582529  0.88634548  0.14464996  1
  O  O129  1  0.20644933  1.02117534  0.59913161  1
  O  O130  1  0.81455453  0.52725172  0.18100787  1
  O  O131  1  0.75140071  0.51761486  0.66208346  1
  O  O132  1  0.73950418  1.01963691  0.15687090  1
  O  O133  1  0.78001915  0.95412559  0.66159733  1
  O  O134  1  0.02609758  0.41613225  0.29811652  1
  O  O135  1  -0.02651701  0.32734679  0.72006920  1
  O  O136  1  0.04112496  0.94791621  0.27291069  1
  O  O137  1  -0.02565396  0.88258468  0.74530161  1
  O  O138  1  0.50051898  0.39763069  0.23819639  1
  O  O139  1  0.50746198  0.37363534  0.73832707  1
  O  O140  1  0.52050560  0.90696184  0.26626554  1
  O  O141  1  0.51835112  0.84316546  0.70384565  1
  O  O142  1  0.46434844  0.12718562  0.28047579  1
  O  O143  1  0.45837232  0.14407118  0.66804742  1
  O  O144  1  0.47011178  0.56068209  0.23020653  1
  O  O145  1  0.53685096  0.63278328  0.64843798  1
  O  O146  1  0.94350449  0.13943094  0.27686954  1
  O  O147  1  0.96207038  0.10868303  0.73757159  1
  O  O148  1  1.01672901  0.65986398  0.24722233  1
  O  O149  1  0.97366852  0.65279627  0.74940509  1
  O  O150  1  0.42701515  0.22359975  -0.01753625  1
  O  O151  1  0.47878043  0.19499786  0.45756182  1
  O  O152  1  0.42191551  0.84235981  -0.14796999  1
  O  O153  1  0.35565330  0.74336062  0.51893283  1
  O  O154  1  0.87100769  0.20941012  0.01579085  1
  O  O155  1  0.87881806  0.25523354  0.52628620  1
  O  O156  1  0.86325189  0.78009879  -0.00417577  1
  O  O157  1  0.90680581  0.75529434  0.47717235  1
  O  O158  1  0.06032673  0.26290663  0.49013382  1
  O  O159  1  0.12962217  0.20136813  1.02376365  1
  O  O160  1  0.18308033  0.75525730  0.41080033  1
  O  O161  1  0.13046558  0.80175859  0.99371558  1
  O  O162  1  0.59816402  0.18532873  0.54993644  1
  O  O163  1  0.64254748  0.31362443  0.99112410  1
  O  O164  1  0.61929353  0.77900245  0.51646675  1
  O  O165  1  0.59967286  0.69290310  1.00877913  1
  O  O166  1  0.61605775  0.34186014  0.15681711  1
  O  O167  1  0.47200071  0.28771597  0.61602815  1
  O  O168  1  0.52318188  0.75213707  0.19030188  1
  O  O169  1  0.43788471  0.70124564  0.64229397  1
  O  O170  1  0.97031299  0.23932769  0.13777843  1
  O  O171  1  0.99005690  0.20749954  0.64154151  1
  O  O172  1  1.02776405  0.75276716  0.14998575  1
  O  O173  1  1.02760740  0.72678646  0.61805189  1
  O  O174  1  -0.01481571  0.23430765  0.38930399  1
  O  O175  1  -0.00486955  0.20990067  0.83326431  1
  O  O176  1  0.12585870  0.78096218  0.44103901  1
  O  O177  1  -0.01321704  0.79341881  0.88209433  1
  O  O178  1  0.51278295  0.29323509  0.32970127  1
  O  O179  1  0.52023846  0.32095135  0.88186016  1
  O  O180  1  0.50187100  0.76571766  0.36556279  1
  O  O181  1  0.44364856  0.63757470  0.79088066  1
  O  O182  1  0.28169403  0.15421619  0.50767471  1
  O  O183  1  0.22713474  0.07956752  1.01012332  1
  O  O184  1  0.16000593  0.61545547  0.49922130  1
  O  O185  1  0.30343889  0.76413388  0.89791487  1
  O  O186  1  0.72310891  0.09834074  0.51789442  1
  O  O187  1  0.69111086  0.14763650  1.01773432  1
  O  O188  1  0.70815099  0.66719334  0.61275212  1
  O  O189  1  0.74067759  0.61794806  0.99947396  1
  O  O190  1  0.23062141  0.35640651  0.05109166  1
  O  O191  1  0.22326668  0.39039121  0.46456534  1
  O  O192  1  0.30202727  0.89999939  -0.01519610  1
  O  O193  1  0.24770242  0.89028122  0.52243742  1
  O  O194  1  0.89273369  0.42212552  0.05548587  1
  O  O195  1  0.75598706  0.36643063  0.52190968  1
  O  O196  1  0.83747660  0.88411020  0.14635977  1
  O  O197  1  0.77810169  0.82764595  0.52556571  1
  O  O198  1  0.13764934  0.52049908  0.21721210  1
  O  O199  1  0.08589661  0.45099408  0.71046019  1
  O  O200  1  0.19700364  0.92371674  0.11202587  1
  O  O201  1  0.23775838  0.97542969  0.85236989  1
  O  O202  1  0.68574872  0.52420422  0.26975894  1
  O  O203  1  0.71217734  0.51406933  0.81870312  1
  O  O204  1  0.63108515  1.01603706  0.27572580  1
  O  O205  1  0.66037245  0.97136100  0.75977945  1
  O  O206  1  0.40889375  -0.00390760  0.20010679  1
  O  O207  1  0.43853276  -0.01117590  0.70244845  1
  O  O208  1  0.35435820  0.50282608  0.17721418  1
  O  O209  1  0.37130186  0.46221650  0.75212417  1
  O  O210  1  0.84235657  0.00766468  0.28050359  1
  O  O211  1  0.85431271  0.00812508  0.76744774  1
  O  O212  1  0.88449908  0.51432794  0.30894157  1
  O  O213  1  0.87315839  0.43874132  0.78768973  1
  O  O214  1  0.03005881  0.28337503  0.42352091  1
  O  O215  1  0.15083039  0.31372201  0.79827307  1
  O  O216  1  0.16168517  0.91216131  0.36459734  1
  O  O217  1  0.07629696  0.90917456  0.87384453  1
  O  O218  1  0.69498403  0.36567765  0.36020756  1
  O  O219  1  0.63149317  0.39037828  0.84563350  1
  O  O220  1  0.59393895  0.90691856  0.40090574  1
  O  O221  1  0.56242835  0.79154485  0.88902582  1
  O  O222  1  0.42862525  0.13720448  0.11743655  1
  O  O223  1  0.44096676  0.16079029  0.50715508  1
  O  O224  1  0.38138974  0.62550691  0.12473663  1
  O  O225  1  0.34132947  0.62322899  0.61038637  1
  O  O226  1  0.83964739  0.14956144  0.16601107  1
  O  O227  1  0.85502103  0.10413400  0.64227783  1
  O  O228  1  0.91299251  0.66004087  0.15497881  1
  O  O229  1  0.88302396  0.66033307  0.62630284  1
  O  O230  1  0.30729013  0.23038218  0.08597923  1
  O  O231  1  0.23793527  0.38121819  0.53347432  1
  O  O232  1  0.18987772  0.77450850  0.02255908  1
  O  O233  1  0.24036911  0.71490711  0.60036059  1
  O  O234  1  0.77540339  0.28305402  0.12147355  1
  O  O235  1  0.72324059  0.25790962  0.65134133  1
  O  O236  1  0.76403858  0.75867245  0.21122865  1
  O  O237  1  0.73059221  0.73526618  0.65177009  1
  O  O238  1  0.33120315  0.24148301  0.36507031  1
  O  O239  1  0.19076257  0.36775195  0.99338149  1
  O  O240  1  0.21191024  0.88865141  0.32171380  1
  O  O241  1  0.26068786  0.81571950  0.86375423  1
  O  O242  1  0.73688528  0.22627180  0.42964605  1
  O  O243  1  0.70146256  0.26045876  0.84032811  1
  O  O244  1  0.73740466  0.69104739  0.46519963  1
  O  O245  1  0.70799765  0.79413090  0.93192795  1
  O  O246  1  0.00351818  0.11555636  0.01344454  1
  O  O247  1  -0.02548096  0.10568144  0.52307114  1
  O  O248  1  -0.00301795  0.67073728  0.04629871  1
  O  O249  1  -0.00828541  0.60497496  0.53952324  1
  O  O250  1  0.56730335  -0.00266934  -0.07154615  1
  O  O251  1  0.51772282  0.02609516  0.45884667  1
  O  O252  1  0.44791427  0.60735666  -0.03810285  1
  O  O253  1  0.50752672  0.58578351  0.47423604  1
  O  O254  1  0.51126718  0.38590194  0.45971087  1
  O  O255  1  0.48055351  0.45783701  0.90595365  1
  O  O256  1  0.45485823  0.86965664  0.51697667  1
  O  O257  1  0.52197804  0.85203838  1.04269645  1
  O  O258  1  0.95881966  0.39406339  0.55209570  1
  O  O259  1  0.99566419  0.32087207  0.97682520  1
  O  O260  1  0.96238881  0.89919962  0.49080066  1
  O  O261  1  0.98310835  0.92008444  1.03596971  1
  O  O262  1  0.53046924  0.48462954  0.36473220  1
  O  O263  1  0.54860826  0.50830749  0.78025524  1
  O  O264  1  0.46711072  1.02284679  0.41074579  1
  O  O265  1  0.51647862  0.94926725  0.90265510  1
  O  O266  1  0.98685015  0.50179452  0.44387377  1
  O  O267  1  1.01962109  0.41449474  0.85192906  1
  O  O268  1  0.94851594  1.01199195  0.38974959  1
  O  O269  1  0.96693351  1.00524033  0.87169296  1
  O  O270  1  -0.04799983  0.03014982  0.14447487  1
  O  O271  1  -0.03530492  -0.00245643  0.61088750  1
  O  O272  1  0.01042338  0.55416000  0.14531840  1
  O  O273  1  -0.03747051  0.52570136  0.65130212  1
  O  O274  1  0.58280649  -0.00757618  0.08834923  1
  O  O275  1  0.57390563  -0.02636001  0.60854410  1
  O  O276  1  0.49683696  0.49065111  0.06617559  1
  O  O277  1  0.49845697  0.47356054  0.58510022  1
  O  O278  1  0.12207497  0.27158680  0.20750467  1
  O  O279  1  0.27706812  0.30558272  0.69269345  1
  O  O280  1  0.36140410  0.80859927  0.23079662  1
  O  O281  1  0.23800591  0.89606682  0.68631123  1
  O  O282  1  0.77904127  0.42208632  0.25834332  1
  O  O283  1  0.74689199  0.38742102  0.73566721  1
  O  O284  1  0.72506291  0.91204613  0.27106383  1
  O  O285  1  0.75320567  0.85029830  0.78458808  1
  O  O286  1  0.30323084  0.10965887  0.20344412  1
  O  O287  1  0.31418877  0.08866131  0.69265991  1
  O  O288  1  0.28598987  0.64628395  0.21967668  1
  O  O289  1  0.14302068  0.64784183  0.81397880  1
  O  O290  1  0.74401404  0.12216221  0.27611204  1
  O  O291  1  0.74413598  0.11523337  0.74905839  1
  O  O292  1  0.78237121  0.61734089  0.28150205  1
  O  O293  1  0.83867866  0.57495971  0.77231589  1
  O  O294  1  0.32254343  0.08267795  0.35930790  1
  O  O295  1  0.42752404  0.10129354  0.82168420  1
  O  O296  1  0.33591428  0.55048133  0.30509565  1
  O  O297  1  0.27986338  0.69173663  0.88466129  1
  O  O298  1  0.83774022  0.13036182  0.38947661  1
  O  O299  1  0.85872437  0.11047014  0.86633248  1
  O  O300  1  1.04580445  0.63428686  0.39514576  1
  O  O301  1  0.92418379  0.62855030  0.90240633  1
  O  O302  1  0.09306065  0.43869758  0.12016264  1
  O  O303  1  0.12898549  0.30842247  0.63314982  1
  O  O304  1  0.06975079  0.91587975  0.21563107  1
  O  O305  1  0.10482158  0.88233048  0.60418008  1
  O  O306  1  0.67057221  0.49496713  0.06721038  1
  O  O307  1  0.63768401  0.37758512  0.61504732  1
  O  O308  1  0.68061825  0.86492286  0.12432416  1
  O  O309  1  0.58681539  0.83593566  0.71425319  1
  O  O310  1  0.08425868  0.27263233  0.26729439  1
  O  O311  1  0.17331593  0.18171957  0.72894826  1
  O  O312  1  0.17263002  0.76040264  0.23020952  1
  O  O313  1  0.13561139  0.76401883  0.74255537  1
  O  O314  1  0.60902224  0.21910447  0.24024734  1
  O  O315  1  0.57541005  0.22227254  0.72767871  1
  O  O316  1  0.63116878  0.80960883  0.28866358  1
  O  O317  1  0.65378788  0.67917392  0.82948539  1
  O  O318  1  0.47699523  0.26045845  0.16736711  1
  O  O319  1  0.42315115  0.24983313  0.78005394  1
  O  O320  1  0.41895449  0.66803938  0.26771704  1
  O  O321  1  0.30949006  0.73426516  0.71673719  1
  O  O322  1  0.83900227  0.25412624  0.28940089  1
  O  O323  1  0.85916464  0.21914040  0.75128094  1
  O  O324  1  0.99696925  0.79933547  0.33583848  1
  O  O325  1  0.83185560  0.72615062  0.81769602  1
  O  O326  1  0.30821020  0.54870792  0.46910765  1
  O  O327  1  0.32297178  0.51766103  0.91268302  1
  O  O328  1  0.37345807  0.99116351  0.54154419  1
  O  O329  1  0.43130259  0.97606982  1.03331681  1
  O  O330  1  0.85885083  0.51831114  0.53323096  1
  O  O331  1  0.92227797  0.45257579  0.99554006  1
  O  O332  1  0.84905040  1.00400748  0.49972326  1
  O  O333  1  0.87746670  1.02371967  1.00526892  1
  O  O334  1  0.08962837  0.00880159  0.03770990  1
  O  O335  1  0.07602461  -0.00299056  0.48419739  1
  O  O336  1  0.09138063  0.53475365  0.02117730  1
  O  O337  1  0.08424871  0.49068595  0.54741265  1
  O  O338  1  0.71581122  -0.03198745  0.00964351  1
  O  O339  1  0.62734249  -0.05655084  0.57613013  1
  O  O340  1  0.59620023  0.55635850  -0.05051050  1
  O  O341  1  0.63346275  0.49975422  0.48986532  1
  O  O342  1  0.40401696  0.34362099  0.08217678  1
  O  O343  1  0.36552127  0.51210467  0.48866750  1
  O  O344  1  0.33295019  0.85023232  0.02127493  1
  O  O345  1  0.37114945  0.82174171  0.63135105  1
  O  O346  1  0.92814569  0.30529779  0.14400307  1
  O  O347  1  0.83910123  0.36671346  0.62812357  1
  O  O348  1  0.93734546  0.80836039  0.29986738  1
  O  O349  1  0.90469041  0.84077107  0.61131955  1
  O  O350  1  0.18220844  0.20589791  0.39578559  1
  O  O351  1  0.11486775  0.09633711  0.89857803  1
  O  O352  1  0.13848572  0.51202291  0.38736319  1
  O  O353  1  0.11641060  0.71121463  0.81770718  1
  O  O354  1  0.62944893  0.12448372  0.39234774  1
  O  O355  1  0.57693266  0.19614049  0.90329043  1
  O  O356  1  0.60650592  0.65811343  0.29441844  1
  O  O357  1  0.47147180  0.70102551  0.79599142  1
