# generated using pymatgen
data_V51Zn51O256
_symmetry_space_group_name_H-M   'P 1'
_cell_length_a   18.03818309
_cell_length_b   17.41626619
_cell_length_c   17.81900157
_cell_angle_alpha   87.56642520
_cell_angle_beta   90.84971788
_cell_angle_gamma   90.21574562
_symmetry_Int_Tables_number   1
_chemical_formula_structural   V51Zn51O256
_chemical_formula_sum   'V51 Zn51 O256'
_cell_volume   5592.28700320
_cell_formula_units_Z   1
loop_
 _symmetry_equiv_pos_site_id
 _symmetry_equiv_pos_as_xyz
  1  'x, y, z'
loop_
 _atom_site_type_symbol
 _atom_site_label
 _atom_site_symmetry_multiplicity
 _atom_site_fract_x
 _atom_site_fract_y
 _atom_site_fract_z
 _atom_site_occupancy
  V  V0  1  -0.03772201  0.85912865  0.88297168  1
  V  V1  1  0.32131397  0.15556013  0.25110392  1
  V  V2  1  0.64723664  0.12728551  0.50834510  1
  V  V3  1  0.51236949  0.23992285  0.73346425  1
  V  V4  1  0.69176654  0.29160728  0.40362523  1
  V  V5  1  -0.02092887  -0.00976101  0.00132462  1
  V  V6  1  0.24320611  0.27152047  0.56473800  1
  V  V7  1  -0.03619674  0.18724963  0.25703522  1
  V  V8  1  0.50459071  0.93303087  0.40726849  1
  V  V9  1  0.24058704  0.11738124  0.81024799  1
  V  V10  1  0.26008984  0.51826809  0.71737337  1
  V  V11  1  0.75141179  0.08290487  0.38836522  1
  V  V12  1  0.85237925  0.58456827  0.75543812  1
  V  V13  1  0.37412004  0.19932289  0.04939775  1
  V  V14  1  0.88215835  0.88947422  0.52279018  1
  V  V15  1  0.32625432  0.36753799  -0.03543638  1
  V  V16  1  0.12133232  0.74589818  0.83987796  1
  V  V17  1  0.90014229  0.33388145  0.04652444  1
  V  V18  1  -0.01882767  0.48915281  0.06250384  1
  V  V19  1  0.72293515  0.50986382  0.22725460  1
  V  V20  1  0.31255146  0.87155968  0.14574993  1
  V  V21  1  0.14714893  0.63061068  0.50311873  1
  V  V22  1  0.51115151  0.12277698  0.62737843  1
  V  V23  1  0.69599027  0.70697575  0.02010398  1
  V  V24  1  0.02553170  0.42278555  0.33938720  1
  V  V25  1  0.79177387  0.01584543  0.77088913  1
  V  V26  1  0.52571349  0.15172943  0.17126202  1
  V  V27  1  0.86584607  0.49961331  0.91576215  1
  V  V28  1  0.24384228  0.71348333  0.02866612  1
  V  V29  1  0.57038203  0.58980787  -0.00451903  1
  V  V30  1  0.15597067  -0.02264145  0.09056233  1
  V  V31  1  0.11912682  0.87341603  0.23517083  1
  V  V32  1  -0.01218267  0.36024827  0.87555583  1
  V  V33  1  0.09587449  0.43454208  0.69150780  1
  V  V34  1  0.00039631  0.89376892  0.37273927  1
  V  V35  1  0.00044335  0.10401602  0.59843723  1
  V  V36  1  0.25971160  0.41941438  0.28284848  1
  V  V37  1  0.88095088  0.26888567  0.58372383  1
  V  V38  1  0.90834140  0.73204984  0.62946192  1
  V  V39  1  0.69115646  -0.00169295  0.62577504  1
  V  V40  1  0.54449888  0.32870292  0.87198715  1
  V  V41  1  0.73074370  0.30316976  0.07777285  1
  V  V42  1  0.73763099  0.77036350  0.54114175  1
  V  V43  1  0.18430174  0.82428956  0.40226790  1
  V  V44  1  0.67454651  0.34114258  0.75440455  1
  V  V45  1  0.38403976  0.45413429  0.40546141  1
  V  V46  1  0.27321223  0.67332503  0.39381149  1
  V  V47  1  0.52179915  0.70321077  0.22173934  1
  V  V48  1  0.88003097  0.16596418  0.77824608  1
  V  V49  1  0.21159288  0.59790996  0.88343897  1
  V  V50  1  0.50968153  0.61325697  0.67462552  1
  Zn  Zn51  1  0.08257016  0.82090773  0.04057125  1
  Zn  Zn52  1  0.41160935  1.02501626  0.14887938  1
  Zn  Zn53  1  0.31716629  0.08331754  0.60037793  1
  Zn  Zn54  1  1.02497405  0.76155689  0.49389319  1
  Zn  Zn55  1  0.04855579  0.33369046  0.55534947  1
  Zn  Zn56  1  0.31467912  0.27690042  0.38392670  1
  Zn  Zn57  1  0.39644850  0.23169113  0.85147474  1
  Zn  Zn58  1  0.55735325  0.94537399  0.57793354  1
  Zn  Zn59  1  0.02314633  0.24795193  0.71676968  1
  Zn  Zn60  1  -0.01205494  0.05875663  0.83647557  1
  Zn  Zn61  1  0.67945617  0.49081464  0.41734411  1
  Zn  Zn62  1  0.58383738  0.03321677  0.76221212  1
  Zn  Zn63  1  0.06949244  0.09837872  0.41228596  1
  Zn  Zn64  1  0.77923210  0.61532255  0.60634938  1
  Zn  Zn65  1  0.24022312  0.71486975  0.22348788  1
  Zn  Zn66  1  0.35827519  0.58513854  0.55147182  1
  Zn  Zn67  1  0.92750031  0.18095613  0.43162325  1
  Zn  Zn68  1  0.15397708  0.94474122  0.88481356  1
  Zn  Zn69  1  0.11993809  0.62685628  0.70334226  1
  Zn  Zn70  1  0.81412873  0.81550540  0.78475070  1
  Zn  Zn71  1  0.67197892  0.97015694  0.91286941  1
  Zn  Zn72  1  0.94299927  0.18648055  0.94793466  1
  Zn  Zn73  1  0.93548680  0.94805530  0.70451901  1
  Zn  Zn74  1  0.54075472  0.53221025  0.31676119  1
  Zn  Zn75  1  0.68115642  0.70738587  0.72277441  1
  Zn  Zn76  1  0.74660028  0.34098097  0.90389081  1
  Zn  Zn77  1  0.13991098  0.56484601  0.29268575  1
  Zn  Zn78  1  0.97837632  0.72765770  0.78206143  1
  Zn  Zn79  1  0.73515735  0.18522474  0.66597380  1
  Zn  Zn80  1  0.37586770  0.80560182  0.31864529  1
  Zn  Zn81  1  0.57191811  0.09236244  0.32896705  1
  Zn  Zn82  1  0.19956706  0.44789844  0.44786945  1
  Zn  Zn83  1  0.02742013  0.55527988  0.83022530  1
  Zn  Zn84  1  0.39697561  0.07612226  0.36279889  1
  Zn  Zn85  1  0.20464541  0.17259070  0.13313488  1
  Zn  Zn86  1  0.26805889  0.09312759  0.01585785  1
  Zn  Zn87  1  0.35747336  0.33980455  0.15090473  1
  Zn  Zn88  1  0.84986749  0.34573801  0.30779192  1
  Zn  Zn89  1  0.17026994  1.02904856  0.29886488  1
  Zn  Zn90  1  0.87897171  1.00213586  0.37955110  1
  Zn  Zn91  1  1.02086767  1.03673543  0.18189793  1
  Zn  Zn92  1  0.82673744  -0.04524783  -0.04355884  1
  Zn  Zn93  1  0.85929795  0.37128427  0.72477043  1
  Zn  Zn94  1  0.68384069  0.21794802  0.23245841  1
  Zn  Zn95  1  0.14003589  0.42693973  0.95912840  1
  Zn  Zn96  1  0.54522616  0.29019203  0.07117999  1
  Zn  Zn97  1  0.42532087  0.46441922  0.78623531  1
  Zn  Zn98  1  0.32801359  0.70964679  0.87321591  1
  Zn  Zn99  1  0.04661611  0.32821221  0.17062135  1
  Zn  Zn100  1  0.68281990  0.91741020  0.45657347  1
  Zn  Zn101  1  0.83938143  0.07376704  0.55475529  1
  O  O102  1  0.18006090  0.07834213  0.08147171  1
  O  O103  1  0.06127746  0.15507899  0.65051313  1
  O  O104  1  0.07869429  0.68011186  0.14560619  1
  O  O105  1  0.14888432  0.63420068  0.59867806  1
  O  O106  1  0.61306465  0.18534962  0.15290257  1
  O  O107  1  0.67501078  0.11190171  0.60836072  1
  O  O108  1  0.57826695  0.57126294  0.09020700  1
  O  O109  1  0.58326838  0.67198566  0.69715693  1
  O  O110  1  0.38501719  0.35463980  0.41514684  1
  O  O111  1  0.34755953  0.32218477  0.88222308  1
  O  O112  1  0.43920032  0.88265734  0.35861067  1
  O  O113  1  0.32749242  0.86623988  0.87765816  1
  O  O114  1  0.92972558  0.41182259  0.34016969  1
  O  O115  1  0.91332209  0.37100471  0.95586238  1
  O  O116  1  0.91057579  0.91153105  0.33743288  1
  O  O117  1  0.87768305  0.81467081  0.88071372  1
  O  O118  1  0.34173318  0.05760840  0.49036924  1
  O  O119  1  0.23673640  0.01519440  0.84318585  1
  O  O120  1  0.28526220  0.46828324  0.37131356  1
  O  O121  1  0.18979380  0.50449433  0.89319480  1
  O  O122  1  0.75391923  -0.01447561  0.38683104  1
  O  O123  1  0.76856381  0.01099040  0.86283142  1
  O  O124  1  0.73016334  0.53418119  0.32670874  1
  O  O125  1  0.79005679  0.44154138  0.91611499  1
  O  O126  1  0.22646497  0.47479889  0.09105250  1
  O  O127  1  0.30389702  0.55432817  0.64052458  1
  O  O128  1  0.24112347  0.94617681  0.14109571  1
  O  O129  1  0.22551748  1.00750690  0.59377370  1
  O  O130  1  0.70482482  0.45903282  0.14978847  1
  O  O131  1  0.76616534  0.50448562  0.56063867  1
  O  O132  1  0.69247853  0.87986990  0.26350947  1
  O  O133  1  0.78491222  0.99462948  0.61499238  1
  O  O134  1  0.05427574  0.38020935  0.26111451  1
  O  O135  1  -0.05088884  0.35144839  0.78798683  1
  O  O136  1  0.03115253  0.86834908  0.27535990  1
  O  O137  1  -0.01985245  0.89299382  0.79294633  1
  O  O138  1  0.50852175  0.36039493  0.23121918  1
  O  O139  1  0.56215130  0.32783292  0.74782448  1
  O  O140  1  0.55019783  0.78733395  0.17758575  1
  O  O141  1  0.42025454  0.95363989  0.80885695  1
  O  O142  1  0.51177147  0.16298274  0.26604977  1
  O  O143  1  0.52838260  0.13248010  0.73640769  1
  O  O144  1  0.50444689  0.59319814  0.23300737  1
  O  O145  1  0.42340570  0.79864883  0.77048787  1
  O  O146  1  0.94603253  0.09330492  0.22456064  1
  O  O147  1  0.98089895  0.16616667  0.78290911  1
  O  O148  1  1.06507863  0.65186330  0.21220799  1
  O  O149  1  0.94462469  0.62133819  0.77783813  1
  O  O150  1  0.40103084  0.19210436  -0.03911795  1
  O  O151  1  0.33570431  0.28979557  0.57866001  1
  O  O152  1  0.32678251  0.72450307  -0.02232046  1
  O  O153  1  0.36291442  0.84140711  0.54943683  1
  O  O154  1  0.91281828  0.23812314  0.04345235  1
  O  O155  1  0.90227779  0.26717726  0.48754857  1
  O  O156  1  0.78533786  0.68496454  0.03076351  1
  O  O157  1  0.85466025  0.76358315  0.55260623  1
  O  O158  1  0.14208004  0.27504034  0.55309985  1
  O  O159  1  0.11860250  0.36114920  1.08735416  1
  O  O160  1  0.21042100  0.87491888  0.47146718  1
  O  O161  1  0.16779413  0.77151140  1.00391299  1
  O  O162  1  0.66395615  0.22546393  0.48531479  1
  O  O163  1  0.61471866  0.13506239  0.97077426  1
  O  O164  1  0.66154940  0.80800715  0.49429333  1
  O  O165  1  0.59036818  0.69606187  1.00864225  1
  O  O166  1  0.47015515  0.21178418  0.10351752  1
  O  O167  1  0.52445512  0.22594881  0.63183234  1
  O  O168  1  0.44751056  0.69558776  0.15848058  1
  O  O169  1  0.44845983  0.81153792  0.70501122  1
  O  O170  1  1.03085594  0.22084989  0.19547015  1
  O  O171  1  0.98121822  0.27527051  0.61717917  1
  O  O172  1  1.03168176  0.73446191  0.11948284  1
  O  O173  1  0.99816249  0.74197537  0.60132585  1
  O  O174  1  0.00021138  0.17280233  0.35071115  1
  O  O175  1  0.00832030  0.26919131  0.91030854  1
  O  O176  1  0.07850699  0.82450017  0.41098033  1
  O  O177  1  0.02023908  0.76714613  0.87869270  1
  O  O178  1  0.48069831  0.39782506  0.56235377  1
  O  O179  1  0.51043672  0.23480789  0.84655707  1
  O  O180  1  0.56341193  0.70812270  0.31422428  1
  O  O181  1  0.47711389  0.82977114  0.91017488  1
  O  O182  1  0.24528939  0.17118811  0.58826134  1
  O  O183  1  0.23517922  0.11718582  0.91406650  1
  O  O184  1  0.26753953  0.62883971  0.48742493  1
  O  O185  1  0.21145512  0.62784992  0.98107740  1
  O  O186  1  0.75943792  0.10816554  0.48402990  1
  O  O187  1  0.80355837  0.11531073  1.08072827  1
  O  O188  1  0.73953891  0.67256985  0.52154035  1
  O  O189  1  0.67415983  0.60284803  0.98699084  1
  O  O190  1  0.23024940  0.37036321  -0.02539062  1
  O  O191  1  0.23507757  0.36661061  0.51866090  1
  O  O192  1  0.29664911  0.82088695  0.07071023  1
  O  O193  1  0.30873071  1.00400252  0.38233869  1
  O  O194  1  0.73932925  0.26861921  -0.01120362  1
  O  O195  1  0.76919608  0.50585664  0.48862618  1
  O  O196  1  0.69154148  0.79658193  0.04796987  1
  O  O197  1  0.78670561  0.87164696  0.50152329  1
  O  O198  1  0.18594654  0.47310490  0.25004717  1
  O  O199  1  0.06628969  0.52153195  0.73227918  1
  O  O200  1  0.11659096  0.99289129  0.21337628  1
  O  O201  1  0.07631329  1.00319097  0.83950303  1
  O  O202  1  0.62757310  0.48569757  0.26456056  1
  O  O203  1  0.66126617  0.45084446  0.71747014  1
  O  O204  1  0.66313019  1.06191143  0.26640505  1
  O  O205  1  0.69368938  1.01415556  0.72956908  1
  O  O206  1  0.37321660  0.07212427  0.24327866  1
  O  O207  1  0.31424167  -0.07967590  0.68872221  1
  O  O208  1  0.32713302  0.41468086  0.21475204  1
  O  O209  1  0.32177998  0.47174773  0.77570726  1
  O  O210  1  0.81987758  -0.00673026  0.20123647  1
  O  O211  1  0.89550239  0.04878861  0.77420714  1
  O  O212  1  0.80190985  0.56244207  0.20472228  1
  O  O213  1  0.85613068  0.49262814  0.73183541  1
  O  O214  1  0.11325703  0.38170609  0.40398820  1
  O  O215  1  0.07252027  0.40401144  0.87433330  1
  O  O216  1  0.17786436  0.89945268  0.31861315  1
  O  O217  1  0.14351036  0.84285356  0.84827114  1
  O  O218  1  0.66505555  0.38204734  0.42498067  1
  O  O219  1  0.64427835  0.34860658  0.85758337  1
  O  O220  1  0.59457216  0.91557901  0.38551744  1
  O  O221  1  0.53768289  0.84297811  0.88026570  1
  O  O222  1  0.36474604  0.09350130  0.07191763  1
  O  O223  1  0.41871665  0.11250996  0.61613051  1
  O  O224  1  0.26578526  0.53074456  0.09896238  1
  O  O225  1  0.44518894  0.63412437  0.60482149  1
  O  O226  1  0.75800041  -0.01916480  0.17656218  1
  O  O227  1  0.90847124  0.13942200  0.60753512  1
  O  O228  1  0.94702296  0.68904230  0.01009094  1
  O  O229  1  0.88477603  0.63333581  0.63956729  1
  O  O230  1  0.27325495  0.20537111  0.04644564  1
  O  O231  1  0.22836014  0.29790091  0.65556758  1
  O  O232  1  0.24795473  0.68200494  0.12280454  1
  O  O233  1  0.31744545  0.80944586  0.59051026  1
  O  O234  1  0.75337115  0.24307759  0.15324181  1
  O  O235  1  0.79413897  0.22436047  0.58568801  1
  O  O236  1  0.68300172  0.67488324  0.11122918  1
  O  O237  1  0.72241032  0.76894347  0.63502321  1
  O  O238  1  0.25430613  0.23786533  0.47008133  1
  O  O239  1  0.23158439  0.21652196  0.79492102  1
  O  O240  1  0.28180300  0.78032090  0.37435681  1
  O  O241  1  0.21440409  0.71623897  0.84733446  1
  O  O242  1  0.78362695  0.29626596  0.38239218  1
  O  O243  1  0.64956153  0.15239641  0.91400118  1
  O  O244  1  0.81797616  0.71337325  0.36627562  1
  O  O245  1  0.70761540  0.74095297  0.93013718  1
  O  O246  1  -0.01473988  0.08212709  -0.05018192  1
  O  O247  1  0.01048724  0.11737120  0.49738288  1
  O  O248  1  -0.00746947  0.64028796  -0.00518752  1
  O  O249  1  0.05719737  0.65876572  0.47900834  1
  O  O250  1  0.52336390  -0.01661815  -0.00093191  1
  O  O251  1  0.55124591  0.12424636  0.52965005  1
  O  O252  1  0.47827299  0.60340515  0.00392978  1
  O  O253  1  0.56701661  0.52759061  0.62397896  1
  O  O254  1  0.46686419  0.39138528  0.63195778  1
  O  O255  1  0.54016907  0.31608747  0.96656695  1
  O  O256  1  0.49156900  0.91765370  0.50320490  1
  O  O257  1  0.33396238  0.89705993  0.93807386  1
  O  O258  1  1.04604791  0.37391567  0.44366536  1
  O  O259  1  0.96772594  0.38440972  1.10327169  1
  O  O260  1  0.95390029  0.84735540  0.46415472  1
  O  O261  1  1.01653290  0.88760184  0.97893310  1
  O  O262  1  0.45074528  0.48205563  0.34203769  1
  O  O263  1  0.48895129  0.40621227  0.85039688  1
  O  O264  1  0.49230769  1.03516372  0.38122733  1
  O  O265  1  0.43769518  0.99056106  0.86355614  1
  O  O266  1  1.05104170  0.51879545  0.33169111  1
  O  O267  1  0.94873431  0.48052605  0.86935564  1
  O  O268  1  1.03241492  0.98153059  0.38957826  1
  O  O269  1  0.92083341  0.95541360  0.91137269  1
  O  O270  1  0.04595086  0.00752629  0.07849308  1
  O  O271  1  -0.00047314  0.01275526  0.63900963  1
  O  O272  1  -0.00951702  0.54293829  0.13426261  1
  O  O273  1  -0.06226328  0.52523704  0.53871551  1
  O  O274  1  0.51623279  0.05714768  0.15127325  1
  O  O275  1  0.54618133  0.02477675  0.65379490  1
  O  O276  1  0.48585410  0.36208936  0.16434430  1
  O  O277  1  0.47758011  0.55856777  0.74790054  1
  O  O278  1  0.23990149  0.32763493  0.31559346  1
  O  O279  1  0.19388054  0.44947079  0.68253505  1
  O  O280  1  0.31187994  0.80618554  0.22562026  1
  O  O281  1  0.12350172  0.88958303  0.62657740  1
  O  O282  1  0.77351095  0.42439348  0.25859122  1
  O  O283  1  0.76674631  0.35124102  0.78845464  1
  O  O284  1  0.73897612  0.83885790  0.29627581  1
  O  O285  1  0.82357139  0.92431336  0.74838335  1
  O  O286  1  0.22930251  0.12924105  0.23535319  1
  O  O287  1  0.26616941  0.08429503  0.72329986  1
  O  O288  1  0.21934925  0.63964540  0.31109844  1
  O  O289  1  0.20989108  0.59080287  0.76120606  1
  O  O290  1  0.72182331  0.11126412  0.28285545  1
  O  O291  1  0.78865983  0.12073406  0.74026348  1
  O  O292  1  0.68059747  0.59071900  0.18959221  1
  O  O293  1  0.76483992  0.62144673  0.71733590  1
  O  O294  1  0.34297456  0.17697116  0.34665178  1
  O  O295  1  0.33795608  0.13849559  0.82550292  1
  O  O296  1  0.35858361  0.64888878  0.37612209  1
  O  O297  1  0.30667088  0.60019398  0.87107789  1
  O  O298  1  0.84955664  0.10915378  0.37364136  1
  O  O299  1  0.86098630  0.18299348  0.87041928  1
  O  O300  1  0.85618388  0.73077197  0.31154493  1
  O  O301  1  0.83024107  0.57914409  0.85775183  1
  O  O302  1  0.18262571  0.32458493  0.10318002  1
  O  O303  1  0.06346811  0.43306778  0.60048672  1
  O  O304  1  0.10960845  0.88168035  0.13029563  1
  O  O305  1  0.17880078  0.85349586  0.64698383  1
  O  O306  1  0.64162311  0.33352047  0.08921279  1
  O  O307  1  0.68121605  0.40405798  0.66293582  1
  O  O308  1  0.73226184  0.93896386  -0.00768928  1
  O  O309  1  0.64912951  0.90979369  0.63268609  1
  O  O310  1  0.17549279  0.27504323  0.16575807  1
  O  O311  1  0.08347384  0.34189503  0.72793296  1
  O  O312  1  0.15183850  0.78209105  0.23887219  1
  O  O313  1  0.08881439  0.72839207  0.74600953  1
  O  O314  1  0.64912709  0.26369636  0.32107566  1
  O  O315  1  0.67602180  0.25047640  0.72198694  1
  O  O316  1  0.60096498  0.66864220  0.18534842  1
  O  O317  1  0.72128533  0.77031051  0.79722663  1
  O  O318  1  0.34515460  0.22894796  0.18802884  1
  O  O319  1  0.42108642  0.25754749  0.73575535  1
  O  O320  1  0.45393561  0.73858327  0.28638882  1
  O  O321  1  0.38215088  0.73108867  0.77986654  1
  O  O322  1  0.89361918  0.25449390  0.25928821  1
  O  O323  1  0.86492712  0.24616996  0.72068821  1
  O  O324  1  0.81340384  0.82154583  0.15979383  1
  O  O325  1  0.89322343  0.76799285  0.72127796  1
  O  O326  1  0.38687054  0.50192688  0.48711547  1
  O  O327  1  0.36067091  0.45473886  0.96274481  1
  O  O328  1  0.29133161  1.01320458  0.45439230  1
  O  O329  1  0.46644904  0.94506356  1.00375403  1
  O  O330  1  0.92307410  0.48324035  0.48737811  1
  O  O331  1  0.89539369  0.52016106  1.00986832  1
  O  O332  1  0.88739095  0.98756489  0.49351714  1
  O  O333  1  0.90036987  0.98854594  1.04991409  1
  O  O334  1  0.16772628  -0.04643456  -0.00035643  1
  O  O335  1  0.17038366  0.02781545  0.55406545  1
  O  O336  1  0.06181867  0.48400156  0.01490948  1
  O  O337  1  0.14938922  0.53770488  0.47167384  1
  O  O338  1  0.74189376  0.08873204  0.06916952  1
  O  O339  1  0.65151194  0.00660109  0.52337558  1
  O  O340  1  0.57591424  0.49568714  -0.01963076  1
  O  O341  1  0.60179502  0.55064613  0.56587410  1
  O  O342  1  0.37326273  0.31433726  0.04886744  1
  O  O343  1  0.41944385  0.43975222  0.66009184  1
  O  O344  1  0.39747786  0.91688878  0.14339480  1
  O  O345  1  0.35804520  0.96822796  0.66037086  1
  O  O346  1  0.81339245  0.36664535  0.07663355  1
  O  O347  1  0.85929896  0.36055147  0.61269938  1
  O  O348  1  0.85372627  0.83272330  0.10448287  1
  O  O349  1  0.91017133  0.88734009  0.61379239  1
  O  O350  1  0.16522602  0.08536695  0.38359719  1
  O  O351  1  0.14606239  0.12069471  0.79001934  1
  O  O352  1  0.17651277  0.72198285  0.43851319  1
  O  O353  1  0.10134728  0.63371555  0.86754923  1
  O  O354  1  0.64884099  0.10369702  0.40537179  1
  O  O355  1  0.58959046  -0.01238366  0.85763910  1
  O  O356  1  0.59694660  0.55514524  0.40155872  1
  O  O357  1  0.55549099  0.60790380  0.89777675  1
