# generated using pymatgen
data_V51Zn51O256
_symmetry_space_group_name_H-M   'P 1'
_cell_length_a   17.62859759
_cell_length_b   17.71240555
_cell_length_c   17.15015545
_cell_angle_alpha   88.12991851
_cell_angle_beta   89.11136260
_cell_angle_gamma   89.52110148
_symmetry_Int_Tables_number   1
_chemical_formula_structural   V51Zn51O256
_chemical_formula_sum   'V51 Zn51 O256'
_cell_volume   5351.38699937
_cell_formula_units_Z   1
loop_
 _symmetry_equiv_pos_site_id
 _symmetry_equiv_pos_as_xyz
  1  'x, y, z'
loop_
 _atom_site_type_symbol
 _atom_site_label
 _atom_site_symmetry_multiplicity
 _atom_site_fract_x
 _atom_site_fract_y
 _atom_site_fract_z
 _atom_site_occupancy
  V  V0  1  0.68688417  0.61800286  0.01193447  1
  V  V1  1  0.65259042  0.20531204  -0.07501786  1
  V  V2  1  0.25071772  0.23102664  0.52158201  1
  V  V3  1  0.75020128  0.86583891  0.10643929  1
  V  V4  1  0.22495677  0.65218425  0.84262554  1
  V  V5  1  0.02598639  0.14342048  0.14060193  1
  V  V6  1  0.27047165  -0.03524616  0.74658590  1
  V  V7  1  0.36261183  0.76069335  0.65863123  1
  V  V8  1  0.65233888  0.88301025  0.77931301  1
  V  V9  1  0.57038747  0.32376214  0.19923441  1
  V  V10  1  0.71349249  0.63426887  0.41254755  1
  V  V11  1  0.14338295  0.25822561  0.36010497  1
  V  V12  1  0.46838807  0.09728463  0.63426592  1
  V  V13  1  0.87158136  0.65159177  0.74166450  1
  V  V14  1  0.14027708  0.39623452  0.24392141  1
  V  V15  1  -0.02643083  0.47158856  -0.01680400  1
  V  V16  1  0.54082471  0.76505172  0.75106936  1
  V  V17  1  0.34634129  0.42551146  -0.02372829  1
  V  V18  1  0.71573152  0.53430709  0.72974516  1
  V  V19  1  0.54489100  0.71845595  0.22844346  1
  V  V20  1  0.00182437  0.62890530  0.63121037  1
  V  V21  1  0.38620063  0.87996039  -0.02810540  1
  V  V22  1  0.02322255  0.22864123  0.74196286  1
  V  V23  1  0.84943819  0.14860500  0.23084658  1
  V  V24  1  0.36812677  0.58994735  0.75004274  1
  V  V25  1  0.31588323  0.74883688  0.04675042  1
  V  V26  1  0.12903526  0.09394704  0.47601047  1
  V  V27  1  0.76072143  0.89605994  0.62320518  1
  V  V28  1  0.25292693  0.72028696  0.49428459  1
  V  V29  1  0.48060482  0.20826978  0.76785439  1
  V  V30  1  0.51441130  0.44158687  0.89899786  1
  V  V31  1  0.51188930  0.07695855  0.14635501  1
  V  V32  1  0.61760463  -0.00006361  0.65029707  1
  V  V33  1  0.27777794  0.86029144  0.20118167  1
  V  V34  1  0.30427011  0.20208211  0.08096098  1
  V  V35  1  0.94937715  0.53316205  0.39382024  1
  V  V36  1  0.90719847  0.64099073  0.26441412  1
  V  V37  1  0.00736150  0.80971166  0.89147572  1
  V  V38  1  0.87842441  0.05016194  0.89151483  1
  V  V39  1  0.46807063  0.36781399  0.33804723  1
  V  V40  1  0.53783764  -0.06225466  0.46028028  1
  V  V41  1  0.37779504  0.86778825  0.50730293  1
  V  V42  1  0.59672573  0.24033947  0.34618555  1
  V  V43  1  0.75968461  0.80058240  0.46864984  1
  V  V44  1  0.23676529  0.42057452  0.10312907  1
  V  V45  1  0.92777722  0.36979647  0.48927982  1
  V  V46  1  -0.02371981  0.09089470  0.57283562  1
  V  V47  1  0.08571567  -0.03943817  0.61906915  1
  V  V48  1  0.35576689  0.38449804  0.57209760  1
  V  V49  1  -0.00610075  0.27846875  0.25026479  1
  V  V50  1  0.60522699  0.13893295  0.51196118  1
  Zn  Zn51  1  0.77207546  0.11163230  0.60606425  1
  Zn  Zn52  1  0.90315601  0.97387412  0.19850984  1
  Zn  Zn53  1  0.08020730  0.58295296  0.26971682  1
  Zn  Zn54  1  0.18715669  0.62203975  0.65424815  1
  Zn  Zn55  1  0.54120148  0.59228079  0.79598508  1
  Zn  Zn56  1  0.61558001  0.80465641  0.58055522  1
  Zn  Zn57  1  0.71398831  1.00258446  0.48807816  1
  Zn  Zn58  1  0.26756156  0.58263605  0.02024357  1
  Zn  Zn59  1  0.86614073  0.59234490  0.08221525  1
  Zn  Zn60  1  0.99609798  0.19237682  0.95803485  1
  Zn  Zn61  1  0.85034472  0.83940240  0.78764362  1
  Zn  Zn62  1  0.69701068  0.38272120  0.86906064  1
  Zn  Zn63  1  0.36262366  0.01332163  0.08258981  1
  Zn  Zn64  1  0.44920797  0.87994805  0.16149837  1
  Zn  Zn65  1  0.67832401  0.15942119  0.16542900  1
  Zn  Zn66  1  0.54636227  0.07265019  0.83716515  1
  Zn  Zn67  1  0.15834831  0.48703036  0.90869943  1
  Zn  Zn68  1  0.11342908  0.28464857  0.07177253  1
  Zn  Zn69  1  0.33931894  0.80524999  0.34424536  1
  Zn  Zn70  1  0.15665260  0.72494436  0.13266847  1
  Zn  Zn71  1  0.50512123  0.27258710  0.57923442  1
  Zn  Zn72  1  0.67427113  0.20308460  0.76050881  1
  Zn  Zn73  1  0.07671104  0.76521618  0.56453573  1
  Zn  Zn74  1  0.41586054  0.72221796  0.88398381  1
  Zn  Zn75  1  0.40733119  0.32303409  0.14399944  1
  Zn  Zn76  1  0.17923583  0.12018817  0.66597445  1
  Zn  Zn77  1  0.26786625  0.27380624  0.25008622  1
  Zn  Zn78  1  0.92554322  0.42027347  0.27942902  1
  Zn  Zn79  1  0.46054906  0.18667310  0.97213562  1
  Zn  Zn80  1  0.21096549  0.83298908  0.89204486  1
  Zn  Zn81  1  0.53967590  0.55358023  0.35934794  1
  Zn  Zn82  1  0.26848050  0.36853994  0.40144174  1
  Zn  Zn83  1  0.09960630  0.32479786  0.55701349  1
  Zn  Zn84  1  0.85942340  0.70192499  0.92685336  1
  Zn  Zn85  1  0.45530061  0.91171432  0.69945552  1
  Zn  Zn86  1  0.74537088  0.67435285  0.20205075  1
  Zn  Zn87  1  -0.01225617  0.74059274  0.05850193  1
  Zn  Zn88  1  0.43555642  0.18989965  0.44855135  1
  Zn  Zn89  1  0.51368519  0.07088696  0.33461948  1
  Zn  Zn90  1  0.22549164  0.94583100  0.38782600  1
  Zn  Zn91  1  0.82727621  0.54730775  0.56800877  1
  Zn  Zn92  1  0.04642604  0.11570178  0.30862735  1
  Zn  Zn93  1  0.03601433  0.61795073  0.83933112  1
  Zn  Zn94  1  0.72953958  0.72938190  0.70176088  1
  Zn  Zn95  1  0.81702607  0.16768098  0.03255813  1
  Zn  Zn96  1  0.54878700  0.33511720  0.01282598  1
  Zn  Zn97  1  0.38235204  0.38910426  0.77450935  1
  Zn  Zn98  1  0.82840206  0.82890896  0.28124022  1
  Zn  Zn99  1  0.34300767  0.58232361  0.57070877  1
  Zn  Zn100  1  0.91031312  0.67344495  0.47741080  1
  Zn  Zn101  1  0.51230564  0.75618869  0.42757007  1
  O  O102  1  0.09163925  0.10478343  0.20180546  1
  O  O103  1  0.10856970  0.07411942  0.58708317  1
  O  O104  1  0.15711404  0.66250861  0.23724484  1
  O  O105  1  0.09502030  0.67802931  0.64474549  1
  O  O106  1  0.61056319  0.08024780  0.14689276  1
  O  O107  1  0.60812345  0.09934917  0.61660947  1
  O  O108  1  0.68733922  0.62684545  0.11912285  1
  O  O109  1  0.51643244  0.63393143  0.55354729  1
  O  O110  1  0.37403490  0.36445966  0.35809302  1
  O  O111  1  0.33778586  0.39665608  0.88357275  1
  O  O112  1  0.41752077  0.81535879  0.42880883  1
  O  O113  1  0.41916404  0.83310391  0.89112094  1
  O  O114  1  0.92834574  0.42820894  0.39668109  1
  O  O115  1  0.77432869  0.36354352  0.95765422  1
  O  O116  1  0.90142565  0.90344827  0.28289400  1
  O  O117  1  0.80681607  1.01738252  0.83399388  1
  O  O118  1  0.29726569  0.04360688  0.35543567  1
  O  O119  1  0.23646189  -0.07782612  0.83077240  1
  O  O120  1  0.26791223  0.48393032  0.39650303  1
  O  O121  1  0.21889191  0.57781813  0.91774859  1
  O  O122  1  0.88183629  -0.01780008  0.43979781  1
  O  O123  1  0.83101634  0.14166887  0.87655595  1
  O  O124  1  0.77516021  0.58978931  0.47492546  1
  O  O125  1  0.89598122  0.45823672  0.74012828  1
  O  O126  1  0.23398269  0.51556162  0.11208692  1
  O  O127  1  0.18487248  0.50201809  0.67350063  1
  O  O128  1  0.16603111  1.02063053  0.06930361  1
  O  O129  1  0.19781842  0.96457129  0.60945117  1
  O  O130  1  0.74776970  0.46739620  0.22475143  1
  O  O131  1  0.74799633  0.50621685  0.64060161  1
  O  O132  1  0.71382034  0.95705637  0.09973377  1
  O  O133  1  0.72925992  1.00205692  0.61503723  1
  O  O134  1  0.03782979  0.37522948  0.23561909  1
  O  O135  1  0.05820832  0.31451202  0.76608645  1
  O  O136  1  0.01329354  0.92603234  0.16619759  1
  O  O137  1  -0.04632002  0.85755538  0.81714045  1
  O  O138  1  0.46777741  0.36567736  0.23099225  1
  O  O139  1  0.49008186  0.41211479  0.81096364  1
  O  O140  1  0.53615331  0.81103210  0.19009736  1
  O  O141  1  0.54179595  0.86704308  0.76501063  1
  O  O142  1  0.48687099  0.11422870  0.23537013  1
  O  O143  1  0.48972474  0.09839131  0.74064058  1
  O  O144  1  0.55505942  0.62130463  0.26137807  1
  O  O145  1  0.46119813  0.58152548  0.72254345  1
  O  O146  1  0.95706590  0.17353283  0.25539630  1
  O  O147  1  0.99255209  0.14443390  0.68530757  1
  O  O148  1  0.99681786  0.64064288  0.22428640  1
  O  O149  1  0.97821205  0.63599143  0.74067321  1
  O  O150  1  0.36588994  0.23622210  0.00773376  1
  O  O151  1  0.34342378  0.20551613  0.50651667  1
  O  O152  1  0.38845417  0.70339372  0.00116593  1
  O  O153  1  0.32434759  0.76999765  0.54763126  1
  O  O154  1  0.89716438  0.22831864  -0.01341474  1
  O  O155  1  0.91638200  0.28171848  0.46923280  1
  O  O156  1  0.90230807  0.68024655  0.02779164  1
  O  O157  1  0.84436779  0.75977743  0.48858079  1
  O  O158  1  0.15219264  0.26791626  0.47734358  1
  O  O159  1  0.06045199  0.27611143  0.97491232  1
  O  O160  1  0.16806059  0.76458304  0.49617786  1
  O  O161  1  0.07725533  0.68802183  1.07442536  1
  O  O162  1  0.60010017  0.23167996  0.53491176  1
  O  O163  1  0.56566410  0.23835172  0.96349817  1
  O  O164  1  0.55290530  0.68357136  0.51470167  1
  O  O165  1  0.75813352  0.68857310  0.98285711  1
  O  O166  1  0.47557839  0.12928924  0.06945435  1
  O  O167  1  0.46204453  0.20242434  0.65356820  1
  O  O168  1  0.52429627  0.69152606  0.13606722  1
  O  O169  1  0.56454204  0.73721783  0.65895008  1
  O  O170  1  1.03038860  0.24940356  0.15116920  1
  O  O171  1  1.04783295  0.26727270  0.64475382  1
  O  O172  1  1.03048356  0.85666538  0.15138135  1
  O  O173  1  1.07442513  0.79678579  0.73909711  1
  O  O174  1  0.03486375  0.26960820  0.34428471  1
  O  O175  1  0.01607879  0.20183659  0.84200424  1
  O  O176  1  0.01183055  0.79436684  0.37693502  1
  O  O177  1  -0.00864744  0.71285802  0.88458060  1
  O  O178  1  0.49544239  0.26940237  0.38931889  1
  O  O179  1  0.47424814  0.16053355  0.86469677  1
  O  O180  1  0.55728442  0.75983917  0.32492486  1
  O  O181  1  0.52628913  0.69851689  0.82906831  1
  O  O182  1  0.21631341  0.13317042  0.49104223  1
  O  O183  1  0.15489307  0.09254163  0.91986690  1
  O  O184  1  0.24491753  0.63155176  0.54826816  1
  O  O185  1  0.24190647  0.68322821  1.05840437  1
  O  O186  1  0.70423364  0.11409656  0.50074236  1
  O  O187  1  0.71055162  0.18877352  1.00303736  1
  O  O188  1  0.69073865  0.72476115  0.45659828  1
  O  O189  1  0.77094900  0.56053694  1.04574863  1
  O  O190  1  0.23480547  0.42196918  -0.00511621  1
  O  O191  1  0.27947546  0.33913350  0.51658813  1
  O  O192  1  0.28981190  0.83562366  -0.00888262  1
  O  O193  1  0.29674417  0.90694672  0.47364973  1
  O  O194  1  0.73956296  0.35530263  0.02830029  1
  O  O195  1  0.84118022  0.42574513  0.53534359  1
  O  O196  1  0.79258235  0.85311353  0.01878221  1
  O  O197  1  0.74339133  0.89742535  0.50878221  1
  O  O198  1  0.13222562  0.49034382  0.24208142  1
  O  O199  1  0.09133228  0.52180505  0.82482010  1
  O  O200  1  0.10073331  0.94038754  0.31005520  1
  O  O201  1  0.08098782  0.96074938  0.71329970  1
  O  O202  1  0.40617919  0.52458996  0.19772838  1
  O  O203  1  0.62282836  0.56053145  0.72828408  1
  O  O204  1  0.69173683  1.03050267  0.31013270  1
  O  O205  1  0.63175897  0.99478452  0.75034566  1
  O  O206  1  0.37998320  -0.15065011  0.24691263  1
  O  O207  1  0.36688414  -0.04389459  0.74322248  1
  O  O208  1  0.25985479  0.58477296  0.26859276  1
  O  O209  1  0.34256143  0.49782961  0.75773952  1
  O  O210  1  0.84504645  0.05342025  0.24813464  1
  O  O211  1  0.94310076  0.05015730  0.81528561  1
  O  O212  1  0.90760061  0.52737975  0.29252263  1
  O  O213  1  0.95810816  0.45319194  0.70659496  1
  O  O214  1  0.15192462  0.37106769  0.34707828  1
  O  O215  1  0.18568685  0.38371361  0.85258556  1
  O  O216  1  0.04087532  0.95358911  0.35034527  1
  O  O217  1  0.10118583  0.83484850  0.89259913  1
  O  O218  1  0.57928125  0.34258742  0.30630872  1
  O  O219  1  0.60310473  0.40162629  0.93141301  1
  O  O220  1  0.73435314  0.99890902  0.35851053  1
  O  O221  1  0.66442446  0.89189336  0.87116681  1
  O  O222  1  0.30460363  0.10547036  0.08591599  1
  O  O223  1  0.38035172  0.07593114  0.62519609  1
  O  O224  1  0.23745022  0.65153994  0.26247989  1
  O  O225  1  0.36397572  0.65694804  0.64950694  1
  O  O226  1  0.91714171  0.12720328  0.12309269  1
  O  O227  1  0.88176633  0.10855292  0.57531349  1
  O  O228  1  0.83939947  0.61782425  0.18582721  1
  O  O229  1  0.88895485  0.61049344  0.63977479  1
  O  O230  1  0.21357149  0.23631758  0.06842288  1
  O  O231  1  0.22586248  0.21286728  0.61640535  1
  O  O232  1  0.33118386  0.77439688  0.14206905  1
  O  O233  1  0.28614380  0.78152826  0.70666987  1
  O  O234  1  0.77941391  0.33197499  0.08548790  1
  O  O235  1  0.71193605  0.34104225  0.57237369  1
  O  O236  1  0.77456327  0.76664114  0.13621323  1
  O  O237  1  0.72776366  0.79229177  0.60581270  1
  O  O238  1  0.24967470  0.25929881  0.36489886  1
  O  O239  1  0.23938925  0.23224651  0.87854883  1
  O  O240  1  0.28910022  0.72156050  0.40086824  1
  O  O241  1  0.25985509  0.73600035  0.87601809  1
  O  O242  1  0.67134969  0.26157825  0.39292160  1
  O  O243  1  0.69375343  0.27151136  0.85667605  1
  O  O244  1  0.76715409  0.82982432  0.37417683  1
  O  O245  1  0.82480050  0.79508047  0.88707420  1
  O  O246  1  0.05898860  0.14240972  0.04681815  1
  O  O247  1  0.01909334  0.11612765  0.48312862  1
  O  O248  1  0.00350079  0.56661501  -0.05824543  1
  O  O249  1  -0.00982986  0.69672815  0.54746974  1
  O  O250  1  0.57284234  0.02859099  -0.00491363  1
  O  O251  1  0.49720635  0.12257825  0.52547343  1
  O  O252  1  0.62835442  0.69396490  -0.00532997  1
  O  O253  1  0.44426671  0.59900939  0.48367007  1
  O  O254  1  0.44627047  0.35370962  0.54291724  1
  O  O255  1  0.45513874  0.40235874  0.97892621  1
  O  O256  1  0.56745234  0.84155561  0.48065334  1
  O  O257  1  0.43746157  0.85246348  1.05156455  1
  O  O258  1  1.01647533  0.38480295  0.52516242  1
  O  O259  1  0.96336907  0.39706969  1.05205664  1
  O  O260  1  1.02121683  0.80375093  0.30651910  1
  O  O261  1  0.97439272  0.82572451  0.98536747  1
  O  O262  1  0.49634806  0.45642979  0.36371537  1
  O  O263  1  0.51820719  0.53788437  0.89272460  1
  O  O264  1  0.53411419  0.96510431  0.36386780  1
  O  O265  1  0.52586888  0.97316842  0.88926027  1
  O  O266  1  1.04387009  0.54139282  0.37465976  1
  O  O267  1  0.97874147  0.40983174  0.90676194  1
  O  O268  1  0.99827986  1.01644713  0.33045568  1
  O  O269  1  0.88958553  0.95969124  0.93023694  1
  O  O270  1  -0.04328960  0.05697196  0.13213073  1
  O  O271  1  -0.01470998  -0.00421250  0.59065661  1
  O  O272  1  -0.05296150  0.52227437  0.07531706  1
  O  O273  1  0.03084214  0.54603764  0.60623660  1
  O  O274  1  0.46386773  -0.01290578  0.14123918  1
  O  O275  1  0.51362540  -0.00625950  0.64202980  1
  O  O276  1  0.38142207  0.57273598  0.15090771  1
  O  O277  1  0.57664924  0.46083935  0.59820638  1
  O  O278  1  0.24412175  0.38405309  0.21512992  1
  O  O279  1  0.19093190  0.38202125  0.78013308  1
  O  O280  1  0.25291360  0.87963610  0.30396816  1
  O  O281  1  0.23041159  0.91348857  0.65977702  1
  O  O282  1  0.63220012  0.38075802  0.15909682  1
  O  O283  1  0.72915935  0.46173968  0.79901885  1
  O  O284  1  0.73919649  0.85824260  0.21568324  1
  O  O285  1  0.75318556  0.88475988  0.73601886  1
  O  O286  1  0.35042843  0.05636520  0.40491352  1
  O  O287  1  0.23658281  0.05574793  0.73442798  1
  O  O288  1  0.19186375  0.58451651  0.40778766  1
  O  O289  1  0.25169535  0.62161560  0.74562113  1
  O  O290  1  0.78392617  0.16919730  0.14575156  1
  O  O291  1  0.74773698  0.17046508  0.69219520  1
  O  O292  1  0.75030187  0.64610064  0.31870888  1
  O  O293  1  0.76275877  0.62642931  0.73388737  1
  O  O294  1  0.40580224  0.10867814  0.37349598  1
  O  O295  1  0.28244852  0.18409934  0.85292542  1
  O  O296  1  0.46377238  0.63324575  0.41685354  1
  O  O297  1  0.36828567  0.63407031  0.83940162  1
  O  O298  1  0.80048125  0.18457137  0.30187469  1
  O  O299  1  0.96659938  0.09009931  0.93664126  1
  O  O300  1  0.91967656  0.63606674  0.37193082  1
  O  O301  1  0.86553123  0.63244632  0.84112476  1
  O  O302  1  0.14304454  0.38023858  0.12006684  1
  O  O303  1  0.17241341  0.39267685  0.61430432  1
  O  O304  1  0.19486890  0.81872597  0.17012499  1
  O  O305  1  0.07534293  0.86974298  0.58841294  1
  O  O306  1  0.51455415  0.29874383  0.11406915  1
  O  O307  1  0.67034715  0.34627786  0.62990539  1
  O  O308  1  0.65985989  0.84273945  0.07829430  1
  O  O309  1  0.63176444  0.90101996  0.63688852  1
  O  O310  1  0.15195472  0.25749689  0.25692149  1
  O  O311  1  0.11013984  0.17473268  0.74307883  1
  O  O312  1  -0.02477457  0.80399845  0.15593005  1
  O  O313  1  0.14100032  0.81313317  0.73418592  1
  O  O314  1  0.61591789  0.22949935  0.23570377  1
  O  O315  1  0.57060605  0.24345826  0.75583311  1
  O  O316  1  0.64588602  0.71635316  0.22692754  1
  O  O317  1  0.65125851  0.77755843  0.77119064  1
  O  O318  1  0.33835967  0.23876114  0.17339766  1
  O  O319  1  0.41724431  0.27885997  0.78072199  1
  O  O320  1  0.45213399  0.70767356  0.26396289  1
  O  O321  1  0.43463516  0.77070646  0.73205034  1
  O  O322  1  0.90511854  0.31869707  0.25005243  1
  O  O323  1  0.92801822  0.25192987  0.74082185  1
  O  O324  1  0.87838591  0.73461954  0.26725489  1
  O  O325  1  0.85116489  0.74642671  0.72540608  1
  O  O326  1  0.35161631  0.48056861  0.55251488  1
  O  O327  1  0.35420199  0.52010035  0.98128377  1
  O  O328  1  0.44364823  0.94804352  0.49704701  1
  O  O329  1  0.37651892  0.97683425  0.97493242  1
  O  O330  1  0.92295878  0.55139449  0.49124569  1
  O  O331  1  0.88432419  0.49143377  0.94627560  1
  O  O332  1  0.90686522  0.91951215  0.42582620  1
  O  O333  1  0.83290262  1.06671655  0.99049952  1
  O  O334  1  0.13259769  -0.03706776  0.05437381  1
  O  O335  1  0.14780455  0.00562890  0.44403730  1
  O  O336  1  0.07761226  0.47057756  -0.01231523  1
  O  O337  1  0.13820725  0.45508600  0.64044606  1
  O  O338  1  0.55175846  -0.03247267  -0.03534768  1
  O  O339  1  0.59991728  -0.00030212  0.50218446  1
  O  O340  1  0.61407469  0.55331350  0.02601850  1
  O  O341  1  0.61132730  0.49223226  0.54424549  1
  O  O342  1  0.33761756  0.38823031  0.08562210  1
  O  O343  1  0.34457731  0.36649663  0.66814750  1
  O  O344  1  0.29338877  0.93855351  0.14437136  1
  O  O345  1  0.40791114  0.85257041  0.61024757  1
  O  O346  1  0.80569574  0.44663453  0.19045306  1
  O  O347  1  0.86487269  0.36964486  0.58587558  1
  O  O348  1  0.84164943  0.90994827  0.13170110  1
  O  O349  1  0.85225459  0.89783600  0.62134207  1
  O  O350  1  0.12227877  0.15258378  0.37890365  1
  O  O351  1  0.14080275  0.03208447  0.89037302  1
  O  O352  1  0.20168675  0.51454869  0.42355737  1
  O  O353  1  0.13305928  0.67321705  0.82796283  1
  O  O354  1  0.58012078  0.14321579  0.39545439  1
  O  O355  1  0.63992650  0.12807751  0.86489687  1
  O  O356  1  0.63099461  0.58353722  0.40711394  1
  O  O357  1  0.69623442  0.57558292  0.92289314  1
