# generated using pymatgen
data_V51Zn51O256
_symmetry_space_group_name_H-M   'P 1'
_cell_length_a   18.06783424
_cell_length_b   17.75152015
_cell_length_c   18.00873610
_cell_angle_alpha   89.49703821
_cell_angle_beta   87.86535287
_cell_angle_gamma   88.07622389
_symmetry_Int_Tables_number   1
_chemical_formula_structural   V51Zn51O256
_chemical_formula_sum   'V51 Zn51 O256'
_cell_volume   5768.54403952
_cell_formula_units_Z   1
loop_
 _symmetry_equiv_pos_site_id
 _symmetry_equiv_pos_as_xyz
  1  'x, y, z'
loop_
 _atom_site_type_symbol
 _atom_site_label
 _atom_site_symmetry_multiplicity
 _atom_site_fract_x
 _atom_site_fract_y
 _atom_site_fract_z
 _atom_site_occupancy
  V  V0  1  0.33476755  0.69064570  0.26412630  1
  V  V1  1  0.40928306  0.04459442  0.39425247  1
  V  V2  1  0.00739473  0.01388088  0.51976497  1
  V  V3  1  0.03892329  -0.00425544  0.02765827  1
  V  V4  1  0.08106973  0.41494753  0.75519081  1
  V  V5  1  0.63097788  0.45668646  0.60355456  1
  V  V6  1  0.13569422  0.04369530  0.61151540  1
  V  V7  1  0.59033634  0.92656699  0.79671424  1
  V  V8  1  0.24301474  0.76211140  -0.02117152  1
  V  V9  1  0.49537223  0.88855772  0.46707569  1
  V  V10  1  0.72396084  0.31925745  0.08231154  1
  V  V11  1  0.58492919  0.07897914  -0.07692493  1
  V  V12  1  0.54078419  0.38866826  0.34798075  1
  V  V13  1  0.84034653  0.51743536  0.35322926  1
  V  V14  1  0.22212990  0.80507882  0.46488247  1
  V  V15  1  -0.00247900  0.49353501  0.43063467  1
  V  V16  1  0.00969680  0.39389276  0.92318649  1
  V  V17  1  0.59704852  0.77917365  0.91447736  1
  V  V18  1  0.78572624  0.37198685  0.64992372  1
  V  V19  1  0.82517998  0.64713156  0.91836234  1
  V  V20  1  0.71576645  0.23965292  0.47652215  1
  V  V21  1  0.26974152  0.25567984  -0.01988134  1
  V  V22  1  -0.00134668  0.75861785  0.21980865  1
  V  V23  1  0.28987709  0.53620344  0.69385208  1
  V  V24  1  0.11698862  0.73385572  0.86357985  1
  V  V25  1  0.62204107  0.24881428  0.84419082  1
  V  V26  1  0.63315691  -0.05171059  0.18454124  1
  V  V27  1  0.60684746  0.04246989  0.66054567  1
  V  V28  1  0.09893687  0.22029684  0.92859585  1
  V  V29  1  0.89692382  0.32831177  0.05374087  1
  V  V30  1  0.50136481  0.51262046  0.01604680  1
  V  V31  1  0.21812884  0.07905339  0.87633451  1
  V  V32  1  0.82764275  0.17504493  0.11049564  1
  V  V33  1  0.63524979  0.57725951  0.12870112  1
  V  V34  1  0.02486919  0.09882532  0.17825201  1
  V  V35  1  0.08098482  0.79965246  0.37457304  1
  V  V36  1  0.48342429  0.68992355  0.13487385  1
  V  V37  1  0.15196700  0.57695035  0.07621749  1
  V  V38  1  0.23364813  0.25749754  0.36019172  1
  V  V39  1  0.86473140  0.00267266  0.85509633  1
  V  V40  1  0.32532982  0.17182434  0.73807692  1
  V  V41  1  -0.10720792  0.28919756  0.32354165  1
  V  V42  1  0.74523143  0.55597586  0.23679524  1
  V  V43  1  0.27436978  0.39373421  0.59604439  1
  V  V44  1  0.54773446  0.74943737  0.35610178  1
  V  V45  1  0.59574240  0.42831774  0.78219402  1
  V  V46  1  0.19147395  0.63366364  0.38829594  1
  V  V47  1  0.50852358  0.26708055  0.20087736  1
  V  V48  1  0.25825360  0.03512742  0.28329182  1
  V  V49  1  0.33423363  0.54100044  0.35240676  1
  V  V50  1  0.23861220  -0.02379103  0.71858813  1
  Zn  Zn51  1  0.12860573  0.83105642  0.72762461  1
  Zn  Zn52  1  0.38945558  0.76167975  0.42989978  1
  Zn  Zn53  1  0.70642947  0.42003688  0.42327971  1
  Zn  Zn54  1  0.58626586  0.86972400  0.61564994  1
  Zn  Zn55  1  0.07263323  0.73690595  0.03812539  1
  Zn  Zn56  1  0.14858519  0.67021543  0.23659462  1
  Zn  Zn57  1  0.16832164  0.91148720  0.89655689  1
  Zn  Zn58  1  0.06378863  0.25392283  0.11319763  1
  Zn  Zn59  1  0.86065205  0.37712920  0.48547566  1
  Zn  Zn60  1  0.19013358  0.44332943  0.42617419  1
  Zn  Zn61  1  0.95787570  0.65813127  0.36479952  1
  Zn  Zn62  1  0.65070447  0.23963324  0.64501639  1
  Zn  Zn63  1  0.42848316  0.22062434  0.33465900  1
  Zn  Zn64  1  0.60521283  -0.02126380  0.38678641  1
  Zn  Zn65  1  0.09966199  0.87627651  0.56181239  1
  Zn  Zn66  1  0.07906541  -0.00641389  0.33963575  1
  Zn  Zn67  1  0.76780610  0.02706041  0.52226603  1
  Zn  Zn68  1  0.62137632  0.58314682  0.88752732  1
  Zn  Zn69  1  1.01601067  0.59649535  0.94062125  1
  Zn  Zn70  1  0.79268916  0.48316436  0.04905733  1
  Zn  Zn71  1  0.98803396  0.95537339  0.68792140  1
  Zn  Zn72  1  0.88423826  0.41009371  0.19720618  1
  Zn  Zn73  1  0.67434911  0.80265268  0.44906850  1
  Zn  Zn74  1  0.50502634  0.92745709  0.26456368  1
  Zn  Zn75  1  0.62707942  0.77995516  0.10991347  1
  Zn  Zn76  1  0.34218470  0.88913908  0.33907682  1
  Zn  Zn77  1  0.74972290  0.83904849  0.90513797  1
  Zn  Zn78  1  0.70339473  0.35702156  0.92814654  1
  Zn  Zn79  1  0.32268372  0.06647478  0.57666088  1
  Zn  Zn80  1  0.12948263  0.60896969  0.76275019  1
  Zn  Zn81  1  0.27988618  0.55925791  0.51512655  1
  Zn  Zn82  1  0.34191706  0.62923647  0.07457191  1
  Zn  Zn83  1  0.20631687  0.16398271  0.15081621  1
  Zn  Zn84  1  0.75005435  0.01208857  0.04390927  1
  Zn  Zn85  1  0.53867248  0.32732488  0.04253112  1
  Zn  Zn86  1  0.73909940  0.21868450  0.28317515  1
  Zn  Zn87  1  0.96682478  0.11308868  0.35858621  1
  Zn  Zn88  1  0.43532414  1.02548134  0.74494179  1
  Zn  Zn89  1  0.16394851  0.38294938  1.02704369  1
  Zn  Zn90  1  0.22498195  0.27674863  0.79809691  1
  Zn  Zn91  1  0.44693622  0.43009947  0.67180148  1
  Zn  Zn92  1  0.63519038  0.16661651  0.10746371  1
  Zn  Zn93  1  0.53295445  0.57245116  0.27412945  1
  Zn  Zn94  1  0.55848327  0.34888146  0.51984297  1
  Zn  Zn95  1  0.41335264  0.15915807  0.88080198  1
  Zn  Zn96  1  0.93920808  0.15899457  0.95408048  1
  Zn  Zn97  1  0.94261153  0.86752434  0.12626748  1
  Zn  Zn98  1  0.43094137  0.75133998  0.96842757  1
  Zn  Zn99  1  0.18100829  0.22406153  0.64159345  1
  Zn  Zn100  1  0.96348405  0.41002967  0.60804857  1
  Zn  Zn101  1  0.42304427  0.42487582  0.23783452  1
  O  O102  1  0.09513892  0.16801683  0.17368366  1
  O  O103  1  0.14878627  0.13458869  0.58809485  1
  O  O104  1  0.12539555  0.59541131  0.16713849  1
  O  O105  1  0.04131922  0.66397644  0.63312544  1
  O  O106  1  0.60481562  0.09330895  0.02738801  1
  O  O107  1  0.62821877  0.13309026  0.64781363  1
  O  O108  1  0.65225582  0.66614764  0.10204632  1
  O  O109  1  0.61346512  0.54630050  0.61927524  1
  O  O110  1  0.36045994  0.45209280  0.32307270  1
  O  O111  1  0.41675009  0.37164602  0.87982431  1
  O  O112  1  0.40479081  0.87506405  0.43651680  1
  O  O113  1  0.38313951  0.90855193  0.94439776  1
  O  O114  1  0.79948568  0.30364814  0.30684827  1
  O  O115  1  0.92459613  0.35835887  0.95832235  1
  O  O116  1  0.81413999  0.87707550  0.45869280  1
  O  O117  1  0.81878229  0.91262979  0.85715220  1
  O  O118  1  0.32005717  0.07027910  0.35058569  1
  O  O119  1  0.21335184  -0.01059592  0.82606159  1
  O  O120  1  0.23449534  0.52727085  0.36625142  1
  O  O121  1  0.36102625  0.41210848  0.88044089  1
  O  O122  1  0.77021316  -0.09004266  0.51203966  1
  O  O123  1  0.79864826  0.02805371  0.79070641  1
  O  O124  1  0.73568007  0.53739747  0.33430749  1
  O  O125  1  0.71352169  0.53144434  0.92899147  1
  O  O126  1  0.34628005  0.47219892  0.16379505  1
  O  O127  1  0.29774136  0.58897039  0.61331477  1
  O  O128  1  0.25937973  1.08803476  0.20165010  1
  O  O129  1  0.23842723  1.00917789  0.61415802  1
  O  O130  1  0.72972769  0.53051835  0.12924406  1
  O  O131  1  0.73716364  0.44680111  0.60318416  1
  O  O132  1  0.68221038  1.01567257  0.13307211  1
  O  O133  1  0.69626199  0.99256753  0.60639014  1
  O  O134  1  -0.06011266  0.33923801  0.25242613  1
  O  O135  1  0.00908654  0.39156749  0.82556533  1
  O  O136  1  0.22092422  0.91025769  0.10633261  1
  O  O137  1  -0.10771679  0.81397041  0.71409759  1
  O  O138  1  0.47535062  0.35575983  0.17050871  1
  O  O139  1  0.50416622  0.41956957  0.76395239  1
  O  O140  1  0.52336492  0.82723114  0.30456017  1
  O  O141  1  0.49789997  0.94785996  0.79946542  1
  O  O142  1  0.59698685  0.23834276  0.25115973  1
  O  O143  1  0.41461316  0.13123470  0.77537189  1
  O  O144  1  0.51785167  0.66577868  0.32224538  1
  O  O145  1  0.42060481  0.67155970  0.75876224  1
  O  O146  1  1.01405491  0.06032817  0.26866675  1
  O  O147  1  1.06769643  0.25706243  0.64411307  1
  O  O148  1  0.95620220  0.68155909  0.25714970  1
  O  O149  1  1.05745435  0.60047832  0.67250319  1
  O  O150  1  0.35596202  0.22810675  -0.05499241  1
  O  O151  1  0.38916769  0.26314513  0.47418034  1
  O  O152  1  0.33409273  0.72770269  0.00321092  1
  O  O153  1  0.29716574  0.73946226  0.47496124  1
  O  O154  1  0.88329091  0.22264504  0.02405877  1
  O  O155  1  0.80158988  0.18945687  0.51247442  1
  O  O156  1  0.88503455  0.64438621  0.10760661  1
  O  O157  1  0.86103902  0.71211919  0.51631301  1
  O  O158  1  0.23548634  0.21047696  0.46016239  1
  O  O159  1  0.09158659  0.19866505  1.01905618  1
  O  O160  1  0.10649927  0.82476525  0.46570289  1
  O  O161  1  0.19209366  0.68101312  0.92767905  1
  O  O162  1  0.63281334  0.26267533  0.53330573  1
  O  O163  1  0.54938844  0.25660848  0.93649439  1
  O  O164  1  0.65049459  0.79514488  0.55856612  1
  O  O165  1  0.61989719  0.79438211  1.00363677  1
  O  O166  1  0.54796202  0.23770016  0.11055928  1
  O  O167  1  0.41678981  0.24324421  0.53670318  1
  O  O168  1  0.52817125  0.76508178  0.16405050  1
  O  O169  1  0.33312187  0.74585660  0.65380360  1
  O  O170  1  0.94674491  0.13934994  0.14603856  1
  O  O171  1  1.03386024  0.23168282  0.70771356  1
  O  O172  1  1.00571899  0.75926033  0.12071479  1
  O  O173  1  0.98913373  0.70682683  0.65828096  1
  O  O174  1  -0.08553010  0.19186438  0.32051014  1
  O  O175  1  0.01053128  0.22316312  0.89761579  1
  O  O176  1  -0.00059119  0.75650148  0.39091449  1
  O  O177  1  0.05724414  0.76579076  0.93556779  1
  O  O178  1  0.49628840  0.30798226  0.31052144  1
  O  O179  1  0.50841741  0.25642446  0.87467312  1
  O  O180  1  0.49684614  0.76516463  0.44447192  1
  O  O181  1  0.50140907  0.79256925  0.90387680  1
  O  O182  1  0.19134630  0.17228572  0.41650443  1
  O  O183  1  0.24135985  0.05981908  0.96099518  1
  O  O184  1  0.18502161  0.61117219  0.48037774  1
  O  O185  1  0.24161913  0.60666162  1.06039882  1
  O  O186  1  0.74315456  0.14189983  0.53274949  1
  O  O187  1  0.67431318  0.08011994  0.98524758  1
  O  O188  1  0.71901997  0.68328825  0.55898820  1
  O  O189  1  0.76648409  0.56756970  0.97146313  1
  O  O190  1  0.26641829  0.34956856  0.00231584  1
  O  O191  1  0.25077015  0.44868264  0.51598870  1
  O  O192  1  0.24767689  0.85385078  -0.04829796  1
  O  O193  1  0.25429259  0.87552393  0.41021557  1
  O  O194  1  0.77170475  0.38102453  0.00865758  1
  O  O195  1  0.75839612  0.32543112  0.46749063  1
  O  O196  1  0.74660955  0.89522122  0.01000002  1
  O  O197  1  0.78225507  0.82109646  0.42363433  1
  O  O198  1  0.16748920  0.41835996  0.21590146  1
  O  O199  1  0.10917479  0.50079838  0.77735480  1
  O  O200  1  0.17083937  1.03923270  0.32321956  1
  O  O201  1  0.14023694  1.02178728  0.70826860  1
  O  O202  1  0.63989420  0.56225387  0.22997860  1
  O  O203  1  0.61494946  0.51889481  0.80345269  1
  O  O204  1  0.62242115  0.96691053  0.28217744  1
  O  O205  1  0.63364989  1.00528128  0.75031736  1
  O  O206  1  0.42201761  -0.02948816  0.32080479  1
  O  O207  1  0.33160652  -0.00364901  0.72519133  1
  O  O208  1  0.38318358  0.59608653  0.27649603  1
  O  O209  1  0.37712683  0.50774912  0.71900491  1
  O  O210  1  0.81949719  -0.02535868  0.25115103  1
  O  O211  1  0.92703241  -0.00407770  0.77215247  1
  O  O212  1  0.83564409  0.49547870  0.24804371  1
  O  O213  1  0.84388220  0.62422414  0.66325958  1
  O  O214  1  0.21218132  0.34674481  0.38295070  1
  O  O215  1  0.08858010  0.34066718  0.95531101  1
  O  O216  1  0.06656141  0.88818305  0.33825326  1
  O  O217  1  0.12228435  0.83910711  0.83658014  1
  O  O218  1  0.63519824  0.38430066  0.35135103  1
  O  O219  1  0.62059442  0.36658231  0.85867777  1
  O  O220  1  0.59449788  0.87870399  0.43905111  1
  O  O221  1  0.64726136  0.85148090  0.85825755  1
  O  O222  1  0.45235764  0.06715743  0.08552978  1
  O  O223  1  0.34020746  0.14566309  0.64542322  1
  O  O224  1  0.38606584  0.69141887  0.16419611  1
  O  O225  1  0.50394272  0.69284199  0.62606463  1
  O  O226  1  0.82125811  0.08756397  0.07549035  1
  O  O227  1  0.88094636  0.14689981  0.66797326  1
  O  O228  1  0.92966294  0.59403000  0.12309207  1
  O  O229  1  0.88107055  0.58660084  0.61822890  1
  O  O230  1  0.24127428  0.20574242  0.05809173  1
  O  O231  1  0.23241032  0.30838084  0.59920050  1
  O  O232  1  0.17918813  0.76363719  0.05046274  1
  O  O233  1  0.20616844  0.83623095  0.55449884  1
  O  O234  1  0.73120253  0.21135956  0.08046041  1
  O  O235  1  0.74453469  0.28522091  0.64376690  1
  O  O236  1  0.80749413  0.86180285  0.04481154  1
  O  O237  1  0.86355584  0.75505769  0.56893127  1
  O  O238  1  0.32567825  0.24983609  0.33906948  1
  O  O239  1  0.20209128  0.25431282  0.90540701  1
  O  O240  1  0.17451044  0.74059750  0.38439872  1
  O  O241  1  0.22757657  0.73363453  0.87367666  1
  O  O242  1  0.69956030  0.20875837  0.38956805  1
  O  O243  1  0.70908049  0.25549428  0.87720799  1
  O  O244  1  0.67877214  0.72621566  0.59925157  1
  O  O245  1  0.79019450  0.74057174  0.92509101  1
  O  O246  1  -0.00555213  0.07217144  -0.00937969  1
  O  O247  1  -0.07054324  0.10334186  0.52392348  1
  O  O248  1  0.08389436  0.62534576  0.02124341  1
  O  O249  1  -0.00028614  0.58907928  0.43978997  1
  O  O250  1  0.49069037  0.09786254  -0.07373130  1
  O  O251  1  0.48876904  0.24795031  0.54396936  1
  O  O252  1  0.48810985  0.69398866  0.04014506  1
  O  O253  1  0.57703801  0.62012239  0.50077718  1
  O  O254  1  0.50553039  0.39160560  0.43584936  1
  O  O255  1  0.49045480  0.41642144  1.00847751  1
  O  O256  1  0.49533790  0.88434619  0.56185205  1
  O  O257  1  0.38209558  0.85649655  1.10732565  1
  O  O258  1  0.91586280  0.32034362  0.40947572  1
  O  O259  1  0.97746571  0.31467128  1.09658767  1
  O  O260  1  0.98411260  0.92506998  0.51663162  1
  O  O261  1  0.97928398  0.92328288  1.04547312  1
  O  O262  1  0.51137804  0.46887833  0.29257836  1
  O  O263  1  0.52329609  0.55259791  0.93284818  1
  O  O264  1  0.50185777  0.98694522  0.43574780  1
  O  O265  1  0.44448124  0.94964009  0.97068399  1
  O  O266  1  0.93756080  0.47955784  0.35284683  1
  O  O267  1  1.01637635  0.48374607  0.94855320  1
  O  O268  1  1.01860485  1.04694079  0.42203800  1
  O  O269  1  0.94232567  0.94667134  0.88756464  1
  O  O270  1  0.06291267  0.02576681  0.12056767  1
  O  O271  1  0.02414859  0.04009788  0.62143185  1
  O  O272  1  0.11603338  0.38356317  0.19118972  1
  O  O273  1  -0.04672899  0.45416139  0.50975661  1
  O  O274  1  0.54031926  -0.05016637  0.16321079  1
  O  O275  1  0.51290825  0.03469657  0.66436879  1
  O  O276  1  0.52814398  0.60511942  0.16542829  1
  O  O277  1  0.53710374  0.41173092  0.60833561  1
  O  O278  1  0.31415169  0.35347697  0.18438038  1
  O  O279  1  0.24056137  0.45040812  0.67259950  1
  O  O280  1  0.28475352  0.94392881  0.26297900  1
  O  O281  1  0.22877598  0.88332861  0.71161919  1
  O  O282  1  0.69246324  0.35947399  0.15859558  1
  O  O283  1  0.80538199  0.39267404  0.73554883  1
  O  O284  1  0.80644963  0.91908791  0.28946324  1
  O  O285  1  0.75899800  0.73904464  0.72485686  1
  O  O286  1  0.38725338  0.07842270  0.10399490  1
  O  O287  1  0.22013636  0.18329417  0.73371539  1
  O  O288  1  0.25238703  0.70202474  0.22258803  1
  O  O289  1  0.23944024  0.58780176  0.75932492  1
  O  O290  1  0.74980869  0.04319417  0.37721411  1
  O  O291  1  0.84836618  0.18662753  0.71524239  1
  O  O292  1  0.77396991  0.64116149  0.22952222  1
  O  O293  1  0.82637073  0.62285064  0.83140919  1
  O  O294  1  0.45715280  0.12390098  0.37595319  1
  O  O295  1  0.29310015  0.12732966  0.83801167  1
  O  O296  1  0.28642993  0.65082518  0.35074373  1
  O  O297  1  0.39181367  0.67027562  0.82156641  1
  O  O298  1  0.81280813  0.04394639  0.41160476  1
  O  O299  1  0.89289655  0.09421988  0.87569442  1
  O  O300  1  0.85902666  0.60682913  0.37572183  1
  O  O301  1  0.91340957  0.63230233  0.95286734  1
  O  O302  1  0.14202109  0.32755234  0.12595997  1
  O  O303  1  0.04180098  0.41751220  0.66907628  1
  O  O304  1  0.25159829  0.96939758  0.09418330  1
  O  O305  1  0.05921644  0.87610718  0.66216238  1
  O  O306  1  0.64542760  0.32439059  0.02416952  1
  O  O307  1  0.64492960  0.40698288  0.69961794  1
  O  O308  1  0.66986307  0.85934640  0.16334903  1
  O  O309  1  0.59909261  0.86667370  0.72022005  1
  O  O310  1  0.20317858  0.24300790  0.25668670  1
  O  O311  1  0.14746878  0.34384413  0.76509038  1
  O  O312  1  0.08718914  0.76182583  0.26166785  1
  O  O313  1  0.12279143  0.72452038  0.76055319  1
  O  O314  1  0.65161660  0.18944022  0.21932717  1
  O  O315  1  0.61815989  0.25376508  0.75058580  1
  O  O316  1  0.64130038  0.73840609  0.37274208  1
  O  O317  1  0.71405940  0.69104869  0.74015855  1
  O  O318  1  0.44163610  0.20605123  0.22100299  1
  O  O319  1  0.33339431  0.26549028  0.75728267  1
  O  O320  1  0.36305128  0.77105310  0.30991163  1
  O  O321  1  0.45975033  0.64991135  0.60081204  1
  O  O322  1  0.80486114  0.16900159  0.20322300  1
  O  O323  1  0.97365691  0.26584199  0.72745525  1
  O  O324  1  0.94408890  0.84051498  0.23020682  1
  O  O325  1  0.85334198  0.86205612  0.67766156  1
  O  O326  1  0.36385334  0.55395633  0.44017347  1
  O  O327  1  0.42124941  0.55503675  1.05390869  1
  O  O328  1  0.37210863  1.04790862  0.48504699  1
  O  O329  1  0.36902214  0.97748163  0.98742623  1
  O  O330  1  0.80767554  0.46075685  0.42845168  1
  O  O331  1  0.87967454  0.42889978  1.09075543  1
  O  O332  1  0.89488032  1.04031834  0.54395903  1
  O  O333  1  0.81546454  1.01606678  0.94116774  1
  O  O334  1  0.11383692  -0.03527265  -0.02486771  1
  O  O335  1  0.11359544  -0.00874521  0.52733674  1
  O  O336  1  0.14695417  0.48287151  0.05865024  1
  O  O337  1  0.08478587  0.45548670  0.42064446  1
  O  O338  1  0.60088540  -0.01057211  -0.10861653  1
  O  O339  1  0.62470795  -0.02458260  0.57720717  1
  O  O340  1  0.59047130  0.52135025  0.06391668  1
  O  O341  1  0.63529291  0.43858525  0.50541718  1
  O  O342  1  0.30691794  0.41258949  0.14382376  1
  O  O343  1  0.36804159  0.38698515  0.60734814  1
  O  O344  1  0.38820237  0.92396588  0.11820984  1
  O  O345  1  0.36661104  0.80181383  0.63458892  1
  O  O346  1  0.82530542  0.29864188  0.12223750  1
  O  O347  1  0.87329618  0.36132504  0.59398026  1
  O  O348  1  0.83131833  0.90358543  0.09954164  1
  O  O349  1  0.88801313  0.91744709  0.64005598  1
  O  O350  1  0.14180233  0.24015459  0.30243625  1
  O  O351  1  0.13099098  0.13317219  0.88274396  1
  O  O352  1  0.11912798  0.61822365  0.33344669  1
  O  O353  1  0.07318728  0.64204368  0.85823549  1
  O  O354  1  0.69005312  0.02955663  0.42924567  1
  O  O355  1  0.61711305  0.14357570  0.85649520  1
  O  O356  1  0.63262167  0.60133187  0.46398780  1
  O  O357  1  0.62553897  0.69081057  0.88640110  1
