# generated using pymatgen
data_V51Zn51O256
_symmetry_space_group_name_H-M   'P 1'
_cell_length_a   17.80393795
_cell_length_b   17.53833263
_cell_length_c   17.16410505
_cell_angle_alpha   88.37289423
_cell_angle_beta   87.26094950
_cell_angle_gamma   90.15597515
_symmetry_Int_Tables_number   1
_chemical_formula_structural   V51Zn51O256
_chemical_formula_sum   'V51 Zn51 O256'
_cell_volume   5351.18936008
_cell_formula_units_Z   1
loop_
 _symmetry_equiv_pos_site_id
 _symmetry_equiv_pos_as_xyz
  1  'x, y, z'
loop_
 _atom_site_type_symbol
 _atom_site_label
 _atom_site_symmetry_multiplicity
 _atom_site_fract_x
 _atom_site_fract_y
 _atom_site_fract_z
 _atom_site_occupancy
  V  V0  1  0.75880341  0.61730618  0.35255305  1
  V  V1  1  0.71952041  0.38031111  0.13523569  1
  V  V2  1  0.23369675  0.77860911  -0.00197519  1
  V  V3  1  0.13680672  0.74613284  0.36115808  1
  V  V4  1  0.16017298  0.16193263  0.50558891  1
  V  V5  1  0.04018410  0.22891539  0.22181293  1
  V  V6  1  0.89486646  0.08131735  0.24099649  1
  V  V7  1  0.50808972  0.12216457  0.64461191  1
  V  V8  1  0.16083674  0.23036239  0.85997226  1
  V  V9  1  0.26553932  0.91273557  0.14361543  1
  V  V10  1  0.38107449  0.88964746  -0.02573390  1
  V  V11  1  0.60962662  0.73362644  0.86886055  1
  V  V12  1  0.50761406  0.80195303  0.25434444  1
  V  V13  1  0.76420256  0.27642928  0.48043281  1
  V  V14  1  -0.01318207  0.75957237  0.26145655  1
  V  V15  1  0.73309203  -0.00331697  0.28333836  1
  V  V16  1  0.88623444  0.63330050  0.77477997  1
  V  V17  1  0.37098071  0.23836222  0.09890937  1
  V  V18  1  0.62197559  0.75481269  0.40180962  1
  V  V19  1  0.51143539  0.58601229  0.13803212  1
  V  V20  1  0.36508356  0.48905827  0.86856136  1
  V  V21  1  0.64943487  0.48971546  0.63587557  1
  V  V22  1  0.76146631  0.89262688  0.13560617  1
  V  V23  1  0.89028999  0.74357521  0.62355647  1
  V  V24  1  -0.00166909  0.39030698  0.89511094  1
  V  V25  1  0.34840837  0.84861211  0.51457091  1
  V  V26  1  0.82595445  0.88617643  0.51877743  1
  V  V27  1  0.13888225  0.63175166  0.04763518  1
  V  V28  1  0.25999020  0.10856223  0.81150093  1
  V  V29  1  0.37684785  -0.00594010  0.82623038  1
  V  V30  1  0.14128861  0.09444422  -0.02141010  1
  V  V31  1  0.20827379  0.88975699  0.66041469  1
  V  V32  1  0.07752044  0.42480758  0.70565370  1
  V  V33  1  0.75661314  0.51336592  0.79040648  1
  V  V34  1  0.52001369  0.63258958  0.64369856  1
  V  V35  1  0.89852550  0.28420874  0.13189743  1
  V  V36  1  0.77334442  0.26128549  0.02262577  1
  V  V37  1  0.65304672  0.13444351  0.49048043  1
  V  V38  1  0.70695847  0.48959475  0.26102940  1
  V  V39  1  0.72866633  0.76356093  -0.01224872  1
  V  V40  1  0.39122792  0.65117228  0.75922816  1
  V  V41  1  0.27399966  0.27745663  0.51692963  1
  V  V42  1  0.02565923  -0.03325183  0.49238914  1
  V  V43  1  0.51430865  0.88027301  0.82471733  1
  V  V44  1  0.12400669  0.94165811  0.26552258  1
  V  V45  1  0.61458575  0.60610870  0.49247844  1
  V  V46  1  -0.00791436  0.08822851  0.09482641  1
  V  V47  1  0.23713786  0.64501094  0.86287045  1
  V  V48  1  0.49990667  0.46444906  0.53148266  1
  V  V49  1  0.70459286  0.34928405  0.73444070  1
  V  V50  1  0.44251850  0.04703191  0.50505760  1
  Zn  Zn51  1  0.71494655  0.37492509  0.91235535  1
  Zn  Zn52  1  0.93517379  0.20234936  0.93820537  1
  Zn  Zn53  1  0.57497362  0.04945139  0.37945118  1
  Zn  Zn54  1  0.30217507  0.07666410  0.61643879  1
  Zn  Zn55  1  0.73239772  0.47590801  0.47342667  1
  Zn  Zn56  1  0.30159572  0.24009695  0.29862585  1
  Zn  Zn57  1  0.79479370  0.81214558  0.32212103  1
  Zn  Zn58  1  0.19477426  0.88051235  0.45409566  1
  Zn  Zn59  1  0.31787872  0.82812638  0.31913194  1
  Zn  Zn60  1  0.81756789  0.32382660  0.30022994  1
  Zn  Zn61  1  0.42100086  0.72239056  0.92908588  1
  Zn  Zn62  1  0.51297459  0.58026607  0.86592292  1
  Zn  Zn63  1  0.82366674  0.75552206  0.84527754  1
  Zn  Zn64  1  0.35041681  0.53272879  0.64134625  1
  Zn  Zn65  1  0.11961927  0.79773470  0.14051671  1
  Zn  Zn66  1  0.48640924  0.78497751  0.54797783  1
  Zn  Zn67  1  0.53513418  0.79211988  0.04473155  1
  Zn  Zn68  1  0.29889197  0.82063426  0.80003635  1
  Zn  Zn69  1  0.17508444  0.93605969  0.86866312  1
  Zn  Zn70  1  0.82311911  0.06530552  0.43289381  1
  Zn  Zn71  1  0.31897800  0.04978605  0.03479765  1
  Zn  Zn72  1  0.28022847  0.54432700  0.01086625  1
  Zn  Zn73  1  0.68609144  0.66542765  0.70525875  1
  Zn  Zn74  1  0.16460389  0.19513868  0.67371695  1
  Zn  Zn75  1  0.95511391  0.90792098  0.17266683  1
  Zn  Zn76  1  0.22566822  0.35295998  0.38186821  1
  Zn  Zn77  1  0.22794246  0.38679718  0.81731974  1
  Zn  Zn78  1  0.20317370  0.10901137  0.18080518  1
  Zn  Zn79  1  0.42850589  0.72183361  0.40199044  1
  Zn  Zn80  1  0.77542005  0.09194100  0.11404769  1
  Zn  Zn81  1  0.70632104  0.58735242  0.09107440  1
  Zn  Zn82  1  0.93676092  0.78727042  0.43645277  1
  Zn  Zn83  1  0.06600774  0.56776561  0.80312087  1
  Zn  Zn84  1  0.51675064  0.54224863  0.34058620  1
  Zn  Zn85  1  0.77241482  0.68531486  0.51265130  1
  Zn  Zn86  1  0.05725866  0.28206103  0.01337444  1
  Zn  Zn87  1  0.48018960  0.48275216  0.73820021  1
  Zn  Zn88  1  0.13249844  0.33788830  0.55197016  1
  Zn  Zn89  1  0.08337420  0.10312843  0.34050101  1
  Zn  Zn90  1  0.99680632  0.41312681  0.19506443  1
  Zn  Zn91  1  0.40697623  0.44545207  0.07513037  1
  Zn  Zn92  1  0.06665835  0.80478164  0.55717278  1
  Zn  Zn93  1  0.44814364  0.93107617  0.64895221  1
  Zn  Zn94  1  0.68195640  0.93653180  0.45691425  1
  Zn  Zn95  1  0.42844583  0.22427949  0.56748323  1
  Zn  Zn96  1  0.89488293  0.41979685  0.77501111  1
  Zn  Zn97  1  0.07939908  0.49711912  0.98762045  1
  Zn  Zn98  1  0.63858048  0.67417684  0.22662100  1
  Zn  Zn99  1  0.92582092  0.20654892  0.38270715  1
  Zn  Zn100  1  0.59596095  0.29769611  0.58516998  1
  Zn  Zn101  1  0.09844845  0.63804948  0.25083224  1
  O  O102  1  0.09525494  0.10019083  0.07792811  1
  O  O103  1  0.11346983  0.13694219  0.59358792  1
  O  O104  1  0.14108890  0.63113274  0.14792925  1
  O  O105  1  0.15662434  0.55369646  0.53934445  1
  O  O106  1  0.58901365  0.13714524  0.17340443  1
  O  O107  1  0.60330775  0.12547667  0.58245828  1
  O  O108  1  0.60590579  0.62257285  0.13227755  1
  O  O109  1  0.62912376  0.60634427  0.62921936  1
  O  O110  1  0.41551517  0.37947297  0.30883619  1
  O  O111  1  0.32607100  0.40305729  0.85027811  1
  O  O112  1  0.32636851  0.87817984  0.42065902  1
  O  O113  1  0.36568605  0.88281215  0.86277685  1
  O  O114  1  0.90432892  0.40329943  0.34280067  1
  O  O115  1  0.90678287  0.41374202  0.89689729  1
  O  O116  1  0.83801315  0.84320930  0.42567329  1
  O  O117  1  0.89398604  0.95773470  0.79797085  1
  O  O118  1  0.29555546  0.07013982  0.31506474  1
  O  O119  1  0.26096740  0.00572158  0.83750089  1
  O  O120  1  0.34654029  0.50902505  0.38988897  1
  O  O121  1  0.27846193  0.54955651  0.88569131  1
  O  O122  1  0.76117015  -0.01106466  0.37771350  1
  O  O123  1  0.75676273  0.04585564  0.81641875  1
  O  O124  1  0.74986280  0.50420363  0.35185448  1
  O  O125  1  0.73901459  0.48440672  0.88448464  1
  O  O126  1  0.31206887  0.56415768  0.18574105  1
  O  O127  1  0.24587452  0.56540759  0.62760600  1
  O  O128  1  0.25975477  1.01617206  0.13328337  1
  O  O129  1  0.22628708  0.98257262  0.64210902  1
  O  O130  1  0.71860670  0.48944245  0.14204847  1
  O  O131  1  0.73705937  0.49519364  0.59401437  1
  O  O132  1  0.73866409  0.98677850  0.11981380  1
  O  O133  1  0.80094112  1.01951881  0.67440635  1
  O  O134  1  0.04841332  0.32714676  0.23195341  1
  O  O135  1  -0.00066875  0.38883269  0.77180252  1
  O  O136  1  0.03314473  0.91753920  0.27360336  1
  O  O137  1  -0.00576528  0.81602822  0.79731666  1
  O  O138  1  0.44714943  0.41949054  0.25636078  1
  O  O139  1  0.50701179  0.26266076  0.84243142  1
  O  O140  1  0.52616209  0.89011996  0.27241273  1
  O  O141  1  0.50543691  0.87489651  0.72652878  1
  O  O142  1  0.46048765  0.05799411  0.24315496  1
  O  O143  1  0.53032030  0.09922598  0.73268381  1
  O  O144  1  0.49030921  0.57772122  0.23590659  1
  O  O145  1  0.50963760  0.61408394  0.74725280  1
  O  O146  1  0.99123495  0.11783936  0.20738124  1
  O  O147  1  0.88631653  0.18148363  0.78584238  1
  O  O148  1  0.99017001  0.66426525  0.24441461  1
  O  O149  1  0.98039951  0.62646292  0.76663723  1
  O  O150  1  0.34384731  0.27293500  0.00949827  1
  O  O151  1  0.35845999  0.30172295  0.55144504  1
  O  O152  1  0.34392475  0.78666877  -0.01687059  1
  O  O153  1  0.37582441  0.75358320  0.49955306  1
  O  O154  1  0.87504576  0.25168498  0.02734352  1
  O  O155  1  0.82918093  0.26065993  0.39124602  1
  O  O156  1  0.81791868  0.79079901  -0.05000637  1
  O  O157  1  0.87623881  0.72330542  0.51782834  1
  O  O158  1  0.13393256  0.25318953  0.47585782  1
  O  O159  1  0.11079601  0.19976312  0.95612990  1
  O  O160  1  0.12714099  0.78358963  0.46098476  1
  O  O161  1  0.13696760  0.74262440  1.03510234  1
  O  O162  1  0.66557180  0.24762129  0.51227768  1
  O  O163  1  0.73498410  0.17367836  1.05105937  1
  O  O164  1  0.65483249  0.70756974  0.49517855  1
  O  O165  1  0.62193580  0.77634882  0.97634846  1
  O  O166  1  0.46626914  0.22843059  0.09168028  1
  O  O167  1  0.51771679  0.22899483  0.63103567  1
  O  O168  1  0.51412514  0.78943688  0.15501576  1
  O  O169  1  0.53206654  0.72792296  0.62903929  1
  O  O170  1  0.99707101  0.24265512  0.11393706  1
  O  O171  1  0.96280739  0.22077693  0.61845721  1
  O  O172  1  1.00896147  0.81049853  0.16722553  1
  O  O173  1  0.98501060  0.74506204  0.61565787  1
  O  O174  1  0.02490906  0.19827369  0.32426670  1
  O  O175  1  -0.00108675  0.28741472  0.90237174  1
  O  O176  1  0.01680088  0.76790622  0.36287185  1
  O  O177  1  0.04912918  0.86247526  0.79779572  1
  O  O178  1  0.49207769  0.20017910  0.30859696  1
  O  O179  1  0.45500081  0.21695036  0.85333887  1
  O  O180  1  0.52812129  0.75802887  0.44221209  1
  O  O181  1  0.51037150  0.77818958  0.87064498  1
  O  O182  1  0.25909841  0.16347368  0.52975009  1
  O  O183  1  0.23290519  0.10303328  0.99736525  1
  O  O184  1  0.35358890  0.57654218  0.40962575  1
  O  O185  1  0.23640981  0.65817456  0.98595194  1
  O  O186  1  0.75441810  0.14193492  0.47576646  1
  O  O187  1  0.66364174  0.01755478  0.94805732  1
  O  O188  1  0.73685477  0.59395910  0.46161392  1
  O  O189  1  0.73826132  0.67617179  1.03608257  1
  O  O190  1  0.20292417  0.38543309  0.07190069  1
  O  O191  1  0.22870524  0.37125581  0.48852401  1
  O  O192  1  0.21061955  0.86067027  -0.04799046  1
  O  O193  1  0.25191353  0.86140688  0.55135618  1
  O  O194  1  0.72564807  0.36352594  0.02848146  1
  O  O195  1  0.74539975  0.37158822  0.45749684  1
  O  O196  1  0.72751133  0.84430983  0.05284971  1
  O  O197  1  0.73168256  0.88149146  0.53837272  1
  O  O198  1  0.13855704  0.48942149  0.28189471  1
  O  O199  1  0.07410841  0.52146646  0.70000502  1
  O  O200  1  0.13152025  1.04283469  0.25696769  1
  O  O201  1  0.00624247  1.04134473  0.77416299  1
  O  O202  1  0.61614387  0.47932238  0.28378953  1
  O  O203  1  0.66819775  0.49653218  0.73754745  1
  O  O204  1  0.63914151  1.01451609  0.29122001  1
  O  O205  1  0.75827289  1.06420867  0.64328239  1
  O  O206  1  0.35176252  0.08572303  0.35267321  1
  O  O207  1  0.37641470  -0.02304498  0.72880570  1
  O  O208  1  0.31896483  0.51093949  0.11812282  1
  O  O209  1  0.37350653  0.52302160  0.75620597  1
  O  O210  1  0.90426035  -0.01286839  0.24580753  1
  O  O211  1  0.92427546  -0.03133883  0.73312426  1
  O  O212  1  0.93034903  0.45504922  0.29489689  1
  O  O213  1  0.86050569  0.52767670  0.76686758  1
  O  O214  1  0.16626637  0.47222284  0.34494870  1
  O  O215  1  0.16799611  0.32413966  0.89007544  1
  O  O216  1  0.17003165  0.90608044  0.34487640  1
  O  O217  1  -0.01879004  1.03388734  0.84168785  1
  O  O218  1  0.56452306  0.33287127  0.37639672  1
  O  O219  1  0.65594236  0.34996489  0.82402705  1
  O  O220  1  0.65123074  0.84575383  0.40190463  1
  O  O221  1  0.60407364  0.89430857  0.83615316  1
  O  O222  1  0.37565107  0.14037265  0.06967415  1
  O  O223  1  0.40503845  0.13087744  0.64277677  1
  O  O224  1  0.44588947  0.65235624  0.09037449  1
  O  O225  1  0.41310337  0.63082821  0.64986655  1
  O  O226  1  0.88159106  0.10809285  0.13459357  1
  O  O227  1  0.97084662  0.06416762  0.61571702  1
  O  O228  1  1.02360047  0.51336686  0.15343570  1
  O  O229  1  0.84697381  0.64084740  0.64451955  1
  O  O230  1  0.27464858  0.19940717  0.12985262  1
  O  O231  1  0.21167900  0.27785472  0.60875251  1
  O  O232  1  0.24128331  0.81265160  0.09614659  1
  O  O233  1  0.29483391  0.81960281  0.68027519  1
  O  O234  1  0.78770933  0.29591896  0.13396545  1
  O  O235  1  0.81441033  0.27671676  0.55690577  1
  O  O236  1  0.71659017  0.75747564  0.19649652  1
  O  O237  1  0.77849739  0.68628370  0.63074728  1
  O  O238  1  0.29457043  0.25702992  0.41425865  1
  O  O239  1  0.26009586  0.21203745  0.84039562  1
  O  O240  1  0.23271969  0.75958911  0.34521923  1
  O  O241  1  0.25171898  0.74478240  0.87380813  1
  O  O242  1  0.60278276  0.30762452  0.32203530  1
  O  O243  1  0.76689466  0.27108155  0.92439597  1
  O  O244  1  0.72559008  0.71892502  0.35626616  1
  O  O245  1  0.71297848  0.74621243  0.87913418  1
  O  O246  1  -0.03076840  0.11675516  0.00204669  1
  O  O247  1  -0.01724459  0.06033329  0.46226668  1
  O  O248  1  0.05442845  0.61026048  0.01230474  1
  O  O249  1  0.01034347  0.51608865  0.38433560  1
  O  O250  1  0.52840245  0.03729443  0.06348159  1
  O  O251  1  0.45062380  0.14440294  0.49033923  1
  O  O252  1  0.48367267  0.68779135  0.02357437  1
  O  O253  1  0.52043073  0.60869196  0.53259580  1
  O  O254  1  0.52272281  0.37125763  0.54221071  1
  O  O255  1  0.50808374  0.37570648  0.96421893  1
  O  O256  1  0.44246396  0.88616564  0.53785593  1
  O  O257  1  0.47404526  0.87534611  0.98672910  1
  O  O258  1  0.97392663  0.22244440  0.48852196  1
  O  O259  1  1.03273979  0.39293115  0.99623078  1
  O  O260  1  0.98655573  0.87435965  0.49855811  1
  O  O261  1  0.93304720  0.89718288  0.93667529  1
  O  O262  1  0.49753251  0.47791573  0.43117777  1
  O  O263  1  0.47141490  0.47954118  0.85334567  1
  O  O264  1  0.47952199  1.01076446  0.41821413  1
  O  O265  1  0.47435660  0.97682276  0.84418506  1
  O  O266  1  1.02869762  0.45962739  0.42268020  1
  O  O267  1  1.05581737  0.48024004  0.87686441  1
  O  O268  1  1.00602187  1.01590962  0.39522993  1
  O  O269  1  0.89688584  0.95246750  0.96633688  1
  O  O270  1  -0.01260436  -0.00725709  0.09951479  1
  O  O271  1  0.00526029  0.00239991  0.60395154  1
  O  O272  1  -0.04219620  0.55876969  0.13421730  1
  O  O273  1  -0.03523552  0.54129873  0.55158724  1
  O  O274  1  0.41844888  0.01432527  0.21120524  1
  O  O275  1  0.49666956  0.02314862  0.59166303  1
  O  O276  1  0.49879728  0.49935200  0.09709432  1
  O  O277  1  0.53524278  0.49614012  0.64067083  1
  O  O278  1  0.23879647  0.32646401  0.28032822  1
  O  O279  1  0.16689831  0.40335430  0.73388005  1
  O  O280  1  0.30478872  0.89442334  0.22884414  1
  O  O281  1  0.20474232  0.87926287  0.76654792  1
  O  O282  1  0.75417814  0.39444658  0.24443816  1
  O  O283  1  0.78944516  0.40738471  0.74913902  1
  O  O284  1  0.75737768  0.90041876  0.25257375  1
  O  O285  1  0.68852863  0.91198763  0.70225019  1
  O  O286  1  0.25552179  0.13630299  0.28408020  1
  O  O287  1  0.24668842  0.12056116  0.71178431  1
  O  O288  1  0.29949347  0.53195734  0.25068866  1
  O  O289  1  0.28868237  0.64610008  0.76806680  1
  O  O290  1  0.77976417  0.07781691  0.23816136  1
  O  O291  1  0.72003878  0.10349822  0.80508803  1
  O  O292  1  0.71893396  0.59940266  0.25170076  1
  O  O293  1  0.74776436  0.61168933  0.78134394  1
  O  O294  1  0.43814354  0.22399764  0.34805726  1
  O  O295  1  0.36133427  0.09762869  0.82881786  1
  O  O296  1  0.42508162  0.61379866  0.37964945  1
  O  O297  1  0.40953494  0.63074066  0.86647182  1
  O  O298  1  0.88446984  0.10985659  0.34171219  1
  O  O299  1  0.88165772  0.14418847  0.85996102  1
  O  O300  1  0.84855478  0.62784944  0.34418127  1
  O  O301  1  0.86626813  0.64829187  0.86920881  1
  O  O302  1  0.15929890  0.33205530  0.09155518  1
  O  O303  1  0.06449446  0.39483995  0.61207190  1
  O  O304  1  0.16059716  0.90399042  0.17205287  1
  O  O305  1  0.12097785  0.85804510  0.63435224  1
  O  O306  1  0.63539243  0.34980754  0.15774892  1
  O  O307  1  0.64478796  0.37979173  0.64998146  1
  O  O308  1  0.67630049  0.81908496  0.17992466  1
  O  O309  1  0.64837489  0.96532450  0.68420410  1
  O  O310  1  0.12677578  0.19703223  0.19907240  1
  O  O311  1  0.11963724  0.23191770  0.77147263  1
  O  O312  1  0.11212797  0.76139888  0.25590757  1
  O  O313  1  0.06668660  0.88892845  0.86765009  1
  O  O314  1  0.62059958  0.18582405  0.21036553  1
  O  O315  1  0.72951003  0.26221738  0.71752074  1
  O  O316  1  0.58235474  0.73883583  0.29968280  1
  O  O317  1  0.62482932  0.73162502  0.76858533  1
  O  O318  1  0.37026318  0.23648908  0.20566530  1
  O  O319  1  0.38610910  0.31435994  0.72787985  1
  O  O320  1  0.41677277  0.77659620  0.30185077  1
  O  O321  1  0.39896996  0.74489883  0.76139890  1
  O  O322  1  0.89415497  0.26016861  0.23185285  1
  O  O323  1  0.86481966  0.14172728  0.73152752  1
  O  O324  1  0.89321870  0.78460165  0.27706532  1
  O  O325  1  0.86991798  0.73849079  0.74018683  1
  O  O326  1  0.40771863  0.47645477  0.56601111  1
  O  O327  1  0.37189475  0.48360967  0.97408137  1
  O  O328  1  0.35073027  1.01896725  0.52925305  1
  O  O329  1  0.36566056  0.99089440  0.95355872  1
  O  O330  1  0.92026992  0.55781575  0.50149430  1
  O  O331  1  0.89524378  0.53343779  1.16064905  1
  O  O332  1  0.84971784  0.98072733  0.50759373  1
  O  O333  1  0.83306579  0.97194351  0.93975627  1
  O  O334  1  0.12468638  0.00343906  -0.04843249  1
  O  O335  1  0.11841284  -0.04221851  0.49539122  1
  O  O336  1  0.17319468  0.53199060  0.02893810  1
  O  O337  1  0.21175376  0.52252729  0.57009138  1
  O  O338  1  0.55809578  -0.00589588  0.11019370  1
  O  O339  1  0.63909692  0.03063160  0.47520965  1
  O  O340  1  0.56737832  0.34605372  -0.01595331  1
  O  O341  1  0.61989060  0.50193751  0.51797563  1
  O  O342  1  0.37395066  0.34277364  0.11013071  1
  O  O343  1  0.44843828  0.34447255  0.73094398  1
  O  O344  1  0.34395147  0.90792591  0.07292254  1
  O  O345  1  0.35950216  0.83754734  0.63505632  1
  O  O346  1  0.91832840  0.37803098  0.12633058  1
  O  O347  1  0.93493544  0.19972955  0.55679218  1
  O  O348  1  0.85467679  0.88141710  0.12753921  1
  O  O349  1  0.86122282  0.84157261  0.60826185  1
  O  O350  1  0.14489956  0.10340201  0.42968029  1
  O  O351  1  0.16579186  0.11289436  0.86108655  1
  O  O352  1  0.12625003  0.64838478  0.36087702  1
  O  O353  1  0.14637151  0.62907721  0.84441331  1
  O  O354  1  0.60505485  0.15625426  0.40791634  1
  O  O355  1  0.61652999  0.06056412  0.92177855  1
  O  O356  1  0.59879621  0.61032971  0.39438153  1
  O  O357  1  0.59108590  0.64094967  0.89919576  1
