# generated using pymatgen
data_V51Zn51O256
_symmetry_space_group_name_H-M   'P 1'
_cell_length_a   17.94981735
_cell_length_b   17.61037883
_cell_length_c   17.44669891
_cell_angle_alpha   95.73036144
_cell_angle_beta   90.11226584
_cell_angle_gamma   90.57756532
_symmetry_Int_Tables_number   1
_chemical_formula_structural   V51Zn51O256
_chemical_formula_sum   'V51 Zn51 O256'
_cell_volume   5487.09281139
_cell_formula_units_Z   1
loop_
 _symmetry_equiv_pos_site_id
 _symmetry_equiv_pos_as_xyz
  1  'x, y, z'
loop_
 _atom_site_type_symbol
 _atom_site_label
 _atom_site_symmetry_multiplicity
 _atom_site_fract_x
 _atom_site_fract_y
 _atom_site_fract_z
 _atom_site_occupancy
  V  V0  1  0.14775144  0.86364086  0.78375866  1
  V  V1  1  0.82518341  0.20954487  0.00382335  1
  V  V2  1  0.47394879  0.91715996  0.86696660  1
  V  V3  1  0.29104985  0.29467488  0.11298073  1
  V  V4  1  0.81167515  0.91093158  0.15820099  1
  V  V5  1  0.93722958  0.54697494  0.82303022  1
  V  V6  1  0.39317229  0.34872745  0.55582589  1
  V  V7  1  0.65102119  0.67545138  0.05767882  1
  V  V8  1  0.80620348  0.78798023  -0.02041510  1
  V  V9  1  0.37450363  0.62239829  0.20885995  1
  V  V10  1  0.12715330  0.14918342  -0.00660742  1
  V  V11  1  0.13945635  0.56868950  0.55964964  1
  V  V12  1  0.63205892  -0.04112948  0.10015459  1
  V  V13  1  0.83277518  0.48911988  0.34390205  1
  V  V14  1  0.39735849  0.14427041  0.76506722  1
  V  V15  1  0.23770160  0.01950888  0.75962314  1
  V  V16  1  0.24485113  0.25551146  0.54548627  1
  V  V17  1  0.92528970  -0.01829903  0.89859552  1
  V  V18  1  0.47836657  0.03237027  0.52115341  1
  V  V19  1  0.79396438  0.62739812  0.77899375  1
  V  V20  1  -0.04758956  -0.02855240  0.54219043  1
  V  V21  1  0.26216022  0.50345775  0.78892295  1
  V  V22  1  0.38946167  0.87594494  0.53144844  1
  V  V23  1  -0.01621006  0.25867566  0.31193670  1
  V  V24  1  0.85993508  0.60565605  0.19011716  1
  V  V25  1  0.69787623  0.17291287  0.85257155  1
  V  V26  1  0.36990332  -0.03645588  0.36541816  1
  V  V27  1  0.14827038  0.23107745  0.40786611  1
  V  V28  1  0.67448478  0.43930230  0.21444729  1
  V  V29  1  0.11716591  0.69367109  0.43481324  1
  V  V30  1  0.03449019  0.32323877  0.78328804  1
  V  V31  1  0.61600286  0.23638705  0.37536241  1
  V  V32  1  0.36085927  0.72714662  0.62783199  1
  V  V33  1  0.25287569  0.76055369  0.49335511  1
  V  V34  1  0.35752593  0.04198129  0.89322461  1
  V  V35  1  0.36998108  0.11375736  0.26006551  1
  V  V36  1  0.89403910  0.76035292  0.60747610  1
  V  V37  1  0.07122217  -0.01211218  0.02315612  1
  V  V38  1  0.38296393  0.43623596  0.41298375  1
  V  V39  1  0.69814977  0.83492633  0.62530875  1
  V  V40  1  0.24101103  0.88427885  0.63125253  1
  V  V41  1  0.71584211  0.61775495  0.33016114  1
  V  V42  1  0.13251560  0.88244609  0.28097659  1
  V  V43  1  0.59966687  0.04184107  0.63796167  1
  V  V44  1  0.64503394  0.72445018  0.81347446  1
  V  V45  1  0.03121193  0.10503026  0.18241453  1
  V  V46  1  -0.00482438  0.83558704  0.38352399  1
  V  V47  1  0.15240953  0.09614654  0.53242455  1
  V  V48  1  0.84554027  0.24176645  0.56558133  1
  V  V49  1  0.12209367  0.62245627  0.05425129  1
  V  V50  1  0.73478239  0.00211440  0.73861772  1
  Zn  Zn51  1  0.55591522  0.05890110  0.83211698  1
  Zn  Zn52  1  0.66156494  0.55506721  0.89246361  1
  Zn  Zn53  1  0.51715525  0.06826526  0.33913201  1
  Zn  Zn54  1  0.66970543  0.92092003  0.89466293  1
  Zn  Zn55  1  0.31518507  0.06447816  0.59366855  1
  Zn  Zn56  1  0.30663085  0.12984666  0.06696452  1
  Zn  Zn57  1  0.52413717  0.80829426  0.69704246  1
  Zn  Zn58  1  1.07604167  0.47627369  0.70192507  1
  Zn  Zn59  1  0.06653850  0.83745881  0.55755450  1
  Zn  Zn60  1  0.81487865  0.60758502  0.50062946  1
  Zn  Zn61  1  0.20903639  0.16039283  0.21276170  1
  Zn  Zn62  1  0.99351907  0.13671081  0.45509163  1
  Zn  Zn63  1  0.27775703  0.44808488  0.24715010  1
  Zn  Zn64  1  1.00592369  0.90430835  0.17982515  1
  Zn  Zn65  1  0.22770984  0.68964475  0.71800608  1
  Zn  Zn66  1  0.30776136  0.52676352  0.58286245  1
  Zn  Zn67  1  0.27063852  0.23688115  0.92144881  1
  Zn  Zn68  1  0.45313629  0.96292173  0.18820738  1
  Zn  Zn69  1  0.19712355  0.92210496  0.44792033  1
  Zn  Zn70  1  0.87536723  0.04890578  0.07721987  1
  Zn  Zn71  1  0.81287113  0.83501372  0.78681413  1
  Zn  Zn72  1  0.75825139  -0.03710428  0.53901055  1
  Zn  Zn73  1  0.22086643  0.73952250  0.19681132  1
  Zn  Zn74  1  0.34985478  0.24430625  0.40087223  1
  Zn  Zn75  1  0.26602775  0.50687774  0.06709983  1
  Zn  Zn76  1  0.21655635  0.41111597  0.44701360  1
  Zn  Zn77  1  0.90431196  0.39139811  0.70217251  1
  Zn  Zn78  1  0.31349034  0.30301395  0.73399226  1
  Zn  Zn79  1  0.91886051  0.64032684  1.00618624  1
  Zn  Zn80  1  0.08868549  0.48739165  0.88170558  1
  Zn  Zn81  1  0.74171844  0.10804904  0.15572814  1
  Zn  Zn82  1  0.95929068  0.89137866  0.72680085  1
  Zn  Zn83  1  0.15045193  0.82169716  0.07930118  1
  Zn  Zn84  1  0.57525635  0.82043695  0.97855074  1
  Zn  Zn85  1  0.71466213  0.17557001  0.66331408  1
  Zn  Zn86  1  0.34393912  0.84339832  0.78437313  1
  Zn  Zn87  1  0.58873899  0.89546483  0.53398323  1
  Zn  Zn88  1  0.53221295  0.52793952  0.30537423  1
  Zn  Zn89  1  0.70280077  0.42790431  0.42558957  1
  Zn  Zn90  1  0.78630000  0.29178070  0.29239473  1
  Zn  Zn91  1  0.58929392  0.34293448  0.52781929  1
  Zn  Zn92  1  0.64374562  0.47625868  1.02762658  1
  Zn  Zn93  1  0.42443552  0.96874733  0.69994162  1
  Zn  Zn94  1  0.99023203  0.15021727  0.92418924  1
  Zn  Zn95  1  0.82384204  0.77543755  0.28721024  1
  Zn  Zn96  1  0.37558816  0.78050108  0.36165782  1
  Zn  Zn97  1  0.10252718  0.26033861  0.15353145  1
  Zn  Zn98  1  0.16860802  0.19102261  0.70261575  1
  Zn  Zn99  1  0.21693108  0.95480604  0.94638987  1
  Zn  Zn100  1  0.61727730  0.35467343  -0.12621903  1
  Zn  Zn101  1  0.12533700  0.06704140  0.33150042  1
  O  O102  1  0.12288967  0.12143650  0.14830775  1
  O  O103  1  0.11391664  0.12811500  0.61859887  1
  O  O104  1  0.14486854  0.67297832  0.14734988  1
  O  O105  1  0.17798752  0.62846973  0.63112460  1
  O  O106  1  0.65396421  0.05501907  0.11458949  1
  O  O107  1  0.61386515  0.13617956  0.63587294  1
  O  O108  1  0.65163785  0.66648413  0.14970074  1
  O  O109  1  0.68446075  0.55667214  0.57560771  1
  O  O110  1  0.40499256  0.34221639  0.41236622  1
  O  O111  1  0.44141947  0.37447961  0.92149665  1
  O  O112  1  0.39254542  0.87813831  0.41649024  1
  O  O113  1  0.36762587  0.92011460  0.87292407  1
  O  O114  1  0.79272434  0.38920881  0.37393046  1
  O  O115  1  0.88832819  0.46730100  0.78522548  1
  O  O116  1  0.90447515  0.81382057  0.36790947  1
  O  O117  1  0.89616022  0.91576615  0.82022342  1
  O  O118  1  0.27752459  -0.04172158  0.38473013  1
  O  O119  1  0.25821535  0.01561237  0.86629289  1
  O  O120  1  0.29438335  0.43918252  0.36664752  1
  O  O121  1  0.19626575  0.48995287  0.86319237  1
  O  O122  1  0.65974523  0.00845009  0.27293475  1
  O  O123  1  0.72697373  -0.01363897  0.83519414  1
  O  O124  1  0.71809345  0.48765462  0.33365177  1
  O  O125  1  0.76045929  0.57497556  0.84894388  1
  O  O126  1  0.22861844  0.50529742  0.16917240  1
  O  O127  1  0.30481319  0.51283816  0.69615581  1
  O  O128  1  0.31800733  0.93910191  0.07815465  1
  O  O129  1  0.25813411  0.99050301  0.65135083  1
  O  O130  1  0.65895839  0.42941194  0.11557436  1
  O  O131  1  0.73813272  0.52226374  0.52652842  1
  O  O132  1  0.80686586  1.01260844  0.15871194  1
  O  O133  1  0.70100547  1.00978301  0.62595005  1
  O  O134  1  0.00595465  0.34797371  0.32257507  1
  O  O135  1  0.01493043  0.38193919  0.70612944  1
  O  O136  1  0.01629112  0.87093942  0.29352948  1
  O  O137  1  0.05286497  0.86782100  0.77253138  1
  O  O138  1  0.45121166  0.48551981  0.37030161  1
  O  O139  1  0.53228509  0.33618039  0.79149777  1
  O  O140  1  0.51012268  0.81181422  0.22148627  1
  O  O141  1  0.45933430  0.87873469  0.76291482  1
  O  O142  1  0.46224227  0.07469037  0.24015042  1
  O  O143  1  0.48876727  0.12410828  0.77806405  1
  O  O144  1  0.46303736  0.58673605  0.23292733  1
  O  O145  1  0.45946879  0.52339406  0.89437512  1
  O  O146  1  1.03146168  0.06782191  0.26899287  1
  O  O147  1  0.96688363  0.24090923  0.79851636  1
  O  O148  1  0.93582051  0.55659511  0.20236559  1
  O  O149  1  1.04239281  0.69700887  0.79192556  1
  O  O150  1  0.27811899  0.31118504  0.01597358  1
  O  O151  1  0.35623963  0.25458936  0.52122379  1
  O  O152  1  0.34790646  0.70742698  -0.05389562  1
  O  O153  1  0.36274020  0.76978972  0.52062985  1
  O  O154  1  0.91597829  0.21415929  -0.02207393  1
  O  O155  1  0.87607884  0.16846945  0.49656087  1
  O  O156  1  0.88707892  0.73753632  -0.02802137  1
  O  O157  1  0.84447182  0.80244361  0.52451757  1
  O  O158  1  0.14715420  0.23528682  0.51899144  1
  O  O159  1  0.09731095  0.23211601  1.04463874  1
  O  O160  1  0.14903734  0.78515684  0.49249605  1
  O  O161  1  0.13335204  0.71946146  1.02025369  1
  O  O162  1  0.60561892  0.23296070  0.47911476  1
  O  O163  1  0.77156803  0.30534852  1.01410979  1
  O  O164  1  0.55005073  0.72889022  0.36520653  1
  O  O165  1  0.72525016  0.71903624  0.96522683  1
  O  O166  1  0.57913906  0.18298104  0.04850331  1
  O  O167  1  0.62680850  0.32432134  0.64706067  1
  O  O168  1  0.55345929  0.75790658  0.21350035  1
  O  O169  1  0.45416492  0.74096305  0.63713247  1
  O  O170  1  1.02863747  0.21636660  0.22144883  1
  O  O171  1  0.94286912  0.24781310  0.58232601  1
  O  O172  1  1.01704539  0.69372239  0.25889074  1
  O  O173  1  0.98623730  0.77259230  0.58545808  1
  O  O174  1  0.02721300  0.21995396  0.39711780  1
  O  O175  1  -0.07529641  0.30556666  0.79877934  1
  O  O176  1  0.03321014  0.74695779  0.40727707  1
  O  O177  1  0.03237633  0.72626203  0.85764769  1
  O  O178  1  0.52458029  0.25709280  0.35061843  1
  O  O179  1  0.46792474  0.31394243  0.94403109  1
  O  O180  1  0.50060394  0.77587745  0.38420923  1
  O  O181  1  0.63557190  0.80581058  0.87791839  1
  O  O182  1  0.24790099  0.12608062  0.53858256  1
  O  O183  1  0.22877169  0.16346801  0.99175374  1
  O  O184  1  0.22572095  0.66729728  0.48289533  1
  O  O185  1  0.21735614  0.60113338  1.02957889  1
  O  O186  1  0.71554212  0.02750659  0.44681305  1
  O  O187  1  0.77629897  0.17772286  0.91631393  1
  O  O188  1  0.73796665  0.63281519  0.42603050  1
  O  O189  1  0.75223386  0.70368916  1.04138324  1
  O  O190  1  0.19814573  0.43106960  0.02996887  1
  O  O191  1  0.24852140  0.35220348  0.53532876  1
  O  O192  1  0.28734604  0.89798314  0.01792637  1
  O  O193  1  0.26718261  0.88249095  0.52549329  1
  O  O194  1  0.81507984  0.29929451  0.07714656  1
  O  O195  1  0.68744681  0.37768165  0.51811029  1
  O  O196  1  0.79133676  0.83698478  -0.10021317  1
  O  O197  1  0.69527977  0.87048110  0.52762539  1
  O  O198  1  0.10591279  0.42200590  0.23944116  1
  O  O199  1  0.17861974  0.46239959  0.73089609  1
  O  O200  1  0.16203683  0.97526030  0.27646313  1
  O  O201  1  0.15184561  0.97872242  0.76692917  1
  O  O202  1  0.58602359  0.44157292  0.25252722  1
  O  O203  1  0.54451838  0.45684634  0.75876266  1
  O  O204  1  0.60226322  0.99123981  0.30840952  1
  O  O205  1  0.61268559  1.01986672  0.73296531  1
  O  O206  1  0.39311757  -0.07284307  0.27320889  1
  O  O207  1  0.35721354  0.02991831  0.76938042  1
  O  O208  1  0.34342138  0.53924523  0.25773375  1
  O  O209  1  0.33396012  0.53180278  0.84953439  1
  O  O210  1  0.88715125  0.09176877  0.31914543  1
  O  O211  1  0.82202038  0.01789888  0.72120637  1
  O  O212  1  0.76214625  0.54855771  0.15650081  1
  O  O213  1  0.74641186  0.43676362  0.69333204  1
  O  O214  1  0.14971949  0.32652558  0.39882593  1
  O  O215  1  0.06132492  0.38333048  0.86244410  1
  O  O216  1  0.11725746  0.87739713  0.38289245  1
  O  O217  1  0.17348061  0.87254830  0.87824443  1
  O  O218  1  0.61564268  0.34212013  0.39952917  1
  O  O219  1  0.51038163  0.39225836  0.75018920  1
  O  O220  1  0.67591436  0.86459934  0.37232403  1
  O  O221  1  0.56774007  0.94786415  0.85471647  1
  O  O222  1  0.35719424  0.22419016  0.10812024  1
  O  O223  1  0.37344541  0.12678412  0.66835442  1
  O  O224  1  0.35372444  0.56490077  0.11929113  1
  O  O225  1  0.34340264  0.63315251  0.59970221  1
  O  O226  1  0.94318794  0.10793473  0.14381850  1
  O  O227  1  0.82885081  0.18422379  0.65066694  1
  O  O228  1  0.86217846  0.60796121  0.08816510  1
  O  O229  1  0.86507994  0.66747168  0.58404999  1
  O  O230  1  0.21335465  0.25853529  0.16437969  1
  O  O231  1  0.24497905  0.25294859  0.64676473  1
  O  O232  1  0.24516447  0.78258722  0.10629042  1
  O  O233  1  0.25974642  0.77704168  0.61261625  1
  O  O234  1  0.80551616  0.14002046  0.06406961  1
  O  O235  1  0.74809513  0.20927930  0.55968613  1
  O  O236  1  0.80215779  0.85243937  0.06170217  1
  O  O237  1  0.70639241  0.74276636  0.61971544  1
  O  O238  1  0.24837258  0.22207123  0.42873265  1
  O  O239  1  0.25471875  0.26967226  0.82188688  1
  O  O240  1  0.27512660  0.77446929  0.40029931  1
  O  O241  1  0.30886069  0.75226876  0.91406995  1
  O  O242  1  0.71538978  0.24216825  0.37607687  1
  O  O243  1  0.67284080  0.26485814  0.84126049  1
  O  O244  1  0.73547938  0.70616433  0.29888615  1
  O  O245  1  0.74479433  0.72091230  0.78622258  1
  O  O246  1  0.03713559  0.09215771  0.01197378  1
  O  O247  1  -0.01094777  0.05884384  0.52530243  1
  O  O248  1  0.02455533  0.65022285  0.04601112  1
  O  O249  1  0.08742546  0.61615285  0.48791266  1
  O  O250  1  0.51257052  0.18809336  0.06211907  1
  O  O251  1  0.47220040  0.12398623  0.52996735  1
  O  O252  1  0.58300646  0.74233542  0.04354161  1
  O  O253  1  0.46213215  0.62940757  0.47555215  1
  O  O254  1  0.48878698  0.34453655  0.55640313  1
  O  O255  1  0.54309904  0.31091100  0.95474606  1
  O  O256  1  0.48365574  0.86908816  0.52982845  1
  O  O257  1  0.48453452  0.85046185  0.92974932  1
  O  O258  1  0.93969529  0.44459836  0.54232706  1
  O  O259  1  1.01701890  0.37146533  1.03102128  1
  O  O260  1  0.99911596  0.89489942  0.47815534  1
  O  O261  1  1.11586900  0.89977331  1.02372060  1
  O  O262  1  0.52751241  0.64107635  0.49458416  1
  O  O263  1  0.64591790  0.45118654  0.91851373  1
  O  O264  1  0.46338963  1.01193252  0.41080621  1
  O  O265  1  0.45945013  1.02337351  0.89538350  1
  O  O266  1  0.89890989  0.45077227  0.28976255  1
  O  O267  1  1.03459231  0.53477110  0.79932583  1
  O  O268  1  0.91620275  1.06635215  0.37560074  1
  O  O269  1  1.01024679  0.95418809  0.94276805  1
  O  O270  1  0.03790555  -0.00406034  0.12009158  1
  O  O271  1  -0.03059753  -0.05652660  0.63233689  1
  O  O272  1  -0.08762326  0.43375354  0.06099052  1
  O  O273  1  -0.09441048  0.46596635  0.60253095  1
  O  O274  1  0.54385553  -0.05821486  0.13687513  1
  O  O275  1  0.49684682  0.01550879  0.63333278  1
  O  O276  1  0.49470830  0.47382821  0.05498893  1
  O  O277  1  0.64076943  0.51397230  0.60864547  1
  O  O278  1  0.16835069  0.40906486  0.27521270  1
  O  O279  1  0.30131415  0.41078235  0.78607476  1
  O  O280  1  0.20813711  0.82139228  0.27047739  1
  O  O281  1  0.25389056  0.88594275  0.73902093  1
  O  O282  1  0.72644423  0.36061176  0.22983125  1
  O  O283  1  0.69967375  0.43909865  0.74436229  1
  O  O284  1  0.79968463  0.87078597  0.24316187  1
  O  O285  1  0.74016296  0.88572535  0.71308735  1
  O  O286  1  0.30121144  0.10228486  0.18349795  1
  O  O287  1  0.22251363  0.11327618  0.75152769  1
  O  O288  1  0.28002349  0.65718709  0.22347800  1
  O  O289  1  0.23676710  0.60147387  0.78336860  1
  O  O290  1  0.76011872  0.19416182  0.22623237  1
  O  O291  1  0.72174405  0.12636778  0.75977280  1
  O  O292  1  0.70633157  0.54760969  0.20915705  1
  O  O293  1  0.77252470  0.58199694  0.69606329  1
  O  O294  1  0.34601895  0.06884976  0.33901460  1
  O  O295  1  0.35559576  0.13967081  0.87250063  1
  O  O296  1  0.38653149  0.69263909  0.29168837  1
  O  O297  1  0.44042737  0.58746347  0.88250376  1
  O  O298  1  0.75645597  0.04893618  0.39470935  1
  O  O299  1  0.94274722  0.06639911  0.86254296  1
  O  O300  1  0.81511544  0.57904600  0.29314584  1
  O  O301  1  0.89583857  0.62774671  0.78578049  1
  O  O302  1  0.08744431  0.37849043  0.17638971  1
  O  O303  1  0.07682816  0.51344848  0.60306335  1
  O  O304  1  0.09824136  0.85055227  0.17837938  1
  O  O305  1  0.14643189  0.87902550  0.62799569  1
  O  O306  1  0.45586189  0.43002518  0.08918286  1
  O  O307  1  0.55707368  0.46994254  0.49300329  1
  O  O308  1  0.69595069  0.90888255  0.14801629  1
  O  O309  1  0.60088144  0.85684721  0.63970976  1
  O  O310  1  0.16394591  0.17381717  0.31562644  1
  O  O311  1  0.10657667  0.26748886  0.75181341  1
  O  O312  1  0.02080815  0.63079482  0.28174628  1
  O  O313  1  0.16386478  0.76827474  0.75607947  1
  O  O314  1  0.63179781  0.22263816  0.27527906  1
  O  O315  1  0.66769346  0.28912957  0.69040870  1
  O  O316  1  0.64248208  0.84492683  0.31230389  1
  O  O317  1  0.58882606  0.73448829  0.73739671  1
  O  O318  1  0.37757268  0.20637132  0.29812953  1
  O  O319  1  0.39169624  0.24331199  0.77443003  1
  O  O320  1  0.40756013  0.68392538  0.14701802  1
  O  O321  1  0.33231907  0.73851727  0.72937448  1
  O  O322  1  0.88737717  0.25352635  0.31028089  1
  O  O323  1  0.84208571  0.32213271  0.63841677  1
  O  O324  1  0.87921402  0.70058205  0.22273693  1
  O  O325  1  0.88946274  0.79295105  0.70862282  1
  O  O326  1  0.37298674  0.45135205  0.52102337  1
  O  O327  1  0.33444997  0.49213798  0.98815491  1
  O  O328  1  0.38329590  0.98891946  0.53258324  1
  O  O329  1  0.34199320  1.05100587  0.99150823  1
  O  O330  1  0.86578368  0.53023125  0.43181269  1
  O  O331  1  0.93295338  0.56116551  0.92099131  1
  O  O332  1  0.85988173  0.97666097  0.52005675  1
  O  O333  1  0.86591067  0.99553820  0.97572296  1
  O  O334  1  0.15872457  0.03586746  0.00379479  1
  O  O335  1  0.15336146  -0.00122966  0.52307554  1
  O  O336  1  0.09907357  0.55251025  0.11182974  1
  O  O337  1  0.21273144  0.50669037  0.52139628  1
  O  O338  1  0.63565421  -0.08192006  0.00153730  1
  O  O339  1  0.58011704  0.00679876  0.52371092  1
  O  O340  1  0.63460645  0.58352080  0.00676524  1
  O  O341  1  0.59972473  0.49352110  0.44330332  1
  O  O342  1  0.32219632  0.37587035  0.16885611  1
  O  O343  1  0.37036537  0.35329742  0.64919553  1
  O  O344  1  0.38828985  0.92131594  0.09045115  1
  O  O345  1  0.36881781  0.88495550  0.63236094  1
  O  O346  1  0.96038939  0.40849658  0.01065935  1
  O  O347  1  0.82778969  0.30579448  0.50220943  1
  O  O348  1  0.90741489  0.90444000  0.14843726  1
  O  O349  1  0.82104564  0.84120508  0.59381636  1
  O  O350  1  0.10870977  0.11224682  0.43818912  1
  O  O351  1  0.09906664  0.16397078  0.90220926  1
  O  O352  1  0.14897591  0.66497077  0.35007045  1
  O  O353  1  0.10291199  0.56468090  0.96613438  1
  O  O354  1  0.59988244  0.13723801  0.37920790  1
  O  O355  1  0.62638701  0.12655046  0.89148977  1
  O  O356  1  0.61825935  0.59698771  0.32448189  1
  O  O357  1  0.61572329  0.64364225  0.85159593  1
