# generated using pymatgen
data_V51Zn51O256
_symmetry_space_group_name_H-M   'P 1'
_cell_length_a   17.47803297
_cell_length_b   17.84791970
_cell_length_c   17.65995462
_cell_angle_alpha   89.04012922
_cell_angle_beta   90.18391275
_cell_angle_gamma   89.39893379
_symmetry_Int_Tables_number   1
_chemical_formula_structural   V51Zn51O256
_chemical_formula_sum   'V51 Zn51 O256'
_cell_volume   5507.85381949
_cell_formula_units_Z   1
loop_
 _symmetry_equiv_pos_site_id
 _symmetry_equiv_pos_as_xyz
  1  'x, y, z'
loop_
 _atom_site_type_symbol
 _atom_site_label
 _atom_site_symmetry_multiplicity
 _atom_site_fract_x
 _atom_site_fract_y
 _atom_site_fract_z
 _atom_site_occupancy
  V  V0  1  0.73578449  0.85539419  0.10490970  1
  V  V1  1  0.35373595  0.62115715  0.28994138  1
  V  V2  1  0.00849485  0.59127117  0.61704295  1
  V  V3  1  0.90633369  0.06964432  0.15635789  1
  V  V4  1  0.33374121  0.82849716  -0.00938933  1
  V  V5  1  0.18072458  0.16719812  0.50118818  1
  V  V6  1  0.45704710  0.62032656  0.12363882  1
  V  V7  1  0.17501298  0.64000609  0.36536841  1
  V  V8  1  0.23222505  0.87941318  0.68992564  1
  V  V9  1  0.86631870  0.55593453  0.37743276  1
  V  V10  1  0.84909824  0.24252663  0.65192753  1
  V  V11  1  0.49132796  0.21880603  0.71951449  1
  V  V12  1  0.07998977  0.08030094  0.06914815  1
  V  V13  1  0.75132665  0.68597437  0.38377234  1
  V  V14  1  0.19903043  0.70098412  -0.01296208  1
  V  V15  1  0.26076119  0.75537556  0.47209182  1
  V  V16  1  0.25820274  -0.01535668  0.21760919  1
  V  V17  1  0.00785894  0.78705806  0.71053509  1
  V  V18  1  0.50947276  -0.02615362  0.00714103  1
  V  V19  1  -0.02664638  0.47160219  0.48345836  1
  V  V20  1  -0.00358248  0.88630139  0.39318866  1
  V  V21  1  0.04570761  0.02215443  0.52635026  1
  V  V22  1  0.75313366  -0.00435856  0.23910504  1
  V  V23  1  0.34135326  0.58740691  0.66189269  1
  V  V24  1  0.61570995  0.18412260  0.02795522  1
  V  V25  1  0.21457208  0.51915355  0.24301380  1
  V  V26  1  0.37724337  0.37918307  0.00609096  1
  V  V27  1  0.46997187  0.79454288  0.86817945  1
  V  V28  1  0.50042515  0.70099633  0.71025064  1
  V  V29  1  0.33462097  -0.01652668  0.75410718  1
  V  V30  1  0.50185729  0.16981595  0.15606190  1
  V  V31  1  0.76532580  0.37238535  0.19589945  1
  V  V32  1  0.26365066  0.25280711  0.00522611  1
  V  V33  1  0.10107979  0.36806016  0.26194193  1
  V  V34  1  0.82903411  0.76747690  0.64937024  1
  V  V35  1  0.00783858  0.21486807  0.20558269  1
  V  V36  1  0.76519545  0.14077672  0.36824840  1
  V  V37  1  0.27736493  0.14008788  0.32693541  1
  V  V38  1  -0.06520818  0.73811401  0.15148291  1
  V  V39  1  0.47337753  0.74167005  0.29537568  1
  V  V40  1  0.68590630  0.38144490  0.82962163  1
  V  V41  1  0.34071788  0.49444241  0.83924904  1
  V  V42  1  0.00205073  0.43589209  -0.04388574  1
  V  V43  1  0.33515009  0.12512381  0.88726595  1
  V  V44  1  0.63227305  0.62809009  0.51635589  1
  V  V45  1  0.14347795  0.86429077  0.19555252  1
  V  V46  1  0.59290614  -0.04192589  0.16017096  1
  V  V47  1  -0.01676759  0.89380126  0.86001755  1
  V  V48  1  0.83654290  0.60449000  0.75615261  1
  V  V49  1  0.10158873  0.74466153  0.85695284  1
  V  V50  1  0.61121420  0.51032128  0.19690480  1
  Zn  Zn51  1  0.41771595  0.06431900  0.24601009  1
  Zn  Zn52  1  0.00842171  0.57901687  0.81633783  1
  Zn  Zn53  1  0.34690353  0.08042316  0.06647901  1
  Zn  Zn54  1  0.46692682  0.22717938  0.96065319  1
  Zn  Zn55  1  0.06029305  0.24372808  0.00993188  1
  Zn  Zn56  1  0.48171014  0.38910119  0.80004426  1
  Zn  Zn57  1  0.40473665  0.46971282  0.18420085  1
  Zn  Zn58  1  0.10554654  0.85050037  0.55497194  1
  Zn  Zn59  1  0.13783115  0.45733171  0.40940121  1
  Zn  Zn60  1  0.68460887  0.66171022  0.70626670  1
  Zn  Zn61  1  0.05636348  0.83492720  0.02459689  1
  Zn  Zn62  1  0.17040457  0.70368369  0.63825724  1
  Zn  Zn63  1  0.93857727  0.70274855  0.89617344  1
  Zn  Zn64  1  0.56269779  0.78730173  0.08001192  1
  Zn  Zn65  1  0.57304354  0.61885260  0.33767715  1
  Zn  Zn66  1  0.38703414  0.64829904  0.94689011  1
  Zn  Zn67  1  0.44464861  0.69583062  0.47059182  1
  Zn  Zn68  1  0.32144511  0.15527520  0.64449478  1
  Zn  Zn69  1  0.62727391  0.86876489  0.93735722  1
  Zn  Zn70  1  0.03651984  0.30065022  0.44080925  1
  Zn  Zn71  1  0.40634080  0.89431551  0.17440654  1
  Zn  Zn72  1  -0.06979657  0.45126570  0.26964663  1
  Zn  Zn73  1  0.90781188  0.16282946  0.46582084  1
  Zn  Zn74  1  0.19797409  0.89344611  0.87769818  1
  Zn  Zn75  1  0.64659709  0.79145604  0.60521638  1
  Zn  Zn76  1  0.16817898  0.67090578  0.17652058  1
  Zn  Zn77  1  0.26226379  0.78235330  0.28212150  1
  Zn  Zn78  1  0.71557410  0.46040280  0.54623632  1
  Zn  Zn79  1  0.53734391  0.32818690  0.09199794  1
  Zn  Zn80  1  0.83223816  0.82788119  0.30479192  1
  Zn  Zn81  1  0.74848868  0.05611439  0.07585863  1
  Zn  Zn82  1  0.66701364  0.69617647  0.21061495  1
  Zn  Zn83  1  0.88609621  0.28599433  0.32652059  1
  Zn  Zn84  1  0.59770739  0.07767771  0.30776384  1
  Zn  Zn85  1  0.88998734  0.34913439  0.81653486  1
  Zn  Zn86  1  0.69992442  0.18111501  0.20551438  1
  Zn  Zn87  1  0.06660355  0.03399427  0.25906596  1
  Zn  Zn88  1  0.88938534  0.44620895  0.65854573  1
  Zn  Zn89  1  0.83822114  0.93607869  0.74616672  1
  Zn  Zn90  1  0.35673337  0.29013503  0.83570155  1
  Zn  Zn91  1  0.71006033  0.36131697  1.03385397  1
  Zn  Zn92  1  -0.00817640  -0.00628530  0.72020650  1
  Zn  Zn93  1  0.19187807  0.20953603  0.17442871  1
  Zn  Zn94  1  0.90602417  1.01414419  0.33876622  1
  Zn  Zn95  1  0.54195011  0.10315516  0.86416294  1
  Zn  Zn96  1  0.57683348  0.55017928  0.79895379  1
  Zn  Zn97  1  0.65160842  0.31035205  0.64248521  1
  Zn  Zn98  1  0.83028576  0.59588621  0.56250839  1
  Zn  Zn99  1  0.29331519  0.56516674  0.48253834  1
  Zn  Zn100  1  0.91894985  0.72193625  0.47907081  1
  Zn  Zn101  1  0.19831290  0.41023900  0.92536868  1
  O  O102  1  0.14897860  0.12977186  0.11747830  1
  O  O103  1  0.24461175  0.18270913  0.57347860  1
  O  O104  1  0.02191493  0.67702314  0.18804805  1
  O  O105  1  0.10177781  0.61904893  0.61381876  1
  O  O106  1  0.60997335  0.16209060  0.13764105  1
  O  O107  1  0.67607909  0.07159539  0.59088561  1
  O  O108  1  0.64779852  0.59143047  0.16546984  1
  O  O109  1  0.63933628  0.62448383  0.61493125  1
  O  O110  1  0.40802981  0.43908788  0.44471106  1
  O  O111  1  0.36899696  0.39674857  0.81505914  1
  O  O112  1  0.43349165  0.97808236  0.50398436  1
  O  O113  1  0.39722636  0.85186706  0.91326145  1
  O  O114  1  0.79159118  0.39547562  0.46679788  1
  O  O115  1  0.94840368  0.39216412  0.73912114  1
  O  O116  1  0.89996477  0.89947196  0.36616126  1
  O  O117  1  0.88539300  0.90688521  0.84139275  1
  O  O118  1  0.27480900  -0.01960858  0.51815460  1
  O  O119  1  0.31352937  0.03901402  0.85032225  1
  O  O120  1  0.16760832  0.53407079  0.33294932  1
  O  O121  1  0.25012474  0.48909764  0.87204898  1
  O  O122  1  0.75886394  0.02842168  0.32948401  1
  O  O123  1  0.69093024  -0.06038076  0.85978623  1
  O  O124  1  0.77507725  0.53388198  0.37541174  1
  O  O125  1  0.61446647  0.56220761  0.95736261  1
  O  O126  1  0.16736294  0.55958875  0.16875917  1
  O  O127  1  0.31289793  0.37607889  0.53648091  1
  O  O128  1  0.27084186  1.02290321  0.13132074  1
  O  O129  1  0.12258717  1.15211249  0.72066436  1
  O  O130  1  0.69325401  0.44476591  0.20973775  1
  O  O131  1  0.80328736  0.49146600  0.59901878  1
  O  O132  1  0.71567747  0.96146582  0.12572663  1
  O  O133  1  0.70747456  0.93183836  0.64885306  1
  O  O134  1  -0.02021348  0.28422347  0.26753079  1
  O  O135  1  0.15593443  0.50077816  0.73159944  1
  O  O136  1  0.04552537  0.86644586  0.24339237  1
  O  O137  1  0.00132657  0.88025979  0.73101510  1
  O  O138  1  0.46501936  0.40619015  0.25900396  1
  O  O139  1  0.58433041  0.37978996  0.85355840  1
  O  O140  1  0.45304869  0.81544935  0.23634338  1
  O  O141  1  0.44888224  0.75770561  0.77531176  1
  O  O142  1  0.51531952  0.11871712  0.24626111  1
  O  O143  1  0.52470155  0.13824103  0.76112841  1
  O  O144  1  0.45772296  0.62998926  0.30910568  1
  O  O145  1  0.45330042  0.60629484  0.68353943  1
  O  O146  1  1.00470401  0.04337593  0.14132624  1
  O  O147  1  1.04248573  0.25024092  0.80913494  1
  O  O148  1  0.96842002  0.63308525  0.15573548  1
  O  O149  1  0.98324697  0.59111823  0.71112739  1
  O  O150  1  0.35916698  0.27462205  -0.04862917  1
  O  O151  1  0.45539476  0.29529510  0.52862698  1
  O  O152  1  0.31038061  0.73047450  -0.02437021  1
  O  O153  1  0.33820765  0.69126552  0.49395328  1
  O  O154  1  0.83586313  0.27282468  -0.03791291  1
  O  O155  1  0.85478074  0.20696948  0.55625266  1
  O  O156  1  0.92712689  0.68409817  0.01064601  1
  O  O157  1  0.84487784  0.76688173  0.55479859  1
  O  O158  1  0.11498193  0.23674991  0.49525973  1
  O  O159  1  0.17021949  0.24654496  0.97798362  1
  O  O160  1  0.18466526  0.76746026  0.53910829  1
  O  O161  1  0.10556311  0.75103579  0.97237075  1
  O  O162  1  0.65512146  0.37560951  0.56200616  1
  O  O163  1  0.63534682  0.28107211  1.04312146  1
  O  O164  1  0.66351750  0.73708008  0.51521087  1
  O  O165  1  0.61702123  0.73126647  0.98905038  1
  O  O166  1  0.49298572  0.26407896  0.17100458  1
  O  O167  1  0.56271770  0.25753415  0.66364045  1
  O  O168  1  0.51196925  0.69971389  0.11803342  1
  O  O169  1  0.54553048  0.75966933  0.65061309  1
  O  O170  1  1.02049882  0.24560437  0.11313125  1
  O  O171  1  0.94757723  0.23652247  0.63408520  1
  O  O172  1  0.98825428  0.80210950  0.10711703  1
  O  O173  1  1.03804074  0.78941370  0.61766433  1
  O  O174  1  -0.05677396  0.25186684  0.41785738  1
  O  O175  1  0.00569344  0.19826605  0.83797853  1
  O  O176  1  -0.01471877  0.80170626  0.44027144  1
  O  O177  1  -0.01744185  0.78574048  0.84276461  1
  O  O178  1  0.45942824  0.30772076  0.33986518  1
  O  O179  1  0.46622303  0.28203716  0.79400117  1
  O  O180  1  0.47472567  0.76736240  0.38840006  1
  O  O181  1  0.47425255  0.71805842  0.92487135  1
  O  O182  1  0.23738577  0.16897102  0.41742283  1
  O  O183  1  0.29642365  0.14189428  0.98241719  1
  O  O184  1  0.19486559  0.61544609  0.45902187  1
  O  O185  1  0.19036028  0.61161043  0.97476439  1
  O  O186  1  0.73157381  0.14256655  0.45495955  1
  O  O187  1  0.69630758  0.13040316  1.01487710  1
  O  O188  1  0.74821448  0.65207663  0.49985391  1
  O  O189  1  0.67870435  0.68756845  1.01210238  1
  O  O190  1  0.26539881  0.36062316  -0.00161792  1
  O  O191  1  0.27175117  0.38142965  0.47913517  1
  O  O192  1  0.25207122  0.87841448  -0.02956834  1
  O  O193  1  0.30091974  0.83629020  0.45892547  1
  O  O194  1  0.79128279  0.38191049  0.10168205  1
  O  O195  1  0.76318031  0.33527139  0.44719205  1
  O  O196  1  0.70491683  0.85876702  0.01065097  1
  O  O197  1  0.79113073  0.97549156  0.51277684  1
  O  O198  1  0.02904417  0.42374927  0.22725629  1
  O  O199  1  0.14279257  0.55492578  0.77182057  1
  O  O200  1  0.14869550  0.96849055  0.22178504  1
  O  O201  1  0.06185832  1.11775572  0.72349388  1
  O  O202  1  0.58852606  0.52366031  0.28854467  1
  O  O203  1  0.66554920  0.48126453  0.81767258  1
  O  O204  1  0.64044134  0.99605190  0.24349224  1
  O  O205  1  0.64797079  1.05203559  0.81714838  1
  O  O206  1  0.35816341  -0.02802345  0.24427145  1
  O  O207  1  0.42109286  -0.04225659  0.77804870  1
  O  O208  1  0.31846327  0.51632849  0.24107137  1
  O  O209  1  0.32805118  0.52163257  0.73745063  1
  O  O210  1  0.87366891  0.00606242  0.22739918  1
  O  O211  1  0.88760819  0.02448917  0.71079507  1
  O  O212  1  0.89842857  0.55503459  0.28304433  1
  O  O213  1  0.84728823  0.51127153  0.74081343  1
  O  O214  1  0.09968639  0.36321486  0.36419010  1
  O  O215  1  0.14750263  0.35834139  0.83908218  1
  O  O216  1  0.05302751  0.83948163  0.31738938  1
  O  O217  1  0.10338984  0.84930259  0.85596870  1
  O  O218  1  0.53256402  0.43266295  0.42155813  1
  O  O219  1  0.70786938  0.39081120  0.92733748  1
  O  O220  1  0.58014892  0.96839186  0.42695935  1
  O  O221  1  0.55817609  0.83259829  0.86178774  1
  O  O222  1  0.40725302  0.12655417  0.14752787  1
  O  O223  1  0.51875188  0.14624597  0.52855744  1
  O  O224  1  0.37704294  0.63246883  0.18048112  1
  O  O225  1  0.34274087  0.54121300  0.57763229  1
  O  O226  1  0.86248468  0.06109112  0.07127016  1
  O  O227  1  0.82576793  0.15797402  0.69510783  1
  O  O228  1  0.87409874  0.70439079  0.05983417  1
  O  O229  1  0.82677639  0.64747054  0.66260044  1
  O  O230  1  0.27117002  0.24388563  0.09941868  1
  O  O231  1  0.19046195  0.38788908  0.62693267  1
  O  O232  1  0.20394412  0.71237149  0.08353768  1
  O  O233  1  0.22762483  0.78564201  0.69521168  1
  O  O234  1  0.72372068  0.28685815  0.20201454  1
  O  O235  1  0.74520680  0.25601401  0.63603087  1
  O  O236  1  0.70816303  0.76508131  0.13938886  1
  O  O237  1  0.72788666  0.75898414  0.67586109  1
  O  O238  1  0.26029829  0.20790962  0.26155195  1
  O  O239  1  0.30559273  0.19504435  0.82385096  1
  O  O240  1  0.21990466  0.73932913  0.37776500  1
  O  O241  1  0.19648595  0.72334370  0.86716571  1
  O  O242  1  0.79644465  0.23065689  0.34472576  1
  O  O243  1  0.87587136  0.26589594  0.90239383  1
  O  O244  1  0.76496120  0.78025914  0.38206095  1
  O  O245  1  0.73168585  0.67976940  0.96469931  1
  O  O246  1  0.03960952  0.13889269  -0.00130111  1
  O  O247  1  0.13563179  0.08115982  0.55279351  1
  O  O248  1  -0.01101419  0.52898975  -0.01377129  1
  O  O249  1  -0.04781278  0.65054522  0.56041303  1
  O  O250  1  0.50789346  0.16597444  0.05050395  1
  O  O251  1  0.57188270  0.17238384  0.49235213  1
  O  O252  1  0.42223033  0.59833180  0.03746057  1
  O  O253  1  0.53286435  0.64055773  0.49615793  1
  O  O254  1  0.51124134  0.31408640  0.49211985  1
  O  O255  1  0.47321064  0.33283643  1.00314787  1
  O  O256  1  0.57113329  0.94957356  0.49539429  1
  O  O257  1  0.52916992  0.87559084  1.01148209  1
  O  O258  1  0.98982672  0.37834687  0.50343243  1
  O  O259  1  1.02760921  0.33664568  0.95265146  1
  O  O260  1  1.05013936  0.92700804  0.48274284  1
  O  O261  1  0.99336855  0.89297835  0.95655818  1
  O  O262  1  0.47066004  0.47194687  0.42288769  1
  O  O263  1  0.50239590  0.48462921  0.76509536  1
  O  O264  1  0.56520580  1.04446575  0.41073283  1
  O  O265  1  0.53680301  1.00690752  0.92083278  1
  O  O266  1  0.93172103  0.46020874  0.38654245  1
  O  O267  1  1.02809064  0.47737048  0.86329625  1
  O  O268  1  1.01644851  0.98426225  0.34417747  1
  O  O269  1  1.02024958  0.98073648  0.82604753  1
  O  O270  1  0.11917365  0.00813545  0.02672612  1
  O  O271  1  0.02887641  0.00329745  0.61815320  1
  O  O272  1  -0.04365470  0.41946237  0.04192651  1
  O  O273  1  -0.02442603  0.49425741  0.59485380  1
  O  O274  1  0.49844975  -0.03733188  0.18587488  1
  O  O275  1  0.63423689  0.09182607  0.64259747  1
  O  O276  1  0.50108899  0.53402709  0.16372059  1
  O  O277  1  0.52520420  0.46487672  0.58000803  1
  O  O278  1  0.18646283  0.42157455  0.24009940  1
  O  O279  1  0.19815846  0.31960637  0.79276204  1
  O  O280  1  0.25242693  0.87829623  0.22006199  1
  O  O281  1  0.23971960  0.92825691  0.78311930  1
  O  O282  1  0.63082677  0.34223667  0.35210039  1
  O  O283  1  0.78569499  0.38717072  0.81666425  1
  O  O284  1  0.76843830  0.89962464  0.24784550  1
  O  O285  1  0.71414111  0.95778509  0.71724243  1
  O  O286  1  0.23883323  0.05606687  0.28981247  1
  O  O287  1  0.33095045  0.06277182  0.69752247  1
  O  O288  1  0.23908191  0.63584879  0.27165355  1
  O  O289  1  0.26128519  0.63914246  0.66308197  1
  O  O290  1  0.76147633  0.08919228  0.18432644  1
  O  O291  1  0.69121687  0.01414265  0.86426593  1
  O  O292  1  0.74289347  0.66796153  0.28917465  1
  O  O293  1  0.74363795  0.61791767  0.78836479  1
  O  O294  1  0.37254054  0.12364029  0.33262662  1
  O  O295  1  0.43259666  0.13562246  0.89867814  1
  O  O296  1  0.33573377  0.58235749  0.37713525  1
  O  O297  1  0.37986172  0.57827583  0.86699885  1
  O  O298  1  0.86474340  0.10114401  0.38542943  1
  O  O299  1  0.90112335  0.09859235  0.89657705  1
  O  O300  1  0.85965076  0.66070941  0.39911861  1
  O  O301  1  0.89656941  0.62356030  0.83650461  1
  O  O302  1  0.11861152  0.28463471  0.21537660  1
  O  O303  1  0.12807561  0.41253929  0.60634100  1
  O  O304  1  0.13111148  0.86661698  0.10259214  1
  O  O305  1  0.16573811  0.91244266  0.62540375  1
  O  O306  1  0.58406650  0.43063388  0.11084623  1
  O  O307  1  0.67361585  0.37537326  0.72890443  1
  O  O308  1  0.60582780  0.86368643  0.14958127  1
  O  O309  1  0.63853459  0.90300452  0.63137195  1
  O  O310  1  0.06028749  0.14278251  0.25032405  1
  O  O311  1  0.17035831  0.29595702  0.73155196  1
  O  O312  1  0.16074498  0.76933236  0.22660165  1
  O  O313  1  0.08953450  0.73450549  0.75072826  1
  O  O314  1  0.62110948  0.28938495  0.39545544  1
  O  O315  1  0.68050376  0.28367107  0.83474526  1
  O  O316  1  0.56964169  0.71496925  0.27059961  1
  O  O317  1  0.57413842  0.65264233  0.76167689  1
  O  O318  1  0.42180678  0.35124604  0.29669766  1
  O  O319  1  0.41095745  0.20787185  0.66334916  1
  O  O320  1  0.35534872  0.72275331  0.29529293  1
  O  O321  1  0.41276487  0.67344457  0.64545817  1
  O  O322  1  0.91536256  0.16229991  0.19007009  1
  O  O323  1  0.87010369  0.26465606  0.75050934  1
  O  O324  1  0.89007904  0.76784642  0.23094457  1
  O  O325  1  0.91724594  0.74477882  0.70773279  1
  O  O326  1  0.23639056  0.45817966  0.46572621  1
  O  O327  1  0.38535092  0.45212544  0.94588628  1
  O  O328  1  0.42274533  1.02445912  0.45301566  1
  O  O329  1  0.41874045  1.00178505  1.03026142  1
  O  O330  1  0.89047722  0.54129471  0.48278385  1
  O  O331  1  0.91862737  0.41351563  0.90168681  1
  O  O332  1  0.97258056  1.07708701  0.49858467  1
  O  O333  1  0.83177833  1.09124734  0.89127931  1
  O  O334  1  0.11572812  0.08243869  -0.12374415  1
  O  O335  1  0.13248272  0.07337323  0.46768033  1
  O  O336  1  0.10207208  0.43672001  -0.02057814  1
  O  O337  1  0.05981816  0.51130636  0.46390325  1
  O  O338  1  0.58084906  0.01031430  0.07076746  1
  O  O339  1  0.72725850  -0.02651509  0.48426978  1
  O  O340  1  0.63565812  0.44717555  0.05505767  1
  O  O341  1  0.65220368  0.53438414  0.49857267  1
  O  O342  1  0.37906557  0.41083479  0.09750987  1
  O  O343  1  0.47696394  0.42725327  0.61278130  1
  O  O344  1  0.36864427  0.84936440  0.07829915  1
  O  O345  1  0.32351026  0.91453066  0.66952463  1
  O  O346  1  0.84654452  0.37653453  0.25772436  1
  O  O347  1  0.83969525  0.34455088  0.63843740  1
  O  O348  1  0.82953515  0.85050636  0.10207642  1
  O  O349  1  0.83448082  0.86129873  0.66858190  1
  O  O350  1  0.26827055  -0.01025106  0.44958030  1
  O  O351  1  0.15959582  0.13175501  0.85682158  1
  O  O352  1  0.08579825  0.66275283  0.35414969  1
  O  O353  1  0.04795136  0.65758624  0.87888417  1
  O  O354  1  0.67670871  0.15023998  0.30986905  1
  O  O355  1  0.57769485  0.18662615  0.93264677  1
  O  O356  1  0.65076823  0.65596803  0.40213150  1
  O  O357  1  0.55521894  0.55144788  0.91907512  1
