# generated using pymatgen
data_V51Zn51O256
_symmetry_space_group_name_H-M   'P 1'
_cell_length_a   17.33100264
_cell_length_b   17.37391136
_cell_length_c   17.37695582
_cell_angle_alpha   89.98584930
_cell_angle_beta   88.97466423
_cell_angle_gamma   89.15653744
_symmetry_Int_Tables_number   1
_chemical_formula_structural   V51Zn51O256
_chemical_formula_sum   'V51 Zn51 O256'
_cell_volume   5230.92365418
_cell_formula_units_Z   1
loop_
 _symmetry_equiv_pos_site_id
 _symmetry_equiv_pos_as_xyz
  1  'x, y, z'
loop_
 _atom_site_type_symbol
 _atom_site_label
 _atom_site_symmetry_multiplicity
 _atom_site_fract_x
 _atom_site_fract_y
 _atom_site_fract_z
 _atom_site_occupancy
  V  V0  1  0.00481076  0.00261631  -0.02432674  1
  V  V1  1  0.50322065  0.61312056  0.09716139  1
  V  V2  1  0.36799050  0.93301436  0.07238112  1
  V  V3  1  0.86399552  0.62391166  0.22539309  1
  V  V4  1  0.90890044  0.54058216  0.86890345  1
  V  V5  1  0.03181076  0.76035828  0.74815427  1
  V  V6  1  0.12628387  0.22070282  0.93053887  1
  V  V7  1  0.76214318  0.71706260  0.47756272  1
  V  V8  1  0.19114898  0.35051926  0.61750452  1
  V  V9  1  -0.00375858  0.62521890  0.62936761  1
  V  V10  1  0.00305918  0.47177432  0.00244232  1
  V  V11  1  0.75978424  0.39237917  0.06945385  1
  V  V12  1  0.84735737  -0.00861480  0.33801104  1
  V  V13  1  0.73213798  0.12126432  0.40756584  1
  V  V14  1  0.75081933  0.63155140  0.87036337  1
  V  V15  1  0.51236648  0.27249058  0.26740978  1
  V  V16  1  0.61197245  0.75861979  0.36532099  1
  V  V17  1  0.60079868  0.64282657  0.48533385  1
  V  V18  1  0.22396227  0.72103440  0.47174455  1
  V  V19  1  0.84929362  0.23793682  0.10300152  1
  V  V20  1  0.35797343  0.39069241  0.50170258  1
  V  V21  1  0.75190819  0.10804430  0.87233339  1
  V  V22  1  0.64683480  -0.01413117  0.62491657  1
  V  V23  1  0.26136928  0.50099389  0.26216306  1
  V  V24  1  0.38271121  0.62831631  0.22452796  1
  V  V25  1  0.12876582  0.52291360  0.59575947  1
  V  V26  1  0.24002135  0.60066308  0.86359352  1
  V  V27  1  0.79474524  0.74291773  -0.00187419  1
  V  V28  1  0.62067205  0.40713788  0.28405465  1
  V  V29  1  0.00067171  0.24662387  0.24431032  1
  V  V30  1  0.63310537  0.88911942  0.23809963  1
  V  V31  1  0.02269864  0.25256945  0.78978569  1
  V  V32  1  0.50154512  0.20674626  0.76859728  1
  V  V33  1  0.64586113  0.27242717  0.85769614  1
  V  V34  1  0.59586297  0.53006853  0.65016795  1
  V  V35  1  -0.00261159  0.06793064  0.58494713  1
  V  V36  1  0.87088045  0.74321598  0.63647186  1
  V  V37  1  0.37216378  0.27251447  0.11781972  1
  V  V38  1  0.14941430  0.48131602  0.11687236  1
  V  V39  1  0.23449493  0.48580907  0.73671804  1
  V  V40  1  0.75577634  0.50468798  0.27379365  1
  V  V41  1  0.78609483  -0.02208387  0.74923427  1
  V  V42  1  0.12935485  0.84846018  0.23470869  1
  V  V43  1  0.80893763  0.12467310  0.23399462  1
  V  V44  1  0.23489949  0.73108467  -0.01456895  1
  V  V45  1  0.76042347  0.87269973  0.11228037  1
  V  V46  1  0.39751663  0.41648718  0.01217672  1
  V  V47  1  0.38356208  0.75411932  0.64985765  1
  V  V48  1  0.87140963  0.86947585  0.48033842  1
  V  V49  1  0.19771302  0.24259561  0.38878245  1
  V  V50  1  0.00938458  0.11576821  0.12123844  1
  Zn  Zn51  1  0.80921909  0.80712283  0.81723004  1
  Zn  Zn52  1  0.56409535  0.68162853  0.92395834  1
  Zn  Zn53  1  0.74450154  0.42951869  0.87068438  1
  Zn  Zn54  1  0.57409825  0.81824664  0.56638081  1
  Zn  Zn55  1  0.20374282  1.03055563  0.96064375  1
  Zn  Zn56  1  0.33685508  0.32964677  0.30777836  1
  Zn  Zn57  1  0.57739027  0.03818806  0.79153379  1
  Zn  Zn58  1  0.83533151  0.56242631  0.04566443  1
  Zn  Zn59  1  0.57744960  0.07920572  0.29513656  1
  Zn  Zn60  1  0.56042383  0.82508791  0.07387349  1
  Zn  Zn61  1  0.92981884  0.16398627  0.93032861  1
  Zn  Zn62  1  0.03397266  0.76417113  0.52867517  1
  Zn  Zn63  1  0.48038678  0.30804795  0.62391778  1
  Zn  Zn64  1  1.03040663  0.15641328  0.40569851  1
  Zn  Zn65  1  0.31237553  0.79775355  0.32445490  1
  Zn  Zn66  1  0.71444271  0.71223328  0.19347778  1
  Zn  Zn67  1  0.38826188  0.35925510  0.77146622  1
  Zn  Zn68  1  0.58082009  0.34986208  0.02237867  1
  Zn  Zn69  1  0.44911317  0.45308485  0.18946937  1
  Zn  Zn70  1  0.80897990  0.05619314  0.05472185  1
  Zn  Zn71  1  0.04685390  0.31176578  0.08460991  1
  Zn  Zn72  1  0.69598152  0.91321140  0.44229909  1
  Zn  Zn73  1  0.58732625  0.60932450  0.27395050  1
  Zn  Zn74  1  0.80161453  0.80329976  0.30888156  1
  Zn  Zn75  1  0.94648292  0.90914142  0.65743688  1
  Zn  Zn76  1  0.67363835  0.14372209  0.70353143  1
  Zn  Zn77  1  0.82793081  0.93125962  0.93432063  1
  Zn  Zn78  1  0.20205096  0.65686089  0.15250316  1
  Zn  Zn79  1  0.95032578  0.64273553  0.43085106  1
  Zn  Zn80  1  0.07365906  0.58691563  0.81616033  1
  Zn  Zn81  1  0.19497970  0.31803318  0.20549866  1
  Zn  Zn82  1  0.11013347  0.88066913  0.03261804  1
  Zn  Zn83  1  0.43464279  0.10334215  0.19921736  1
  Zn  Zn84  1  0.88125952  0.11955636  0.73858431  1
  Zn  Zn85  1  0.91481744  0.42359928  0.17582714  1
  Zn  Zn86  1  0.81904157  0.04795197  0.56419454  1
  Zn  Zn87  1  0.14772459  0.17059401  0.67638117  1
  Zn  Zn88  1  0.92890775  0.92505250  0.09356049  1
  Zn  Zn89  1  0.65350087  0.26710231  0.15129241  1
  Zn  Zn90  1  0.00714440  0.01919153  0.25241785  1
  Zn  Zn91  1  0.31905804  0.56897941  0.57282474  1
  Zn  Zn92  1  1.02401501  0.45094976  0.72688660  1
  Zn  Zn93  1  0.96724120  0.81055994  0.92352105  1
  Zn  Zn94  1  0.07288777  0.56724176  0.24109578  1
  Zn  Zn95  1  0.44986367  0.93046207  0.25529028  1
  Zn  Zn96  1  0.18950144  0.67726643  0.70139911  1
  Zn  Zn97  1  0.39653887  0.71175070  0.86392280  1
  Zn  Zn98  1  0.18712152  0.43291659  0.94177828  1
  Zn  Zn99  1  0.74756886  0.28452040  0.29856215  1
  Zn  Zn100  1  0.44491566  0.28207999  0.92080969  1
  Zn  Zn101  1  0.72346750  0.64951210  0.66496606  1
  O  O102  1  0.10255487  0.11604557  0.11917765  1
  O  O103  1  0.07060610  0.10535183  0.63720987  1
  O  O104  1  0.11562725  0.58782688  0.13714153  1
  O  O105  1  0.12254292  0.62240341  0.62832916  1
  O  O106  1  0.61284568  0.15901281  0.10090594  1
  O  O107  1  0.62810238  0.08213849  0.61639715  1
  O  O108  1  0.59801660  0.66221912  0.12795402  1
  O  O109  1  0.61277361  0.63519028  0.62459431  1
  O  O110  1  0.35396668  0.38051213  0.40362299  1
  O  O111  1  0.34951538  0.39055200  0.91407814  1
  O  O112  1  0.40021883  0.91168392  0.41639220  1
  O  O113  1  0.40961602  0.95633371  0.98470055  1
  O  O114  1  0.87163713  0.40512890  0.41666531  1
  O  O115  1  0.88615289  0.32414485  0.85627268  1
  O  O116  1  0.85257593  0.88487096  0.36574879  1
  O  O117  1  0.88546890  0.86186634  0.87138920  1
  O  O118  1  0.25608327  -0.02349862  0.39557066  1
  O  O119  1  0.26908358  -0.02644536  0.89818064  1
  O  O120  1  0.25329979  0.51299917  0.35436664  1
  O  O121  1  0.22129862  0.49928327  0.85859301  1
  O  O122  1  0.75600050  -0.00014479  0.39828653  1
  O  O123  1  0.78084401  -0.00281517  0.85318724  1
  O  O124  1  0.76613859  0.52211820  0.36435931  1
  O  O125  1  0.79195295  0.52724865  0.86815661  1
  O  O126  1  0.24176019  0.48319311  0.09826023  1
  O  O127  1  0.23121126  0.50458443  0.62673552  1
  O  O128  1  0.22719102  1.08288269  0.25629514  1
  O  O129  1  0.24121830  0.95481182  0.72250578  1
  O  O130  1  0.76940825  0.48593453  0.09485023  1
  O  O131  1  0.70135016  0.53450598  0.66722055  1
  O  O132  1  0.75301542  0.97050917  0.10298243  1
  O  O133  1  0.74881602  0.98236824  0.63636466  1
  O  O134  1  -0.03706016  0.33945431  0.23047888  1
  O  O135  1  0.01572516  0.34713061  0.76206208  1
  O  O136  1  0.03845216  0.81342330  0.21727739  1
  O  O137  1  -0.00729971  0.85111614  0.73657095  1
  O  O138  1  0.52718229  0.38928151  0.24178899  1
  O  O139  1  0.48718477  0.36084680  0.71840092  1
  O  O140  1  0.53713633  0.86304140  0.23951805  1
  O  O141  1  0.60448097  0.79522720  0.73961489  1
  O  O142  1  0.52932486  0.17438975  0.24195701  1
  O  O143  1  0.49339054  0.11052488  0.79217981  1
  O  O144  1  0.47940546  0.61859147  0.25135711  1
  O  O145  1  0.50553752  0.67842753  0.83124679  1
  O  O146  1  0.99017215  0.13112252  0.22793900  1
  O  O147  1  0.91437091  0.26187295  0.58615800  1
  O  O148  1  0.97016928  0.61178372  0.26073569  1
  O  O149  1  1.01499917  0.64859786  0.73479614  1
  O  O150  1  0.39075141  0.26998334  0.01751325  1
  O  O151  1  0.17043143  0.35512504  0.40894562  1
  O  O152  1  0.31088062  0.85588894  0.05327635  1
  O  O153  1  0.33808611  0.79292521  0.57109213  1
  O  O154  1  0.87538136  0.22729848  0.01029548  1
  O  O155  1  0.77381781  0.32263426  0.54608669  1
  O  O156  1  0.89095266  0.75058038  -0.00257457  1
  O  O157  1  0.85709807  0.69293892  0.46515296  1
  O  O158  1  0.13782167  0.16226396  0.38367945  1
  O  O159  1  0.11517043  0.24328888  1.02350055  1
  O  O160  1  0.14027114  0.76232281  0.51013165  1
  O  O161  1  0.15797553  0.79557126  0.98461249  1
  O  O162  1  0.60683355  0.30013892  0.56901928  1
  O  O163  1  0.64579265  0.28148976  0.95575895  1
  O  O164  1  0.62021634  0.74904166  0.48745018  1
  O  O165  1  0.60975071  0.77926462  0.97669060  1
  O  O166  1  0.53815788  0.26669148  0.10247034  1
  O  O167  1  0.47824165  0.20852245  0.67264810  1
  O  O168  1  0.53883917  0.72050992  0.12453549  1
  O  O169  1  0.48018490  0.76651506  0.60871456  1
  O  O170  1  0.97357234  0.22842509  0.12667778  1
  O  O171  1  0.97794849  0.29095959  0.57848747  1
  O  O172  1  1.00176672  0.70939633  0.09290406  1
  O  O173  1  0.98651710  0.74320286  0.63363209  1
  O  O174  1  -0.01775582  0.23064111  0.34195065  1
  O  O175  1  0.02173246  0.22604371  0.89437544  1
  O  O176  1  0.05788011  0.66874698  0.37579069  1
  O  O177  1  0.03075452  0.75459885  0.84908426  1
  O  O178  1  0.49823339  0.27306906  0.35937426  1
  O  O179  1  0.54063313  0.25327775  0.86419698  1
  O  O180  1  0.51909209  0.77035746  0.37535958  1
  O  O181  1  0.47245926  0.75865102  0.92362860  1
  O  O182  1  0.26636503  0.22543924  0.44979607  1
  O  O183  1  0.34920384  0.13520256  0.93582815  1
  O  O184  1  0.26569044  0.65232520  0.53183158  1
  O  O185  1  0.20925137  0.63532273  0.95676061  1
  O  O186  1  0.75398227  0.11507259  0.50423157  1
  O  O187  1  0.75439823  0.10412195  0.97001726  1
  O  O188  1  0.71485945  0.63179524  0.49766866  1
  O  O189  1  0.78109970  0.63901186  0.98692370  1
  O  O190  1  0.29351153  0.39058495  -0.02522958  1
  O  O191  1  0.11990541  0.31101351  0.44541385  1
  O  O192  1  0.28144130  0.98841053  0.05833828  1
  O  O193  1  0.28315410  0.79337510  0.43124447  1
  O  O194  1  0.76777013  0.38841663  -0.02717334  1
  O  O195  1  0.74659406  0.37695352  0.51056614  1
  O  O196  1  0.76947219  0.85572614  0.00443392  1
  O  O197  1  0.77184460  0.83351123  0.48795382  1
  O  O198  1  0.15506260  0.49065849  0.23217339  1
  O  O199  1  0.12479530  0.49873958  0.74673278  1
  O  O200  1  0.10205675  0.94838208  0.24488573  1
  O  O201  1  0.17474964  0.96038175  0.70018418  1
  O  O202  1  0.64243989  0.50929819  0.25831866  1
  O  O203  1  0.57392407  0.56058068  0.74187824  1
  O  O204  1  0.63557901  0.98449743  0.25031374  1
  O  O205  1  0.60336552  0.96331344  0.71282102  1
  O  O206  1  0.38143882  -0.11180959  0.33579552  1
  O  O207  1  0.30363359  0.09718034  0.71125683  1
  O  O208  1  0.37236022  0.51736867  0.24328709  1
  O  O209  1  0.32536264  0.44536864  0.75417248  1
  O  O210  1  0.83162385  0.00588011  0.24132146  1
  O  O211  1  0.88168263  -0.02278428  0.72775486  1
  O  O212  1  0.85479075  0.50018973  0.23526447  1
  O  O213  1  0.93026146  0.49471607  0.78290144  1
  O  O214  1  0.04156542  0.41634701  0.36662603  1
  O  O215  1  0.15484177  0.33044758  0.89316914  1
  O  O216  1  0.11211903  0.84112122  0.33363026  1
  O  O217  1  0.13793121  0.89435636  0.83646215  1
  O  O218  1  0.60607564  0.40757117  0.37608713  1
  O  O219  1  0.67112111  0.36418652  0.82618864  1
  O  O220  1  0.64585617  0.85900718  0.35332311  1
  O  O221  1  0.59142542  0.90094329  0.92770712  1
  O  O222  1  0.39082635  0.17628136  0.13808871  1
  O  O223  1  0.31252782  0.09931877  0.63842024  1
  O  O224  1  0.40277011  0.64070965  0.12377775  1
  O  O225  1  0.39988272  0.65637965  0.62629905  1
  O  O226  1  0.85109478  0.12679779  0.13091496  1
  O  O227  1  0.90240832  0.09374662  0.62499144  1
  O  O228  1  0.88243096  0.62024745  0.12955667  1
  O  O229  1  0.89451440  0.63333274  0.63278358  1
  O  O230  1  0.27588141  0.28228733  0.12767448  1
  O  O231  1  0.16396521  0.25679846  0.61057337  1
  O  O232  1  0.26089519  0.71404219  0.07870121  1
  O  O233  1  0.28112108  0.74374414  0.67477268  1
  O  O234  1  0.75068782  0.24422807  0.09623260  1
  O  O235  1  0.65942563  0.26180175  0.59853876  1
  O  O236  1  0.75015160  0.74995078  0.09442927  1
  O  O237  1  0.77421921  0.72380791  0.60016298  1
  O  O238  1  0.24457241  0.26216364  0.29841291  1
  O  O239  1  0.21381118  0.27422302  0.89619528  1
  O  O240  1  0.21318927  0.67278249  0.39036750  1
  O  O241  1  0.30626964  0.75974563  0.92215031  1
  O  O242  1  0.73732402  0.21973619  0.38759114  1
  O  O243  1  0.72988984  0.21027131  0.84702170  1
  O  O244  1  0.73566738  0.73546424  0.38151617  1
  O  O245  1  0.76211075  0.74120193  0.89481676  1
  O  O246  1  -0.00990707  0.10382022  0.01176085  1
  O  O247  1  -0.00173226  0.10093539  0.49136346  1
  O  O248  1  0.05552912  0.68782076  0.05114388  1
  O  O249  1  0.00720502  0.64510693  0.52512189  1
  O  O250  1  0.55066756  0.18781560  0.07318343  1
  O  O251  1  0.43742564  0.12535272  0.45400504  1
  O  O252  1  0.51427316  0.61582622  0.00111016  1
  O  O253  1  0.50738111  0.63692544  0.49843671  1
  O  O254  1  0.43526353  0.33675777  0.53297012  1
  O  O255  1  0.49094084  0.38500397  0.97127746  1
  O  O256  1  0.44120573  0.97398389  0.56557495  1
  O  O257  1  0.45749562  0.87480644  1.07369924  1
  O  O258  1  0.91500771  0.36338169  0.45328433  1
  O  O259  1  1.00279106  0.37543223  0.99254907  1
  O  O260  1  0.95869818  0.82143169  0.46704069  1
  O  O261  1  1.00087366  0.88797354  1.00563105  1
  O  O262  1  0.43728215  0.52983791  0.39052475  1
  O  O263  1  0.45088984  0.50282842  0.84456498  1
  O  O264  1  0.43178832  0.97557763  0.41927694  1
  O  O265  1  0.56416848  1.05156202  0.98402206  1
  O  O266  1  1.00342269  0.46800461  0.33682428  1
  O  O267  1  1.01618106  0.53438506  0.90138790  1
  O  O268  1  0.94671950  1.00662985  0.34522417  1
  O  O269  1  1.00434227  1.01207802  0.88327851  1
  O  O270  1  -0.01265690  0.01060870  0.13899234  1
  O  O271  1  0.00901109  -0.03083408  0.58925302  1
  O  O272  1  -0.01490917  0.48321479  0.10105760  1
  O  O273  1  0.01540680  0.52239432  0.62967724  1
  O  O274  1  0.47648835  0.03464583  0.26842744  1
  O  O275  1  0.44434265  0.02133242  0.61798305  1
  O  O276  1  0.51900513  0.52041714  0.12693671  1
  O  O277  1  0.49878506  0.51963039  0.63930001  1
  O  O278  1  0.27291311  0.40014589  0.24227776  1
  O  O279  1  0.21335444  0.37096625  0.71037163  1
  O  O280  1  0.23147300  0.85204564  0.26099934  1
  O  O281  1  0.18735048  0.84416056  0.83333895  1
  O  O282  1  0.73360364  0.39658328  0.27119879  1
  O  O283  1  0.83998641  0.34884070  0.80831791  1
  O  O284  1  0.73416794  0.83973873  0.22453525  1
  O  O285  1  0.75390879  0.88563213  0.75564397  1
  O  O286  1  0.29669153  0.08286384  0.27051658  1
  O  O287  1  0.23551569  0.12472023  0.74032083  1
  O  O288  1  0.26951114  0.60409936  0.22058504  1
  O  O289  1  0.25922162  0.58376515  0.74047540  1
  O  O290  1  0.71532961  0.12535176  0.22468109  1
  O  O291  1  0.76504260  0.09196581  0.73956326  1
  O  O292  1  0.75630836  0.60632490  0.23023549  1
  O  O293  1  0.74578373  0.65081493  0.77286028  1
  O  O294  1  0.32252168  0.07919517  0.48292042  1
  O  O295  1  0.34193189  0.11420896  0.86884241  1
  O  O296  1  0.39837086  0.58837230  0.38900720  1
  O  O297  1  0.33586327  0.61838959  0.86365023  1
  O  O298  1  0.82376318  0.10715941  0.34020862  1
  O  O299  1  0.86055921  0.12689368  0.85377540  1
  O  O300  1  0.92237236  0.59895809  0.32891262  1
  O  O301  1  0.89155890  0.63402192  0.85893921  1
  O  O302  1  0.12335030  0.38089944  0.13213218  1
  O  O303  1  0.11130602  0.41117192  0.59939997  1
  O  O304  1  0.14915937  0.88274376  0.13753000  1
  O  O305  1  0.21927564  0.91541987  0.55337479  1
  O  O306  1  0.66117848  0.37292826  0.09693930  1
  O  O307  1  0.61396389  0.43509390  0.66575337  1
  O  O308  1  0.64015790  0.87497974  0.12917322  1
  O  O309  1  0.63203161  0.78984528  0.67235005  1
  O  O310  1  0.09665333  0.25769582  0.23051247  1
  O  O311  1  0.11391922  0.21726616  0.77289667  1
  O  O312  1  0.15688658  0.75139026  0.20854776  1
  O  O313  1  0.12413635  0.76955074  0.71388862  1
  O  O314  1  0.63091732  0.29318557  0.25861800  1
  O  O315  1  0.60994385  0.22032239  0.75133013  1
  O  O316  1  0.62883733  0.71977918  0.26907618  1
  O  O317  1  0.60878537  0.83182534  0.91116529  1
  O  O318  1  0.41402964  0.29002586  0.23047330  1
  O  O319  1  0.41098241  0.25844663  0.81156470  1
  O  O320  1  0.35701235  0.71574087  0.26583670  1
  O  O321  1  0.39058089  0.72746604  0.75159953  1
  O  O322  1  0.82979916  0.22698231  0.23400562  1
  O  O323  1  0.95551981  0.20235172  0.74161323  1
  O  O324  1  0.85148851  0.71931608  0.24941917  1
  O  O325  1  0.85839412  0.75472714  0.73017398  1
  O  O326  1  0.37283983  0.48539088  0.52937735  1
  O  O327  1  0.39713427  0.50954617  1.01371339  1
  O  O328  1  0.37706255  1.12623676  0.49721238  1
  O  O329  1  0.40494010  1.02260254  1.11577338  1
  O  O330  1  0.85901864  0.45022805  0.58991266  1
  O  O331  1  0.90201375  0.50198054  0.97388611  1
  O  O332  1  0.87303765  0.96452304  0.50125118  1
  O  O333  1  0.89152888  0.99156054  1.00427573  1
  O  O334  1  0.10872417  -0.01121125  -0.00004657  1
  O  O335  1  0.27699106  -0.04519540  0.55884875  1
  O  O336  1  0.11300270  0.48360166  0.01200448  1
  O  O337  1  0.13130142  0.53164486  0.50297713  1
  O  O338  1  0.60159635  0.01765124  0.03315438  1
  O  O339  1  0.62102839  -0.07954241  0.54654323  1
  O  O340  1  0.50884409  0.51006546  -0.11739623  1
  O  O341  1  0.60680914  0.52844586  0.54602211  1
  O  O342  1  0.40237796  0.38509698  0.11220830  1
  O  O343  1  0.27160520  0.36078189  0.55206784  1
  O  O344  1  0.36741884  0.91361843  0.17829373  1
  O  O345  1  0.40556419  0.84452332  0.69113381  1
  O  O346  1  0.84869457  0.34932435  0.11471709  1
  O  O347  1  0.84562820  0.40130757  0.63901327  1
  O  O348  1  0.85591557  0.86124229  0.14065133  1
  O  O349  1  0.87777011  0.83929691  0.59381053  1
  O  O350  1  0.19470440  0.01043905  0.40886122  1
  O  O351  1  0.16716162  0.13099404  0.93043061  1
  O  O352  1  0.09608327  0.61031126  0.35133151  1
  O  O353  1  0.16604137  0.65608412  0.81676283  1
  O  O354  1  0.63795532  0.09938940  0.38549920  1
  O  O355  1  0.65478814  0.07921358  0.85352443  1
  O  O356  1  0.60807403  0.63505271  0.38658734  1
  O  O357  1  0.65710882  0.62051183  0.89632162  1
