# generated using pymatgen
data_V51Zn51O256
_symmetry_space_group_name_H-M   'P 1'
_cell_length_a   17.64212922
_cell_length_b   17.75591625
_cell_length_c   17.58072466
_cell_angle_alpha   88.29447406
_cell_angle_beta   90.08195159
_cell_angle_gamma   90.68486013
_symmetry_Int_Tables_number   1
_chemical_formula_structural   V51Zn51O256
_chemical_formula_sum   'V51 Zn51 O256'
_cell_volume   5504.36398364
_cell_formula_units_Z   1
loop_
 _symmetry_equiv_pos_site_id
 _symmetry_equiv_pos_as_xyz
  1  'x, y, z'
loop_
 _atom_site_type_symbol
 _atom_site_label
 _atom_site_symmetry_multiplicity
 _atom_site_fract_x
 _atom_site_fract_y
 _atom_site_fract_z
 _atom_site_occupancy
  V  V0  1  0.77042048  0.46839690  0.65712014  1
  V  V1  1  0.49561028  0.75441585  0.76376879  1
  V  V2  1  0.10937013  0.91464790  0.26515624  1
  V  V3  1  0.86326517  0.94011220  0.49637309  1
  V  V4  1  0.21683817  0.35722801  0.09866988  1
  V  V5  1  0.40607453  0.24978905  0.11746567  1
  V  V6  1  0.78139269  0.84008469  -0.07396806  1
  V  V7  1  0.11445824  0.26311954  0.86109141  1
  V  V8  1  0.17687069  0.81005308  0.01051124  1
  V  V9  1  -0.02461677  0.02674708  0.60287783  1
  V  V10  1  0.11069422  0.15287567  0.00076881  1
  V  V11  1  0.50153615  0.50897141  0.48504440  1
  V  V12  1  0.07400340  0.67422462  0.48551873  1
  V  V13  1  0.38737793  0.53863557  0.91758012  1
  V  V14  1  0.63120907  0.21589883  0.86573739  1
  V  V15  1  0.09882148  0.51333878  0.59955674  1
  V  V16  1  0.50615498  0.11285413  0.09494201  1
  V  V17  1  0.73825195  0.58696669  0.86945548  1
  V  V18  1  0.80787450  0.02138979  0.90285724  1
  V  V19  1  -0.01445546  0.80641448  0.20917585  1
  V  V20  1  0.88623130  0.13369198  0.24313782  1
  V  V21  1  0.33962530  0.10871589  0.83787703  1
  V  V22  1  0.37662383  0.10400749  0.25312858  1
  V  V23  1  -0.04116041  0.40311349  0.86804841  1
  V  V24  1  0.86565863  0.76255196  0.59546192  1
  V  V25  1  0.13078060  0.42341716  0.78444912  1
  V  V26  1  0.86992841  0.27903985  0.15247434  1
  V  V27  1  0.92662696  0.64839480  0.18425058  1
  V  V28  1  0.00707655  0.27675941  0.29261790  1
  V  V29  1  0.32951669  0.26545100  -0.04630437  1
  V  V30  1  0.25461385  0.43092920  0.64913542  1
  V  V31  1  0.14385503  0.01407482  0.10352700  1
  V  V32  1  0.73234027  0.60272022  0.36055141  1
  V  V33  1  0.62288112  -0.01069147  0.12354505  1
  V  V34  1  0.48629955  0.06694225  0.89818647  1
  V  V35  1  -0.00567160  0.83153972  0.83623776  1
  V  V36  1  0.36978329  0.88850732  0.48762960  1
  V  V37  1  0.73738419  0.03995977  0.23044439  1
  V  V38  1  0.49183655  0.56454072  0.19976939  1
  V  V39  1  0.15457305  0.11938143  0.58148712  1
  V  V40  1  0.65289297  0.27047865  0.36760506  1
  V  V41  1  0.49314778  0.15960193  0.56439241  1
  V  V42  1  0.61476967  0.07327517  0.49399109  1
  V  V43  1  0.63802535  0.36675244  0.74335245  1
  V  V44  1  0.49040617  0.24034535  0.28866372  1
  V  V45  1  0.32880008  0.80688357  0.12962175  1
  V  V46  1  0.90919461  0.24843025  0.63400582  1
  V  V47  1  0.52046057  0.89699918  0.35423420  1
  V  V48  1  0.25930550  -0.04950541  0.75859415  1
  V  V49  1  0.23493508  0.65184500  0.36220559  1
  V  V50  1  0.77280482  0.30960234  0.55793805  1
  Zn  Zn51  1  0.60304437  0.25992787  0.05507680  1
  Zn  Zn52  1  0.37008281  0.44643948  0.10221484  1
  Zn  Zn53  1  0.08817252  0.12759357  0.21831921  1
  Zn  Zn54  1  0.02834301  0.83391713  0.57905351  1
  Zn  Zn55  1  0.47360616  0.70473680  1.06489888  1
  Zn  Zn56  1  0.95657696  0.99450724  0.19222155  1
  Zn  Zn57  1  0.93933951  0.44985484  0.24083220  1
  Zn  Zn58  1  0.95621054  0.40802139  0.68587757  1
  Zn  Zn59  1  0.69775097  0.96070632  0.38944292  1
  Zn  Zn60  1  0.66131439  0.19974681  0.20357896  1
  Zn  Zn61  1  -0.14625344  0.51966142  0.80000348  1
  Zn  Zn62  1  0.58718184  0.66948243  0.55720853  1
  Zn  Zn63  1  0.29747806  0.85057849  0.30969437  1
  Zn  Zn64  1  0.80357694  0.68140390  0.02566533  1
  Zn  Zn65  1  0.23574210  0.39688906  0.91055150  1
  Zn  Zn66  1  0.60041052  0.37790370  0.20829259  1
  Zn  Zn67  1  0.10217405  0.29639373  0.65812766  1
  Zn  Zn68  1  0.34366047  0.39404253  0.78496878  1
  Zn  Zn69  1  0.82533719  1.11106660  0.74301777  1
  Zn  Zn70  1  0.24126415  0.17484025  0.12845067  1
  Zn  Zn71  1  0.74657243  0.63717012  0.56158174  1
  Zn  Zn72  1  0.48703441  0.44456123  0.67969258  1
  Zn  Zn73  1  0.81318824  0.29671791  0.78613742  1
  Zn  Zn74  1  0.46300629  0.76388443  0.58684746  1
  Zn  Zn75  1  0.43107370  0.04760517  0.42490219  1
  Zn  Zn76  1  0.56106243  0.50466106  0.84601342  1
  Zn  Zn77  1  0.40771220  0.88687483  0.68639613  1
  Zn  Zn78  1  0.44295549  0.94184032  0.18128857  1
  Zn  Zn79  1  0.21560077  -0.00462985  0.92999248  1
  Zn  Zn80  1  0.19338619  0.63728906  0.67089403  1
  Zn  Zn81  1  0.51906390  0.76546910  0.23784720  1
  Zn  Zn82  1  0.80611329  0.10322109  0.55793820  1
  Zn  Zn83  1  0.97726928  0.81294315  1.02865727  1
  Zn  Zn84  1  0.29545175  0.51138453  0.47569801  1
  Zn  Zn85  1  0.81645311  0.08217025  0.09027923  1
  Zn  Zn86  1  0.62327883  0.57774093  0.72071508  1
  Zn  Zn87  1  0.44714426  0.71488204  0.42593148  1
  Zn  Zn88  1  0.19149702  0.78099929  0.83262994  1
  Zn  Zn89  1  1.04713947  0.33715590  1.03474513  1
  Zn  Zn90  1  0.58712076  0.31854007  0.55792576  1
  Zn  Zn91  1  0.24298462  0.23535267  0.71326639  1
  Zn  Zn92  1  0.68115334  0.16329445  0.62535519  1
  Zn  Zn93  1  1.05438597  0.22738539  0.47475544  1
  Zn  Zn94  1  0.56675018  0.07701190  0.30934061  1
  Zn  Zn95  1  0.88403004  0.65800717  0.43245289  1
  Zn  Zn96  1  0.18725080  0.76361794  0.21357409  1
  Zn  Zn97  1  0.33979660  0.03677732  0.59769065  1
  Zn  Zn98  1  0.83920305  0.72947787  0.77692677  1
  Zn  Zn99  1  0.75370022  0.40034642  0.25139776  1
  Zn  Zn100  1  0.28655584  0.25207271  0.25663857  1
  Zn  Zn101  1  0.63565816  0.95905063  0.92695416  1
  O  O102  1  0.14230870  0.12490889  0.11673562  1
  O  O103  1  0.16080882  0.19574447  0.64225650  1
  O  O104  1  0.19546746  0.64062500  0.08516136  1
  O  O105  1  0.09189586  0.61824909  0.57164169  1
  O  O106  1  0.60014562  0.14037340  0.12023112  1
  O  O107  1  0.57709947  0.12405247  0.60515430  1
  O  O108  1  0.58673425  0.57641489  0.22011334  1
  O  O109  1  0.65437619  0.63523678  0.63521123  1
  O  O110  1  0.30164714  0.33457425  0.33558038  1
  O  O111  1  0.41898234  0.45901411  0.85740188  1
  O  O112  1  0.34207389  0.89518908  0.39164797  1
  O  O113  1  0.48344295  0.86562341  0.98633523  1
  O  O114  1  0.91279883  0.42091388  0.44500420  1
  O  O115  1  0.87804197  0.35206384  0.85067294  1
  O  O116  1  0.91395381  0.91952046  0.42313181  1
  O  O117  1  0.84014143  0.92520389  0.91673109  1
  O  O118  1  0.20581491  -0.00762654  0.43758914  1
  O  O119  1  0.27188527  0.02004408  0.83920988  1
  O  O120  1  0.26218796  0.56042843  0.38535039  1
  O  O121  1  0.29788512  0.48985906  0.93207902  1
  O  O122  1  0.76572474  -0.01750037  0.30318471  1
  O  O123  1  0.71642839  0.01509574  0.87319889  1
  O  O124  1  0.70468171  0.51140582  0.34823188  1
  O  O125  1  0.76655161  0.49620517  0.87605382  1
  O  O126  1  0.26672080  0.43359466  0.13037497  1
  O  O127  1  0.19308918  0.53363475  0.64745833  1
  O  O128  1  0.22249280  0.96999782  0.11825228  1
  O  O129  1  0.33531947  0.96504827  0.68985328  1
  O  O130  1  0.81435122  0.48695204  0.06359554  1
  O  O131  1  0.74621324  0.41068677  0.58156118  1
  O  O132  1  0.73097998  1.00888219  0.13298116  1
  O  O133  1  0.69095112  0.91638765  0.65457069  1
  O  O134  1  0.01189373  0.37196290  0.27460888  1
  O  O135  1  0.02265110  0.39323580  0.78635006  1
  O  O136  1  -0.00386715  0.90622735  0.24181280  1
  O  O137  1  -0.06046493  0.78086449  0.77636000  1
  O  O138  1  0.51479323  0.32865847  0.24992747  1
  O  O139  1  0.57972858  0.37686868  0.66138811  1
  O  O140  1  0.48943932  0.87321809  0.25823188  1
  O  O141  1  0.40757708  0.76438100  0.69409364  1
  O  O142  1  0.48235004  0.13387347  0.26379351  1
  O  O143  1  0.57187316  -0.00887219  0.72441239  1
  O  O144  1  0.44958039  0.54853986  0.28742911  1
  O  O145  1  0.52621980  0.52590622  0.73848983  1
  O  O146  1  0.97997480  0.10238775  0.22262944  1
  O  O147  1  1.08858144  0.06505377  0.78840529  1
  O  O148  1  1.00782891  0.70241110  0.16802225  1
  O  O149  1  1.06639366  0.66876042  0.84963774  1
  O  O150  1  0.41751706  0.28976177  -0.03541868  1
  O  O151  1  0.31210450  0.24549758  0.50740276  1
  O  O152  1  0.37199821  0.73592048  0.08044119  1
  O  O153  1  0.38921363  0.75868588  0.50637599  1
  O  O154  1  0.84224723  0.31071471  0.03480247  1
  O  O155  1  0.96683622  0.20407014  0.54978864  1
  O  O156  1  0.81436764  0.78672592  0.00352745  1
  O  O157  1  0.84725355  0.85474721  0.55602963  1
  O  O158  1  0.13616498  0.15738590  0.49213003  1
  O  O159  1  0.10648984  0.24649963  1.02799465  1
  O  O160  1  0.07343783  0.76728353  0.50422596  1
  O  O161  1  0.08523346  0.79192223  1.03276390  1
  O  O162  1  0.60733635  0.29351869  0.45036561  1
  O  O163  1  0.61582922  0.25990353  0.94970255  1
  O  O164  1  0.53395888  0.74367342  0.49884599  1
  O  O165  1  0.66639599  0.71316373  1.05828190  1
  O  O166  1  0.49593987  0.23030622  0.08241458  1
  O  O167  1  0.49537414  0.25523411  0.56667892  1
  O  O168  1  0.47020873  0.66063911  0.22065796  1
  O  O169  1  0.48989995  0.65755029  0.60507220  1
  O  O170  1  0.97110235  0.31822285  0.12169265  1
  O  O171  1  0.99189503  0.30151973  0.66365592  1
  O  O172  1  0.94041261  0.83418166  0.12543066  1
  O  O173  1  0.95854636  0.75691991  0.61914273  1
  O  O174  1  -0.00186130  0.25600575  0.38768582  1
  O  O175  1  0.02302135  0.25135204  0.86318279  1
  O  O176  1  -0.06455516  0.76622907  0.29452978  1
  O  O177  1  -0.03726307  0.80412524  0.92544681  1
  O  O178  1  0.45418581  0.25317324  0.37241962  1
  O  O179  1  0.61239105  0.27056691  0.78164437  1
  O  O180  1  0.50736365  0.75398625  0.34487561  1
  O  O181  1  0.51446132  0.70127083  0.97155084  1
  O  O182  1  0.23837975  0.07387755  0.57941327  1
  O  O183  1  0.32635289  0.16998996  0.91305059  1
  O  O184  1  0.30997585  0.61723633  0.53215183  1
  O  O185  1  0.22584066  0.57870860  1.08764849  1
  O  O186  1  0.70220107  0.11527972  0.51876825  1
  O  O187  1  0.77973441  0.28823529  1.01038645  1
  O  O188  1  0.73135497  0.57342036  0.46131381  1
  O  O189  1  0.74519105  0.62554601  0.95832722  1
  O  O190  1  0.26012198  0.33761647  0.00633314  1
  O  O191  1  0.26936584  0.44078503  0.55178718  1
  O  O192  1  0.18978051  0.89950864  -0.02780047  1
  O  O193  1  0.29447758  0.86342014  0.53682192  1
  O  O194  1  0.75883702  0.45110515  0.04278843  1
  O  O195  1  0.77226326  0.32674179  0.46706409  1
  O  O196  1  0.68840956  0.86523035  -0.06023658  1
  O  O197  1  0.77247072  0.95879403  0.46856698  1
  O  O198  1  0.12235349  0.53229862  0.20927361  1
  O  O199  1  0.11459694  0.51092218  0.80205987  1
  O  O200  1  0.11740821  1.00979960  0.21693907  1
  O  O201  1  0.17807173  0.96801028  0.71879484  1
  O  O202  1  0.68103783  0.44520364  0.18339650  1
  O  O203  1  0.68652270  0.48625345  0.70706168  1
  O  O204  1  0.63564748  1.03381838  0.23235700  1
  O  O205  1  0.47422334  0.85575128  0.77516777  1
  O  O206  1  0.37331933  0.01279899  0.23034942  1
  O  O207  1  0.41817510  -0.13519443  0.96275130  1
  O  O208  1  0.30711088  0.40059493  0.30688820  1
  O  O209  1  0.34461445  0.58149581  0.83945899  1
  O  O210  1  0.85460976  0.04320027  0.19225705  1
  O  O211  1  0.86134387  0.06661515  0.83246965  1
  O  O212  1  0.94610575  0.55955207  0.21786105  1
  O  O213  1  0.85843072  0.45603405  0.71175227  1
  O  O214  1  0.17136830  0.32182759  0.43104872  1
  O  O215  1  0.13215252  0.36256358  0.88555412  1
  O  O216  1  0.09828580  0.92915961  0.35435939  1
  O  O217  1  0.08813292  0.81820262  0.82008236  1
  O  O218  1  0.67126974  0.35387744  0.30939043  1
  O  O219  1  0.60620558  0.41240908  0.82148349  1
  O  O220  1  0.61644884  0.89229718  0.36417146  1
  O  O221  1  0.42536214  0.71646730  0.82103284  1
  O  O222  1  0.41573619  0.12538432  0.13491791  1
  O  O223  1  0.41149380  0.12198884  0.60188436  1
  O  O224  1  0.40109807  0.53238657  0.15679613  1
  O  O225  1  0.32196199  0.62173748  0.60251756  1
  O  O226  1  0.85403227  0.18356432  0.12835654  1
  O  O227  1  0.96064237  0.15171747  0.61300818  1
  O  O228  1  0.86569744  0.64940243  0.10914042  1
  O  O229  1  0.84678111  0.68735609  0.53243661  1
  O  O230  1  0.32362865  0.21857031  0.06178472  1
  O  O231  1  0.26950705  0.33393288  0.67065207  1
  O  O232  1  0.22634091  0.79575850  0.10498027  1
  O  O233  1  0.18345808  0.79925632  0.63375228  1
  O  O234  1  0.79039273  0.31486003  0.18743563  1
  O  O235  1  0.82573751  0.21648889  0.56978768  1
  O  O236  1  0.64352125  0.77799643  0.05649720  1
  O  O237  1  0.67954379  0.71060723  0.51829820  1
  O  O238  1  0.28947058  0.21657881  0.44906317  1
  O  O239  1  0.30765857  0.31651031  0.86780697  1
  O  O240  1  0.28070876  0.74403901  0.39212876  1
  O  O241  1  0.20391216  0.75129504  0.94036620  1
  O  O242  1  0.72886339  0.22054954  0.38081135  1
  O  O243  1  0.74482784  0.24198857  0.86735249  1
  O  O244  1  0.78142852  0.69193962  0.39406305  1
  O  O245  1  0.78199445  0.79008291  0.84503722  1
  O  O246  1  0.02456786  0.12485421  -0.01343857  1
  O  O247  1  0.02020390  0.04888990  0.39964932  1
  O  O248  1  0.01618184  0.61905590  0.01686895  1
  O  O249  1  -0.01029051  0.64932267  0.44426929  1
  O  O250  1  0.50153675  0.10201459  -0.00351211  1
  O  O251  1  0.51290640  0.11612616  0.47223036  1
  O  O252  1  0.50192149  0.60298623  0.10042419  1
  O  O253  1  0.46629958  0.59874431  0.45128047  1
  O  O254  1  0.54626002  0.42483245  0.52087442  1
  O  O255  1  0.58639462  0.42278853  1.01415825  1
  O  O256  1  0.47568284  0.86777834  0.43828348  1
  O  O257  1  0.51687068  0.77420412  1.13055786  1
  O  O258  1  1.09949933  0.31077648  0.53806523  1
  O  O259  1  0.98987688  0.38653885  0.95909253  1
  O  O260  1  0.98802537  0.93328695  0.57572545  1
  O  O261  1  0.98627539  0.94004336  0.80516725  1
  O  O262  1  0.53323599  0.47624671  0.39887318  1
  O  O263  1  0.48492964  0.55998102  0.90341206  1
  O  O264  1  0.49661393  0.99357745  0.35290978  1
  O  O265  1  0.53749622  0.98851891  0.88301122  1
  O  O266  1  1.17027757  0.33292377  0.50170775  1
  O  O267  1  0.93788558  0.49749642  0.86483876  1
  O  O268  1  1.06910631  1.08844741  0.36748702  1
  O  O269  1  1.01179496  0.94920871  0.87331037  1
  O  O270  1  0.02372853  0.00537103  0.09535363  1
  O  O271  1  -0.06124795  0.02707161  0.68817062  1
  O  O272  1  0.08655327  0.52574941  0.15029771  1
  O  O273  1  0.01107416  0.48976321  0.63587265  1
  O  O274  1  0.51607899  0.01568009  0.13413430  1
  O  O275  1  0.50919092  -0.00880503  0.69320617  1
  O  O276  1  0.52193613  0.47046437  0.18688076  1
  O  O277  1  0.46838334  0.50732070  0.58386566  1
  O  O278  1  0.22487978  0.28280914  0.16819440  1
  O  O279  1  0.23385232  0.42561761  0.79606923  1
  O  O280  1  0.20166870  0.87216792  0.26194857  1
  O  O281  1  0.26094847  0.85744060  0.79126664  1
  O  O282  1  0.84399501  0.43575798  0.28685105  1
  O  O283  1  0.73558294  0.35018158  0.72887336  1
  O  O284  1  0.74838065  0.83756271  0.24435849  1
  O  O285  1  0.56084492  0.77347882  0.83149846  1
  O  O286  1  0.28091569  0.14407668  0.23067613  1
  O  O287  1  0.29747602  0.15489555  0.76258301  1
  O  O288  1  0.21054334  0.66823417  0.26847353  1
  O  O289  1  0.17367593  0.68296024  0.77111039  1
  O  O290  1  0.75203282  0.13884628  0.23670715  1
  O  O291  1  0.76029167  0.09822367  0.66213040  1
  O  O292  1  0.74392859  0.61953865  0.26430360  1
  O  O293  1  0.78847180  0.55314016  0.61257832  1
  O  O294  1  0.36668321  0.10152557  0.35052254  1
  O  O295  1  0.43520798  0.11266004  0.81073934  1
  O  O296  1  0.33816547  0.69142869  0.37376264  1
  O  O297  1  0.37241428  0.61856022  0.96804656  1
  O  O298  1  0.87612696  0.11594684  0.33329011  1
  O  O299  1  1.03332515  0.10590902  0.79016388  1
  O  O300  1  0.84047994  0.58559150  0.36014800  1
  O  O301  1  0.80710311  0.62434917  0.80240297  1
  O  O302  1  0.12722450  0.39058763  0.08801311  1
  O  O303  1  0.13796616  0.41013696  0.67821196  1
  O  O304  1  0.06984638  0.94160816  0.08194638  1
  O  O305  1  0.11226579  0.79019746  0.65667147  1
  O  O306  1  0.63879092  0.29393148  0.14836473  1
  O  O307  1  0.68373330  0.26965407  0.59324618  1
  O  O308  1  0.61789916  0.89971016  0.14391457  1
  O  O309  1  0.54400305  0.78189784  0.67380729  1
  O  O310  1  0.08356572  0.22757200  0.25949309  1
  O  O311  1  0.14509246  0.26958883  0.76632400  1
  O  O312  1  0.08577034  0.80826154  0.22557263  1
  O  O313  1  0.09036528  0.65645922  0.78526963  1
  O  O314  1  0.59514225  0.20837229  0.30261526  1
  O  O315  1  0.72486125  0.16557883  0.85447781  1
  O  O316  1  0.62169912  0.74694835  0.22276851  1
  O  O317  1  0.53217655  0.66644454  0.74725089  1
  O  O318  1  0.39637035  0.23785632  0.22322592  1
  O  O319  1  0.43922728  0.37359024  0.74450195  1
  O  O320  1  0.33207280  0.78733113  0.22662384  1
  O  O321  1  0.22096837  0.73636505  0.61804627  1
  O  O322  1  0.91657758  0.24235442  0.24564962  1
  O  O323  1  0.86588572  0.21961594  0.72279981  1
  O  O324  1  0.88803694  0.72966521  0.24100627  1
  O  O325  1  0.80832728  0.74059478  0.67110048  1
  O  O326  1  0.40709119  0.47580304  0.46678067  1
  O  O327  1  0.40483379  0.48317480  1.00499308  1
  O  O328  1  0.38187087  0.98929363  0.50590115  1
  O  O329  1  0.39618566  1.03464113  0.91900665  1
  O  O330  1  0.91359240  0.47192741  0.49061140  1
  O  O331  1  0.98632223  0.55633247  1.01883745  1
  O  O332  1  0.89132824  1.03772838  0.53478714  1
  O  O333  1  0.81520679  1.06845032  0.98682393  1
  O  O334  1  0.16568888  0.05553641  0.00240661  1
  O  O335  1  0.07340422  0.05936530  0.60234632  1
  O  O336  1  0.13738666  0.51228365  -0.02712816  1
  O  O337  1  0.11137221  0.47292533  0.51878250  1
  O  O338  1  0.62455848  -0.00003854  0.02699289  1
  O  O339  1  0.60736371  -0.01112242  0.53203700  1
  O  O340  1  0.60938974  0.47634257  -0.02794317  1
  O  O341  1  0.58084955  0.56704834  0.50736290  1
  O  O342  1  0.40416383  0.34565616  0.11501284  1
  O  O343  1  0.33371204  0.47041226  0.68799081  1
  O  O344  1  0.37550785  0.88968925  0.11138113  1
  O  O345  1  0.44146118  0.87023748  0.58524227  1
  O  O346  1  0.92099936  0.37823355  0.13903322  1
  O  O347  1  0.86908818  0.33742303  0.60748108  1
  O  O348  1  0.76607480  0.82516509  0.17863459  1
  O  O349  1  0.69719578  0.86238519  0.61342560  1
  O  O350  1  0.22716960  0.04371429  0.39476774  1
  O  O351  1  0.15530785  0.18007698  0.90722416  1
  O  O352  1  0.15039828  0.66051430  0.41947670  1
  O  O353  1  0.13893454  0.57596632  0.94354851  1
  O  O354  1  0.63642598  0.05931620  0.39606132  1
  O  O355  1  0.56988399  0.14011315  0.86646691  1
  O  O356  1  0.65066961  0.65204706  0.36163647  1
  O  O357  1  0.64239718  0.58738116  0.83325448  1
