# generated using pymatgen
data_V51Zn51O256
_symmetry_space_group_name_H-M   'P 1'
_cell_length_a   17.29179593
_cell_length_b   17.44826428
_cell_length_c   17.46021873
_cell_angle_alpha   90.08305652
_cell_angle_beta   89.49758875
_cell_angle_gamma   89.59787344
_symmetry_Int_Tables_number   1
_chemical_formula_structural   V51Zn51O256
_chemical_formula_sum   'V51 Zn51 O256'
_cell_volume   5267.61618042
_cell_formula_units_Z   1
loop_
 _symmetry_equiv_pos_site_id
 _symmetry_equiv_pos_as_xyz
  1  'x, y, z'
loop_
 _atom_site_type_symbol
 _atom_site_label
 _atom_site_symmetry_multiplicity
 _atom_site_fract_x
 _atom_site_fract_y
 _atom_site_fract_z
 _atom_site_occupancy
  V  V0  1  -0.00453918  0.34990663  0.40459297  1
  V  V1  1  0.16290853  0.49053368  0.61817703  1
  V  V2  1  0.48198079  0.63050810  0.63176722  1
  V  V3  1  0.59954603  0.40095548  0.74819044  1
  V  V4  1  0.90879694  0.51371313  0.35091706  1
  V  V5  1  0.12603209  0.89872081  0.78322241  1
  V  V6  1  0.62541223  0.53613533  0.12229695  1
  V  V7  1  0.65115124  0.07329245  0.05918209  1
  V  V8  1  0.24567250  0.88963847  0.15193480  1
  V  V9  1  0.37655079  0.76037033  0.61982803  1
  V  V10  1  0.14472879  0.12686796  0.52135581  1
  V  V11  1  0.47564908  0.87694786  0.87618882  1
  V  V12  1  0.75558809  0.36947801  0.15252070  1
  V  V13  1  0.36092871  0.35119121  0.01823591  1
  V  V14  1  0.12602484  0.50180598  0.10431355  1
  V  V15  1  0.13095946  0.73529896  0.37090263  1
  V  V16  1  0.23426897  0.58194052  0.35845142  1
  V  V17  1  -0.01340053  -0.03200114  -0.00404010  1
  V  V18  1  0.87054080  0.85916674  0.53199855  1
  V  V19  1  0.36005545  0.29303140  0.61627093  1
  V  V20  1  0.25942772  0.24643970  0.48454359  1
  V  V21  1  0.01274949  -0.01722800  0.51721267  1
  V  V22  1  -0.00647570  0.50011577  0.52040748  1
  V  V23  1  0.59683782  0.50124328  0.58070373  1
  V  V24  1  0.12395783  0.62172496  0.50624851  1
  V  V25  1  -0.00152096  0.75747613  0.22305995  1
  V  V26  1  0.12424263  0.28378319  0.88733922  1
  V  V27  1  0.91148632  0.50334531  0.89517284  1
  V  V28  1  0.63722614  0.08747787  0.49764042  1
  V  V29  1  -0.01498362  0.84496374  0.38494301  1
  V  V30  1  0.64928255  0.24442214  0.40369124  1
  V  V31  1  0.00557434  0.73796270  0.72547691  1
  V  V32  1  0.09788858  0.07828026  0.09271212  1
  V  V33  1  0.74517168  -0.00007097  0.27011327  1
  V  V34  1  0.32176714  0.04089451  0.85712682  1
  V  V35  1  0.21409054  0.77609429  0.02472681  1
  V  V36  1  0.49532700  0.08972658  0.63144170  1
  V  V37  1  0.47101983  0.03176440  0.04840605  1
  V  V38  1  0.39266191  0.03324866  0.34708719  1
  V  V39  1  0.61969215  0.32884916  0.24214246  1
  V  V40  1  0.73822264  0.53485409  0.26305674  1
  V  V41  1  0.48087096  0.52471276  0.44034713  1
  V  V42  1  0.44749109  0.66836124  0.14209180  1
  V  V43  1  0.12240002  0.88079770  0.26593457  1
  V  V44  1  0.47081748  0.24362217  0.73496638  1
  V  V45  1  0.84291674  -0.05274251  0.85821340  1
  V  V46  1  0.88696171  0.00016215  0.37752955  1
  V  V47  1  0.24834495  0.86747687  0.53109100  1
  V  V48  1  0.88880002  0.63173463  0.22005794  1
  V  V49  1  0.50529866  0.35106880  0.38379876  1
  V  V50  1  0.70824757  0.89017344  0.63237607  1
  Zn  Zn51  1  0.08891946  0.29406533  0.08264580  1
  Zn  Zn52  1  0.26365688  0.26015607  0.19408943  1
  Zn  Zn53  1  0.82179816  -0.00992722  0.05572916  1
  Zn  Zn54  1  0.69283122  0.63038585  0.64158806  1
  Zn  Zn55  1  0.96475190  1.00786212  0.18982423  1
  Zn  Zn56  1  0.06482625  0.05398351  0.37070293  1
  Zn  Zn57  1  0.80148145  0.36212575  0.38371330  1
  Zn  Zn58  1  0.06639175  0.79630225  0.55488605  1
  Zn  Zn59  1  0.47332632  0.46231337  0.24181039  1
  Zn  Zn60  1  0.32096926  0.33556657  0.81597074  1
  Zn  Zn61  1  0.64948540  0.41445287  0.46093193  1
  Zn  Zn62  1  0.96329153  0.91266370  0.69876731  1
  Zn  Zn63  1  0.20521267  0.98211977  0.39342646  1
  Zn  Zn64  1  0.00774144  0.03936783  0.79985651  1
  Zn  Zn65  1  0.17901404  0.94893776  0.96582285  1
  Zn  Zn66  1  0.99092251  0.15033714  0.91735247  1
  Zn  Zn67  1  0.30359850  0.55173319  0.20151930  1
  Zn  Zn68  1  0.50601082  0.88900026  0.67166143  1
  Zn  Zn69  1  0.72005122  0.18205116  0.19153066  1
  Zn  Zn70  1  0.17618482  0.68826993  0.19169659  1
  Zn  Zn71  1  0.93569590  0.42324054  0.08116314  1
  Zn  Zn72  1  0.78908147  0.50734768  0.51112204  1
  Zn  Zn73  1  0.70874891  0.92010516  0.44093518  1
  Zn  Zn74  1  0.31814666  0.57305038  0.53606930  1
  Zn  Zn75  1  0.81164944  0.78250178  0.77416615  1
  Zn  Zn76  1  0.08012622  0.55532794  0.79647358  1
  Zn  Zn77  1  0.60253746  0.65079919  0.24709087  1
  Zn  Zn78  1  0.45476643  0.19482209  0.47260908  1
  Zn  Zn79  1  0.84241893  0.84366587  0.26642348  1
  Zn  Zn80  1  0.57218190  0.29352470  0.05738278  1
  Zn  Zn81  1  0.29764284  0.09071478  0.15247647  1
  Zn  Zn82  1  0.98406152  0.37912287  0.79293226  1
  Zn  Zn83  1  0.94286515  0.16409969  0.47533442  1
  Zn  Zn84  1  0.41934235  0.67230728  0.33346358  1
  Zn  Zn85  1  0.44727115  0.18913768  0.93125145  1
  Zn  Zn86  1  0.92260354  0.67065442  0.46237137  1
  Zn  Zn87  1  0.30450126  0.83274198  0.34314198  1
  Zn  Zn88  1  0.32839723  0.87391746  0.72713640  1
  Zn  Zn89  1  0.06106709  0.57028297  0.28883317  1
  Zn  Zn90  1  0.82235494  0.04580066  0.55936934  1
  Zn  Zn91  1  0.12771123  0.33942759  0.53544677  1
  Zn  Zn92  1  0.01157869  0.76718768  0.01251733  1
  Zn  Zn93  1  0.65012433  0.98664269  0.88622308  1
  Zn  Zn94  1  0.51427926  0.52967725  0.78237119  1
  Zn  Zn95  1  0.79654584  0.36755012  0.79934385  1
  Zn  Zn96  1  0.31659793  0.04994994  0.54820916  1
  Zn  Zn97  1  0.21841107  0.46340121  0.91253415  1
  Zn  Zn98  1  0.43397193  0.86810370  0.10076278  1
  Zn  Zn99  1  0.48058180  0.71185636  0.99383384  1
  Zn  Zn100  1  0.19466013  0.37157871  0.35441059  1
  Zn  Zn101  1  0.58241341  0.07769360  0.31740176  1
  O  O102  1  0.06485781  0.05253947  0.18263244  1
  O  O103  1  0.12578309  0.08928253  0.60448307  1
  O  O104  1  0.11762959  0.60372174  0.11369071  1
  O  O105  1  0.14570145  0.64542294  0.59294401  1
  O  O106  1  0.67478108  0.16366190  0.08984659  1
  O  O107  1  0.60180932  0.11431551  0.59429999  1
  O  O108  1  0.63157612  0.63488278  0.13931304  1
  O  O109  1  0.58485955  0.63185675  0.63761918  1
  O  O110  1  0.39149844  0.33211943  0.34798714  1
  O  O111  1  0.38185573  0.35300038  0.91348315  1
  O  O112  1  0.37924507  0.93447983  0.32842443  1
  O  O113  1  0.37250021  0.90010723  0.90885744  1
  O  O114  1  0.90911836  0.39055292  0.36072158  1
  O  O115  1  0.93932252  0.39369412  0.90291738  1
  O  O116  1  0.88513437  0.87261652  0.36842568  1
  O  O117  1  0.83665033  0.85135566  0.85972307  1
  O  O118  1  0.28948495  0.04316413  0.34029545  1
  O  O119  1  0.24497658  0.02287943  0.91647944  1
  O  O120  1  0.21664235  0.48709082  0.35545386  1
  O  O121  1  0.29461389  0.53292748  0.93830412  1
  O  O122  1  0.77660853  -0.01712880  0.37076169  1
  O  O123  1  0.75089163  -0.01814621  0.84144197  1
  O  O124  1  0.79426678  0.48684257  0.33209668  1
  O  O125  1  0.81922669  0.46122618  0.86496347  1
  O  O126  1  0.22521951  0.50090742  0.12675519  1
  O  O127  1  0.25837513  0.50802740  0.60285290  1
  O  O128  1  0.25013189  0.98497374  0.16174220  1
  O  O129  1  0.27432416  0.95183829  0.57326438  1
  O  O130  1  0.71878780  0.49732061  0.16616202  1
  O  O131  1  0.69686635  0.53400211  0.58108729  1
  O  O132  1  0.72258433  1.00812881  0.08927554  1
  O  O133  1  0.77828285  0.98239101  0.65127146  1
  O  O134  1  -0.06333875  0.27150739  0.23843089  1
  O  O135  1  0.06960131  0.44240954  0.77109223  1
  O  O136  1  0.00331403  0.85629432  0.26949723  1
  O  O137  1  0.04369239  0.83679039  0.74607941  1
  O  O138  1  0.52273182  0.35493973  0.26139383  1
  O  O139  1  0.51303854  0.34217688  0.70174539  1
  O  O140  1  0.53182049  0.85873357  0.25864864  1
  O  O141  1  0.45587394  0.86631152  0.78001907  1
  O  O142  1  0.51698413  0.13513575  0.25679676  1
  O  O143  1  0.50013685  0.14412203  0.72126788  1
  O  O144  1  0.49032450  0.66041116  0.23623538  1
  O  O145  1  0.45565444  0.59698865  0.72069999  1
  O  O146  1  1.04299647  0.15310048  0.30071665  1
  O  O147  1  0.98445850  0.14458218  0.81041087  1
  O  O148  1  0.99808388  0.65261499  0.23868754  1
  O  O149  1  1.04663069  0.65875658  0.76704678  1
  O  O150  1  0.35754472  0.24970168  -0.01077582  1
  O  O151  1  0.36402418  0.25501637  0.50339628  1
  O  O152  1  0.31438182  0.70685964  0.01275887  1
  O  O153  1  0.46851644  0.81955275  0.45605505  1
  O  O154  1  0.87743359  0.18393448  -0.04373956  1
  O  O155  1  0.84153355  0.21134439  0.60628697  1
  O  O156  1  0.82987230  0.78252510  0.06932672  1
  O  O157  1  0.87186171  0.76754815  0.49950114  1
  O  O158  1  0.13069635  0.22741321  0.51426274  1
  O  O159  1  0.14783830  0.27470144  0.98745988  1
  O  O160  1  0.10611474  0.72415688  0.47257771  1
  O  O161  1  0.12293833  0.76255470  0.99733702  1
  O  O162  1  0.64682997  0.25320912  0.49658192  1
  O  O163  1  0.68559640  0.35597518  0.99552773  1
  O  O164  1  0.75936557  0.67418901  0.50511515  1
  O  O165  1  0.66149282  0.76746039  0.94112796  1
  O  O166  1  0.54002216  0.22530553  -0.01414800  1
  O  O167  1  0.44668941  0.23018283  0.62536850  1
  O  O168  1  0.45625093  0.76156150  0.10063878  1
  O  O169  1  0.47926134  0.73628444  0.63599236  1
  O  O170  1  1.04495720  0.17702215  0.08783969  1
  O  O171  1  1.00833148  0.23101422  0.66216653  1
  O  O172  1  1.00931656  0.77131548  0.12961725  1
  O  O173  1  1.00911369  0.73630287  0.62677055  1
  O  O174  1  -0.02997241  0.25882383  0.43019615  1
  O  O175  1  0.02817399  0.26032670  0.92418960  1
  O  O176  1  -0.02027122  0.74815236  0.38315367  1
  O  O177  1  0.17050485  0.71954826  0.84749651  1
  O  O178  1  0.51938040  0.24957066  0.39746360  1
  O  O179  1  0.46795777  0.23998957  0.83232174  1
  O  O180  1  0.60534469  0.72284559  0.46482566  1
  O  O181  1  0.48708643  0.78637656  0.91749407  1
  O  O182  1  0.25115262  0.13918662  0.52820077  1
  O  O183  1  0.19048102  0.10144471  1.08580615  1
  O  O184  1  0.22389875  0.60472626  0.46584122  1
  O  O185  1  0.25118447  0.66651473  1.00847065  1
  O  O186  1  0.73240517  0.09720518  0.51869308  1
  O  O187  1  0.67254425  0.20114122  0.89298702  1
  O  O188  1  0.81968646  0.62060375  0.51593747  1
  O  O189  1  0.71847917  0.61194327  0.95942164  1
  O  O190  1  0.26733428  0.38651033  -0.01065662  1
  O  O191  1  0.21630596  0.34163946  0.46124010  1
  O  O192  1  0.22935763  0.88062787  0.04136822  1
  O  O193  1  0.24745382  0.88742913  0.42942637  1
  O  O194  1  0.73725163  0.38608936  0.03646887  1
  O  O195  1  0.75730303  0.41166301  0.47255151  1
  O  O196  1  0.67973653  0.77756085  -0.12871798  1
  O  O197  1  0.75739824  0.87683899  0.53517322  1
  O  O198  1  0.10369727  0.50203878  0.20711911  1
  O  O199  1  0.13541166  0.53839463  0.70038960  1
  O  O200  1  0.12680534  0.97175963  0.30768331  1
  O  O201  1  0.09236738  0.98636335  0.75243278  1
  O  O202  1  0.65269956  0.56397672  0.30216194  1
  O  O203  1  0.58119862  0.48610479  0.69109486  1
  O  O204  1  0.64761049  0.99510289  0.28269454  1
  O  O205  1  0.69805654  0.98978893  0.66885137  1
  O  O206  1  0.39531345  0.06491662  0.25293697  1
  O  O207  1  0.34753179  -0.00949779  0.75945776  1
  O  O208  1  0.36803136  0.47006028  0.21863337  1
  O  O209  1  0.30463188  0.55436890  0.74750845  1
  O  O210  1  0.90227378  0.00385791  0.27834320  1
  O  O211  1  0.91375893  -0.03038754  0.78489575  1
  O  O212  1  0.91119795  0.53055126  0.24615236  1
  O  O213  1  0.93409084  0.49572507  0.79187307  1
  O  O214  1  0.07786774  0.34820381  0.35107726  1
  O  O215  1  0.13068150  0.38711416  0.90798985  1
  O  O216  1  0.09739729  0.83909328  0.37587088  1
  O  O217  1  0.12457340  0.90145988  0.88058570  1
  O  O218  1  0.61629121  0.35066512  0.37314565  1
  O  O219  1  0.55764346  0.43649447  0.83046716  1
  O  O220  1  0.65456201  0.83331505  0.38128366  1
  O  O221  1  0.56306441  0.92443792  0.87735322  1
  O  O222  1  0.34370482  0.19637157  0.15049766  1
  O  O223  1  0.39975111  0.07902240  0.61072259  1
  O  O224  1  0.35422965  0.63970322  0.15508193  1
  O  O225  1  0.38199727  0.65266365  0.58508682  1
  O  O226  1  0.86487513  0.21838354  0.01808652  1
  O  O227  1  0.88755631  0.14042059  0.57430171  1
  O  O228  1  0.88464266  0.62615188  0.12830133  1
  O  O229  1  0.84495196  0.59832132  0.68009900  1
  O  O230  1  0.15997458  0.25827369  0.15291669  1
  O  O231  1  0.26112077  0.27934424  0.60324934  1
  O  O232  1  0.21525147  0.76460885  0.12598799  1
  O  O233  1  0.31770035  0.79160435  0.53738489  1
  O  O234  1  0.77551119  0.27459399  0.15580807  1
  O  O235  1  0.85566204  0.27196221  0.57176128  1
  O  O236  1  0.75864932  0.63961278  0.00941303  1
  O  O237  1  0.73519224  0.70846923  0.56877580  1
  O  O238  1  0.26035687  0.21684649  0.39529697  1
  O  O239  1  0.21765163  0.29475259  0.84370458  1
  O  O240  1  0.22621127  0.74046509  0.36829298  1
  O  O241  1  0.25184815  0.79682665  0.91486521  1
  O  O242  1  0.74401720  0.26532936  0.37842553  1
  O  O243  1  0.77190031  0.28228110  0.87188052  1
  O  O244  1  0.69479254  0.79036622  0.32870362  1
  O  O245  1  0.73231602  0.72573059  0.84100226  1
  O  O246  1  0.02684124  0.12892350  0.02382572  1
  O  O247  1  0.02435618  0.08630989  0.48987994  1
  O  O248  1  -0.04060204  0.68108523  -0.01264734  1
  O  O249  1  0.01075984  0.60701913  0.49930203  1
  O  O250  1  0.47429569  0.08711114  -0.03092163  1
  O  O251  1  0.51473013  0.11013500  0.51709155  1
  O  O252  1  0.48297355  0.62160981  0.06023547  1
  O  O253  1  0.48530217  0.61562433  0.40529810  1
  O  O254  1  0.48833192  0.38292150  0.47088523  1
  O  O255  1  0.45777771  0.32888754  1.05357845  1
  O  O256  1  0.51826860  0.86688553  0.47213622  1
  O  O257  1  0.47741143  0.93265938  1.02773330  1
  O  O258  1  1.02371376  0.39466405  0.49426092  1
  O  O259  1  0.98868823  0.33098559  1.07314404  1
  O  O260  1  0.98503326  0.86300820  0.49473273  1
  O  O261  1  0.99181023  0.87325181  0.98018950  1
  O  O262  1  0.48820332  0.46572644  0.35421630  1
  O  O263  1  0.43976292  0.55973387  0.88296062  1
  O  O264  1  0.49129245  1.00760051  0.35036727  1
  O  O265  1  0.40262118  0.97529446  0.89882503  1
  O  O266  1  1.00837280  0.50267187  0.36055823  1
  O  O267  1  1.00547330  0.54106641  0.89400178  1
  O  O268  1  0.99080362  0.97139245  0.39758052  1
  O  O269  1  1.00337382  1.02926653  0.91793500  1
  O  O270  1  -0.07026026  -0.01052613  0.08692054  1
  O  O271  1  -0.01262175  -0.01924122  0.61269715  1
  O  O272  1  0.02246323  0.49261492  0.09239778  1
  O  O273  1  -0.02789721  0.49338183  0.61036403  1
  O  O274  1  0.55859779  0.05279489  0.10241405  1
  O  O275  1  0.52034342  0.00084776  0.66036263  1
  O  O276  1  0.54743518  0.49678480  0.17046912  1
  O  O277  1  0.49404954  0.54513793  0.56734096  1
  O  O278  1  0.23991021  0.34253099  0.25802529  1
  O  O279  1  0.27336877  0.43278390  0.82075231  1
  O  O280  1  0.22700990  0.86021844  0.26111352  1
  O  O281  1  0.21860556  0.87892166  0.75226358  1
  O  O282  1  0.71126936  0.37950270  0.25163074  1
  O  O283  1  0.69754311  0.39234000  0.75756259  1
  O  O284  1  0.77815674  0.91738837  0.22010123  1
  O  O285  1  0.74491913  0.82757621  0.69709956  1
  O  O286  1  0.24498374  0.15420317  0.23029188  1
  O  O287  1  0.28320657  0.04055172  0.75639552  1
  O  O288  1  0.21902197  0.60765187  0.25146078  1
  O  O289  1  0.28722057  0.61145836  0.78350556  1
  O  O290  1  0.76459015  0.08988165  0.23417914  1
  O  O291  1  0.80216474  0.17823470  0.74932522  1
  O  O292  1  0.78448886  0.62264155  0.24816689  1
  O  O293  1  0.78542794  0.62644012  0.71306117  1
  O  O294  1  0.41092936  0.12730497  0.38212080  1
  O  O295  1  0.35718836  0.12833327  0.87327514  1
  O  O296  1  0.33064600  0.60006244  0.34632479  1
  O  O297  1  0.41899799  0.62787464  0.89372648  1
  O  O298  1  0.88770346  0.09335475  0.40259592  1
  O  O299  1  0.84648784  0.12653859  0.76781302  1
  O  O300  1  0.89075812  0.60898183  0.37067897  1
  O  O301  1  0.86166983  0.58578121  0.89853475  1
  O  O302  1  0.12846769  0.39989138  0.10177372  1
  O  O303  1  0.14188717  0.39523823  0.62852420  1
  O  O304  1  0.12043234  0.89233175  0.17032601  1
  O  O305  1  0.16711774  0.83448301  0.57536240  1
  O  O306  1  0.62584713  0.33640371  0.14012454  1
  O  O307  1  0.60650007  0.40596372  0.57296269  1
  O  O308  1  0.51926285  0.90193953  0.20383697  1
  O  O309  1  0.61218150  0.87063419  0.62799014  1
  O  O310  1  0.09624628  0.19964755  0.28978312  1
  O  O311  1  0.06898110  0.30148553  0.80359315  1
  O  O312  1  0.10620921  0.75131512  0.26052470  1
  O  O313  1  0.23916910  0.73685816  0.86182514  1
  O  O314  1  0.63782705  0.23324644  0.26237887  1
  O  O315  1  0.57644612  0.29271797  0.73199383  1
  O  O316  1  0.65191051  0.76081662  0.27262620  1
  O  O317  1  0.66005555  0.60609240  0.80707792  1
  O  O318  1  0.38266574  0.28997437  0.29029864  1
  O  O319  1  0.36782718  0.28376327  0.73250626  1
  O  O320  1  0.39440143  0.77658496  0.32968640  1
  O  O321  1  0.32254626  0.75294589  0.69948804  1
  O  O322  1  0.93198252  0.22012582  0.19068884  1
  O  O323  1  0.89341946  0.33824320  0.75560416  1
  O  O324  1  0.89114747  0.74845561  0.23501093  1
  O  O325  1  0.91054284  0.74013380  0.75334963  1
  O  O326  1  0.38734645  0.51440209  0.46991275  1
  O  O327  1  0.39598160  0.44305329  1.03151177  1
  O  O328  1  0.37605000  1.01819304  0.44913620  1
  O  O329  1  0.38789038  1.05113876  1.09871390  1
  O  O330  1  0.90053584  0.49809536  0.47307477  1
  O  O331  1  0.90477544  0.48685073  0.99399372  1
  O  O332  1  0.87936955  0.96775648  0.49658857  1
  O  O333  1  0.86874229  0.97421799  0.95444829  1
  O  O334  1  0.08583072  -0.01237914  0.03510551  1
  O  O335  1  0.10290490  -0.04581655  0.51025234  1
  O  O336  1  0.14385190  0.51417184  0.00738461  1
  O  O337  1  0.10981717  0.51337232  0.52715727  1
  O  O338  1  0.64713614  0.06587869  -0.03851772  1
  O  O339  1  0.62841787  -0.00747470  0.47551480  1
  O  O340  1  0.62690079  0.51370164  0.03088636  1
  O  O341  1  0.58886987  0.51183991  0.47150422  1
  O  O342  1  0.31530262  0.33454395  0.10531565  1
  O  O343  1  0.38347628  0.38325818  0.60986034  1
  O  O344  1  0.34053957  0.86334911  0.15657382  1
  O  O345  1  0.40245632  0.86254654  0.63695067  1
  O  O346  1  0.84583197  0.40743731  0.14042184  1
  O  O347  1  1.00305187  0.29892890  0.64399659  1
  O  O348  1  0.78325204  0.80530997  0.02144924  1
  O  O349  1  0.89003187  0.85876090  0.62550515  1
  O  O350  1  0.15891370  0.07533971  0.42739977  1
  O  O351  1  0.14816469  0.18722577  0.86913888  1
  O  O352  1  0.12282373  0.62820519  0.36237818  1
  O  O353  1  0.16031554  0.54787532  0.87104066  1
  O  O354  1  0.63158088  0.13532159  0.40064913  1
  O  O355  1  0.69592398  0.25739248  0.85471374  1
  O  O356  1  0.63211021  0.67073369  0.42569955  1
  O  O357  1  0.59841005  0.60971987  0.84457880  1
