# generated using pymatgen
data_V51Zn51O256
_symmetry_space_group_name_H-M   'P 1'
_cell_length_a   17.24036134
_cell_length_b   17.37609839
_cell_length_c   17.41221586
_cell_angle_alpha   90.98115577
_cell_angle_beta   89.79536824
_cell_angle_gamma   89.35435591
_symmetry_Int_Tables_number   1
_chemical_formula_structural   V51Zn51O256
_chemical_formula_sum   'V51 Zn51 O256'
_cell_volume   5215.04836158
_cell_formula_units_Z   1
loop_
 _symmetry_equiv_pos_site_id
 _symmetry_equiv_pos_as_xyz
  1  'x, y, z'
loop_
 _atom_site_type_symbol
 _atom_site_label
 _atom_site_symmetry_multiplicity
 _atom_site_fract_x
 _atom_site_fract_y
 _atom_site_fract_z
 _atom_site_occupancy
  V  V0  1  0.34947990  -0.00220380  0.84609312  1
  V  V1  1  0.32386666  0.10083298  0.29020494  1
  V  V2  1  0.47544417  0.23594556  0.72284706  1
  V  V3  1  0.92955894  -0.00420795  0.88478202  1
  V  V4  1  0.74313758  0.50957329  0.25437224  1
  V  V5  1  0.14856571  0.22587351  0.91670552  1
  V  V6  1  0.71697310  0.34710455  0.12669475  1
  V  V7  1  -0.00702091  0.49813090  0.00899295  1
  V  V8  1  0.73041523  -0.04586004  0.75579199  1
  V  V9  1  0.19689214  0.68941263  0.52345802  1
  V  V10  1  0.40061770  0.61723956  0.26875379  1
  V  V11  1  0.09954468  0.36473916  0.74835986  1
  V  V12  1  0.87458878  0.24916585  0.63463855  1
  V  V13  1  0.62136952  0.63078192  0.50695039  1
  V  V14  1  0.88068605  0.61937672  0.23880715  1
  V  V15  1  0.53474534  0.12680200  0.07804581  1
  V  V16  1  0.50389509  0.75960907  0.26126475  1
  V  V17  1  0.24079067  0.61946518  0.35395667  1
  V  V18  1  0.41345926  0.71952117  0.11274125  1
  V  V19  1  0.77273420  0.87875444  0.59207406  1
  V  V20  1  0.43244012  0.35454090  -0.01174220  1
  V  V21  1  0.73912907  0.09302375  0.85463809  1
  V  V22  1  0.22196067  0.41753679  0.11361404  1
  V  V23  1  0.84088523  0.36878743  -0.00362415  1
  V  V24  1  -0.01496254  0.39421816  0.40381327  1
  V  V25  1  0.08243550  0.38923530  0.22891552  1
  V  V26  1  -0.01568594  0.36097293  0.89801564  1
  V  V27  1  0.74732130  0.75522486  0.00695587  1
  V  V28  1  0.37758252  0.50440558  0.86407902  1
  V  V29  1  0.91020468  0.77445371  0.65180769  1
  V  V30  1  0.88011792  0.25356923  0.12714396  1
  V  V31  1  -0.00106588  0.20834638  0.79646575  1
  V  V32  1  0.60191502  0.54533349  0.13945327  1
  V  V33  1  0.02669216  0.88682544  0.37592800  1
  V  V34  1  0.74886991  0.28476011  0.49011502  1
  V  V35  1  0.27235853  0.82211113  0.12194189  1
  V  V36  1  0.38838421  0.90382952  0.02639909  1
  V  V37  1  0.74599447  0.12993050  0.36536677  1
  V  V38  1  0.56532105  0.53133771  -0.12123550  1
  V  V39  1  0.50169555  0.86557942  0.89725220  1
  V  V40  1  0.75691325  0.88515183  0.13913242  1
  V  V41  1  0.13432630  -0.07178750  0.07478542  1
  V  V42  1  0.14479461  0.00930379  0.63832872  1
  V  V43  1  -0.00225271  0.10717601  0.59876224  1
  V  V44  1  0.88286957  0.75835225  0.14122021  1
  V  V45  1  0.61070487  0.91062351  0.25654217  1
  V  V46  1  0.37863190  0.90424782  0.47920327  1
  V  V47  1  0.64468096  0.77302311  0.38353455  1
  V  V48  1  0.64490677  0.07212552  0.56953936  1
  V  V49  1  0.63453067  0.00512972  0.08344872  1
  V  V50  1  0.89880506  0.56783393  0.41839999  1
  Zn  Zn51  1  0.92163708  0.22700048  0.43589445  1
  Zn  Zn52  1  0.05786125  0.55101783  0.32174974  1
  Zn  Zn53  1  0.57824791  0.87681623  0.56425275  1
  Zn  Zn54  1  0.44868024  0.70142569  0.43339615  1
  Zn  Zn55  1  0.19212242  0.98609462  0.45556282  1
  Zn  Zn56  1  0.26859167  0.51956358  0.50344216  1
  Zn  Zn57  1  0.47001724  0.09136483  0.51956686  1
  Zn  Zn58  1  0.62535648  0.41027196  1.00298139  1
  Zn  Zn59  1  0.80843534  0.02398686  0.02165719  1
  Zn  Zn60  1  0.60055036  0.60786002  0.31226088  1
  Zn  Zn61  1  0.68845938  0.73460783  0.61105317  1
  Zn  Zn62  1  0.57718339  0.05451084  0.75884804  1
  Zn  Zn63  1  0.84969427  0.77084487  0.35452237  1
  Zn  Zn64  1  0.50287659  0.07017687  0.30970452  1
  Zn  Zn65  1  0.42529056  0.95600249  0.66704104  1
  Zn  Zn66  1  0.69949396  0.89800479  0.93032349  1
  Zn  Zn67  1  0.18552971  0.14509528  0.76929756  1
  Zn  Zn68  1  0.05830401  0.29830864  0.56869303  1
  Zn  Zn69  1  0.90590507  0.43572265  0.16964103  1
  Zn  Zn70  1  0.23612021  0.28957026  0.25021663  1
  Zn  Zn71  1  0.04459335  0.09120825  0.40595585  1
  Zn  Zn72  1  0.37756759  0.15424109  0.96791990  1
  Zn  Zn73  1  0.39814044  0.49617297  0.13585553  1
  Zn  Zn74  1  0.87329461  0.16873559  0.95124179  1
  Zn  Zn75  1  0.06741846  0.29782265  0.05572674  1
  Zn  Zn76  1  0.45744632  0.67448137  0.91125318  1
  Zn  Zn77  1  0.79947523  0.08256500  0.64260305  1
  Zn  Zn78  1  0.83391339  0.80640018  0.82335070  1
  Zn  Zn79  1  0.13820901  0.02684624  0.90202676  1
  Zn  Zn80  1  1.00635702  0.70335681  0.44456251  1
  Zn  Zn81  1  0.87921684  0.63502145  1.02060764  1
  Zn  Zn82  1  0.28513493  0.05344311  0.09797421  1
  Zn  Zn83  1  0.68408710  0.95212425  0.43642495  1
  Zn  Zn84  1  0.24751143  0.38726987  0.90069091  1
  Zn  Zn85  1  0.68941924  0.19405300  0.71878948  1
  Zn  Zn86  1  0.08498577  0.73541997  0.10635578  1
  Zn  Zn87  1  0.74575570  0.49023246  0.46500219  1
  Zn  Zn88  1  0.24054238  0.61405367  0.15484630  1
  Zn  Zn89  1  0.82926745  0.68769054  0.52249485  1
  Zn  Zn90  1  0.93949292  0.95994557  0.67300328  1
  Zn  Zn91  1  0.50977132  0.31705070  0.12283352  1
  Zn  Zn92  1  0.56946945  0.82126367  0.07677814  1
  Zn  Zn93  1  0.25804595  0.83649112  0.62895329  1
  Zn  Zn94  1  0.58679201  0.31851712  0.60649888  1
  Zn  Zn95  1  0.97464006  0.89709264  0.17630137  1
  Zn  Zn96  1  0.49605682  0.44714700  0.71993853  1
  Zn  Zn97  1  0.72939462  0.54359554  -0.00898542  1
  Zn  Zn98  1  0.69180226  0.70141545  0.19432880  1
  Zn  Zn99  1  0.22458667  0.87958379  0.92225864  1
  Zn  Zn100  1  0.82728326  0.27596901  0.81139190  1
  Zn  Zn101  1  0.06743885  0.86571941  0.59095809  1
  O  O102  1  0.11399490  0.12819436  0.16961245  1
  O  O103  1  0.09372582  0.11220145  0.62580856  1
  O  O104  1  0.23156265  0.60401908  -0.04107260  1
  O  O105  1  0.08289841  0.66890463  0.69953703  1
  O  O106  1  0.63761629  0.11135369  0.06504337  1
  O  O107  1  0.63993752  0.10013320  0.67008280  1
  O  O108  1  0.61849219  0.64006645  0.12782552  1
  O  O109  1  0.60773643  0.66110102  0.60392840  1
  O  O110  1  0.42569634  0.35558872  0.29650444  1
  O  O111  1  0.37473353  0.40109230  0.91927720  1
  O  O112  1  0.38891020  0.89944531  0.37902410  1
  O  O113  1  0.39825333  0.92923277  0.91883420  1
  O  O114  1  0.90764700  0.46789133  0.40005879  1
  O  O115  1  0.87159770  0.34305454  0.89301145  1
  O  O116  1  0.92682330  0.86562472  0.35922240  1
  O  O117  1  0.92208090  0.89307879  0.83195952  1
  O  O118  1  0.14791890  0.05960510  0.39480764  1
  O  O119  1  0.25210168  -0.02557346  0.86954055  1
  O  O120  1  0.25926787  0.53192856  0.39359045  1
  O  O121  1  0.27798682  0.49199140  0.86962016  1
  O  O122  1  0.68938360  0.05372127  0.39491305  1
  O  O123  1  0.74270027  -0.02551395  0.86179484  1
  O  O124  1  0.73873703  0.49883276  0.34971268  1
  O  O125  1  0.75136856  0.41904376  0.78288401  1
  O  O126  1  0.28113917  0.50653526  0.12398381  1
  O  O127  1  0.29746079  0.61846415  0.71153444  1
  O  O128  1  0.20048715  0.98780222  0.11756481  1
  O  O129  1  0.18098779  1.03923295  0.72443756  1
  O  O130  1  0.66918902  0.49685719  0.07869035  1
  O  O131  1  0.89104794  0.50866463  0.65899456  1
  O  O132  1  0.74249937  0.99230488  0.10818518  1
  O  O133  1  0.76215282  0.96755520  0.64801067  1
  O  O134  1  -0.01328328  0.37380658  0.21512222  1
  O  O135  1  0.00302820  0.33615274  0.79837604  1
  O  O136  1  0.04020672  0.89187277  0.27433520  1
  O  O137  1  0.16208706  0.77317498  0.78887673  1
  O  O138  1  0.49093165  0.33932026  0.27079110  1
  O  O139  1  0.44989152  0.33673271  0.71789506  1
  O  O140  1  0.52037605  0.86358468  0.24258104  1
  O  O141  1  0.49381250  0.91957378  0.80051855  1
  O  O142  1  0.41907733  0.14940189  0.30884063  1
  O  O143  1  0.50050892  0.13903668  0.73680769  1
  O  O144  1  0.50554174  0.64346423  0.26629568  1
  O  O145  1  0.45474851  0.59462272  0.62162360  1
  O  O146  1  0.95458346  0.06354404  0.23416395  1
  O  O147  1  1.01028202  0.11990767  0.76316231  1
  O  O148  1  0.97555065  0.60544612  0.25662551  1
  O  O149  1  0.95848262  0.60203340  0.77920814  1
  O  O150  1  0.40445325  0.26196353  -0.01762362  1
  O  O151  1  0.26115094  0.30806672  0.42127581  1
  O  O152  1  0.42421917  0.70084354  0.01826062  1
  O  O153  1  0.38748800  0.80112404  0.48031685  1
  O  O154  1  0.84505268  0.25808328  0.01207184  1
  O  O155  1  0.84324911  0.24302231  0.51724432  1
  O  O156  1  0.86739993  0.75519949  0.04025638  1
  O  O157  1  0.89792376  0.72288610  0.44094036  1
  O  O158  1  0.13732850  0.22835050  0.50496885  1
  O  O159  1  0.12703356  0.20865004  1.01092321  1
  O  O160  1  0.12558014  0.78008867  0.52793381  1
  O  O161  1  0.17394672  0.63736921  0.98339809  1
  O  O162  1  0.67815457  0.28370302  0.56020016  1
  O  O163  1  0.60513547  0.21041187  0.94064833  1
  O  O164  1  0.61112377  0.80257445  0.47359631  1
  O  O165  1  0.64947623  0.75782567  1.01826792  1
  O  O166  1  0.50725414  0.20704015  0.13274382  1
  O  O167  1  0.49964169  0.23998112  0.61805722  1
  O  O168  1  0.50984205  0.74865762  0.13927210  1
  O  O169  1  0.49605838  0.87649621  0.63905746  1
  O  O170  1  0.97640402  0.25383375  0.10209380  1
  O  O171  1  0.97351162  0.21327760  0.59479895  1
  O  O172  1  0.98387891  0.77974891  0.14696479  1
  O  O173  1  1.00447502  0.80987155  0.66042855  1
  O  O174  1  -0.06103123  0.31837072  0.36712193  1
  O  O175  1  -0.03577410  0.21023108  0.88934471  1
  O  O176  1  0.05080427  0.78606505  0.37488010  1
  O  O177  1  0.02301591  0.73589549  0.94400294  1
  O  O178  1  0.42159619  0.28416755  0.43286889  1
  O  O179  1  0.47297525  0.25182138  0.82067787  1
  O  O180  1  0.50865330  0.76633024  0.36159434  1
  O  O181  1  0.46489562  0.77977194  0.87175403  1
  O  O182  1  0.20702774  0.21272305  0.53646444  1
  O  O183  1  0.28917967  0.13012044  1.02710974  1
  O  O184  1  0.19367500  0.59457019  0.54596011  1
  O  O185  1  0.12652116  0.55879228  0.83084579  1
  O  O186  1  0.73751101  0.09438854  0.54497033  1
  O  O187  1  0.76230994  0.10389322  0.95360986  1
  O  O188  1  0.71798137  0.68078092  0.51138672  1
  O  O189  1  0.76743883  0.64803719  1.00153253  1
  O  O190  1  0.23258994  0.39796127  0.01935871  1
  O  O191  1  0.26289684  0.42473277  0.56398483  1
  O  O192  1  0.28756032  0.87143541  0.01618046  1
  O  O193  1  0.27438340  0.90722460  0.46126923  1
  O  O194  1  0.72798587  0.35390626  0.02062706  1
  O  O195  1  0.76076556  0.37908981  0.46739975  1
  O  O196  1  0.75176220  0.86730502  0.03138946  1
  O  O197  1  0.76948331  0.90295405  0.49853568  1
  O  O198  1  0.09536584  0.50188059  0.21347481  1
  O  O199  1  0.07245826  0.45148281  0.72241411  1
  O  O200  1  0.09362240  1.14518381  0.23604275  1
  O  O201  1  0.15947129  0.84036379  0.81536708  1
  O  O202  1  0.62850501  0.52493128  0.24035549  1
  O  O203  1  0.72069954  0.46827420  0.74013118  1
  O  O204  1  0.58159865  1.00285901  0.26803343  1
  O  O205  1  0.63316405  0.95669982  0.74304745  1
  O  O206  1  0.39969692  0.02465080  0.27622116  1
  O  O207  1  0.35720537  -0.01615405  0.74770296  1
  O  O208  1  0.40610621  0.52080658  0.25606169  1
  O  O209  1  0.40261343  0.48419577  0.76958525  1
  O  O210  1  0.91561288  0.00456531  0.22219456  1
  O  O211  1  0.89901918  -0.04447289  0.78226730  1
  O  O212  1  0.85168080  0.51353482  0.23128516  1
  O  O213  1  0.85581916  0.54246083  0.82456781  1
  O  O214  1  0.05693130  0.43442975  0.34058890  1
  O  O215  1  0.07004029  0.31884605  0.93788345  1
  O  O216  1  0.12900866  0.90596268  0.39561101  1
  O  O217  1  0.02489585  0.75849982  0.87526130  1
  O  O218  1  0.53235675  0.42009296  0.45174355  1
  O  O219  1  0.65003876  0.25750765  0.91510023  1
  O  O220  1  0.62965095  0.88753590  0.35450197  1
  O  O221  1  0.59927240  0.85767538  0.89391565  1
  O  O222  1  0.32387097  0.11643382  0.18466465  1
  O  O223  1  0.38824832  0.15708623  0.53916781  1
  O  O224  1  0.39809449  0.62681567  0.15163976  1
  O  O225  1  0.36815573  0.57571408  0.52729592  1
  O  O226  1  0.86175093  0.14134105  0.12184686  1
  O  O227  1  0.91173841  0.06769095  0.64275018  1
  O  O228  1  0.88239967  0.64898949  0.13708499  1
  O  O229  1  0.92434656  0.69438104  0.59329734  1
  O  O230  1  0.27113727  0.34915370  0.16593895  1
  O  O231  1  0.24541480  0.26929680  0.56181440  1
  O  O232  1  0.29054814  0.72253872  0.11923299  1
  O  O233  1  0.25534104  0.73251465  0.59089686  1
  O  O234  1  0.74276814  0.25887410  0.14873368  1
  O  O235  1  0.78622247  0.20293376  0.65712116  1
  O  O236  1  0.75605940  0.77136824  0.13347149  1
  O  O237  1  0.79977099  0.77234443  0.60614652  1
  O  O238  1  0.27965641  0.34103421  0.36075446  1
  O  O239  1  0.23301151  0.27296359  0.91243350  1
  O  O240  1  0.24216325  0.69453918  0.43153256  1
  O  O241  1  0.24995364  0.76310179  0.90314573  1
  O  O242  1  0.71920617  0.22630850  0.41131393  1
  O  O243  1  0.75063981  0.19292144  0.81826761  1
  O  O244  1  0.74215580  0.78607464  0.37685259  1
  O  O245  1  0.76820869  0.78440679  0.91205289  1
  O  O246  1  -0.11077914  0.10577066  0.05865819  1
  O  O247  1  -0.00579405  0.08132484  0.50554190  1
  O  O248  1  -0.03595036  0.58933374  -0.02763902  1
  O  O249  1  0.08680088  0.70813922  0.52383529  1
  O  O250  1  0.48325474  0.11862222  -0.00397108  1
  O  O251  1  0.57857816  0.13203439  0.52427168  1
  O  O252  1  0.55918116  0.63008125  -0.11502762  1
  O  O253  1  0.52243333  0.63661256  0.48023920  1
  O  O254  1  0.49169284  0.27433633  0.44046518  1
  O  O255  1  0.53330841  0.35429566  0.97725332  1
  O  O256  1  0.47832712  0.90809356  0.49441621  1
  O  O257  1  0.49114577  0.86905915  1.00700923  1
  O  O258  1  1.01888475  0.36801083  0.49286157  1
  O  O259  1  0.94898164  0.38713168  1.00601283  1
  O  O260  1  1.00897368  0.88479801  0.47689139  1
  O  O261  1  1.08041782  0.76277297  0.99066182  1
  O  O262  1  0.48070337  0.45434644  0.41778877  1
  O  O263  1  0.56934048  0.49765611  0.78515647  1
  O  O264  1  0.50382790  1.06196327  0.41823405  1
  O  O265  1  0.48924530  0.99630897  0.81938300  1
  O  O266  1  0.99866536  0.59243130  0.42234655  1
  O  O267  1  0.99856167  0.45647067  0.89393243  1
  O  O268  1  1.00684522  0.98764401  0.37552073  1
  O  O269  1  1.02591673  1.01572608  0.88995384  1
  O  O270  1  0.04378078  -0.05220943  0.10967410  1
  O  O271  1  0.04130958  -0.02127906  0.62475906  1
  O  O272  1  -0.04538480  0.50506671  0.10068826  1
  O  O273  1  0.06880134  0.60474311  0.67447531  1
  O  O274  1  0.53469926  0.03377443  0.12146567  1
  O  O275  1  0.47895911  0.03642640  0.61598437  1
  O  O276  1  0.51000499  0.51858741  0.11745938  1
  O  O277  1  0.41057483  0.54756227  0.58810812  1
  O  O278  1  0.16994963  0.46758283  0.22239641  1
  O  O279  1  0.17893578  0.37712111  0.80705895  1
  O  O280  1  0.26828277  0.85407071  0.20946428  1
  O  O281  1  0.30855298  0.82752197  0.73121062  1
  O  O282  1  0.73681703  0.41825948  0.20666216  1
  O  O283  1  0.75026723  0.34387953  0.75458314  1
  O  O284  1  0.72252767  0.89913256  0.23276031  1
  O  O285  1  0.75836166  0.85878890  0.75809131  1
  O  O286  1  0.25632092  0.03023162  0.28190792  1
  O  O287  1  0.25783465  0.18959036  0.70265919  1
  O  O288  1  0.28436742  0.62855089  0.25935380  1
  O  O289  1  0.39210007  0.73525755  0.68618320  1
  O  O290  1  0.73161028  0.13438633  0.27352911  1
  O  O291  1  0.77255603  0.05641020  0.75604440  1
  O  O292  1  0.75092624  0.61116588  0.23009411  1
  O  O293  1  0.83171511  0.54314583  0.67731203  1
  O  O294  1  0.30449244  0.10471220  0.38775236  1
  O  O295  1  0.35997354  0.09173605  0.87219961  1
  O  O296  1  0.38204855  0.64016243  0.36598599  1
  O  O297  1  0.37896414  0.60380995  0.87692234  1
  O  O298  1  0.86041411  0.15146444  0.36160517  1
  O  O299  1  0.88037257  0.08326570  0.87214908  1
  O  O300  1  0.85070207  0.61420219  0.34515637  1
  O  O301  1  0.90078438  0.60143692  0.82565662  1
  O  O302  1  0.11768559  0.37482503  0.12495312  1
  O  O303  1  0.11024517  0.30890847  0.66316359  1
  O  O304  1  0.16113164  0.82974350  0.09920991  1
  O  O305  1  0.16956729  0.90172291  0.63130247  1
  O  O306  1  0.61520677  0.35156346  0.12695595  1
  O  O307  1  0.53773867  0.41205012  0.62637758  1
  O  O308  1  0.62507856  0.90433105  0.13457365  1
  O  O309  1  0.67454201  0.84528926  0.61523576  1
  O  O310  1  0.12903346  0.31018705  0.26824620  1
  O  O311  1  0.10445797  0.23151166  0.80854768  1
  O  O312  1  0.13903107  0.64428518  0.12400098  1
  O  O313  1  0.23001487  0.71937304  0.84809686  1
  O  O314  1  0.57741472  0.22348773  0.31921779  1
  O  O315  1  0.58534140  0.25693900  0.71891670  1
  O  O316  1  0.62234821  0.75254733  0.26932725  1
  O  O317  1  0.70117696  0.62723455  0.73805007  1
  O  O318  1  0.27281804  0.18939080  0.28103868  1
  O  O319  1  0.38212107  0.20981367  0.70112100  1
  O  O320  1  0.40599115  0.74511639  0.24285352  1
  O  O321  1  0.36970980  0.77776766  0.74199178  1
  O  O322  1  0.87668587  0.25112774  0.22087757  1
  O  O323  1  0.91053282  0.23723568  0.73775595  1
  O  O324  1  0.86588121  0.73116859  0.24912775  1
  O  O325  1  0.88515877  0.74685478  0.74398305  1
  O  O326  1  0.38346594  0.39754445  0.51884539  1
  O  O327  1  0.47996244  0.49710889  0.91822376  1
  O  O328  1  0.37895027  1.00666506  0.48666318  1
  O  O329  1  0.37984529  0.98720071  1.07444908  1
  O  O330  1  0.83641087  0.56621020  0.49750444  1
  O  O331  1  0.81624083  0.46522030  0.98525416  1
  O  O332  1  0.84318685  1.07781446  0.38338853  1
  O  O333  1  0.89248322  0.96670810  0.97232674  1
  O  O334  1  0.13775392  -0.06082810  -0.02620021  1
  O  O335  1  0.20017447  0.02868617  0.55592695  1
  O  O336  1  0.08766265  0.49759062  0.01682020  1
  O  O337  1  0.24064912  0.57778427  0.71847222  1
  O  O338  1  0.62676250  -0.02539842  -0.00619070  1
  O  O339  1  0.62217573  -0.02252744  0.53439940  1
  O  O340  1  0.64887802  0.49383458  -0.07190736  1
  O  O341  1  0.64905682  0.53485787  0.50054308  1
  O  O342  1  0.42382487  0.38541896  0.08827155  1
  O  O343  1  0.33348620  0.38822574  0.57219902  1
  O  O344  1  0.38446685  0.83278502  0.10768619  1
  O  O345  1  0.35091137  0.89830241  0.57957081  1
  O  O346  1  0.84382799  0.36240929  0.10968043  1
  O  O347  1  0.86549756  0.34191106  0.63575166  1
  O  O348  1  0.86097742  0.87165982  0.15704750  1
  O  O349  1  0.88101345  0.87839035  0.62185285  1
  O  O350  1  0.01960992  0.19219203  0.39977264  1
  O  O351  1  0.17361186  0.12799823  0.88212272  1
  O  O352  1  0.14440697  0.62020063  0.33462327  1
  O  O353  1  0.09643481  0.61823832  0.85481490  1
  O  O354  1  0.57512700  0.16370690  0.27926684  1
  O  O355  1  0.64037282  0.09352387  0.84712813  1
  O  O356  1  0.64073296  0.66616587  0.39431052  1
  O  O357  1  0.72707806  0.63608181  0.80310041  1
