# generated using pymatgen
data_V51Zn51O256
_symmetry_space_group_name_H-M   'P 1'
_cell_length_a   17.51344543
_cell_length_b   17.38920488
_cell_length_c   17.65040388
_cell_angle_alpha   88.29509671
_cell_angle_beta   90.31478166
_cell_angle_gamma   89.56757626
_symmetry_Int_Tables_number   1
_chemical_formula_structural   V51Zn51O256
_chemical_formula_sum   'V51 Zn51 O256'
_cell_volume   5372.71979630
_cell_formula_units_Z   1
loop_
 _symmetry_equiv_pos_site_id
 _symmetry_equiv_pos_as_xyz
  1  'x, y, z'
loop_
 _atom_site_type_symbol
 _atom_site_label
 _atom_site_symmetry_multiplicity
 _atom_site_fract_x
 _atom_site_fract_y
 _atom_site_fract_z
 _atom_site_occupancy
  V  V0  1  -0.03271688  0.64134956  0.06970790  1
  V  V1  1  0.38859523  0.08424348  0.24656228  1
  V  V2  1  0.84779090  0.37592619  0.01285468  1
  V  V3  1  0.10647965  0.19731322  0.36825866  1
  V  V4  1  0.76595888  0.17835566  0.44902569  1
  V  V5  1  0.25320635  0.85625212  0.60615294  1
  V  V6  1  0.52135192  -0.03146350  -0.00918028  1
  V  V7  1  -0.01134203  -0.03256917  0.03368442  1
  V  V8  1  0.31275012  0.75531983  -0.05180606  1
  V  V9  1  0.62442486  0.59404947  -0.02148238  1
  V  V10  1  0.66226423  0.38561656  0.77310328  1
  V  V11  1  0.24709777  0.23386528  0.46372997  1
  V  V12  1  0.14973946  0.81919439  0.86498398  1
  V  V13  1  0.78333184  -0.04770361  0.25891310  1
  V  V14  1  0.22055474  0.51827101  0.30925356  1
  V  V15  1  -0.03892717  0.54568516  0.55850151  1
  V  V16  1  0.14169010  0.01146983  0.62252237  1
  V  V17  1  0.09184299  0.66623626  0.53121712  1
  V  V18  1  0.04642329  0.42409594  0.95821661  1
  V  V19  1  0.17624168  0.65754369  -0.04322344  1
  V  V20  1  0.23545232  0.00418922  0.24656003  1
  V  V21  1  0.86741043  -0.06680318  0.91667039  1
  V  V22  1  0.55031350  0.16957653  0.22698565  1
  V  V23  1  0.75276713  0.40532652  0.16867641  1
  V  V24  1  0.11161423  0.78170207  0.38839385  1
  V  V25  1  0.36765529  -0.00326367  0.90704955  1
  V  V26  1  -0.00540797  0.42330766  0.33366118  1
  V  V27  1  -0.01584295  0.66102966  0.67884103  1
  V  V28  1  0.48824999  0.74579043  0.71899927  1
  V  V29  1  0.40944683  0.28174613  0.17391698  1
  V  V30  1  0.39882990  0.88109323  0.50215967  1
  V  V31  1  0.34328314  0.64382141  0.28913432  1
  V  V32  1  0.66713565  0.73645590  0.85837070  1
  V  V33  1  0.62896911  0.13371304  0.02750578  1
  V  V34  1  -0.01152416  0.08167967  0.61215117  1
  V  V35  1  0.47238084  0.60508196  0.05990416  1
  V  V36  1  0.74370918  0.62637277  0.40751138  1
  V  V37  1  0.13203355  0.36231962  0.64627922  1
  V  V38  1  0.94196818  0.27806980  0.63925925  1
  V  V39  1  -0.01516721  0.21228539  0.25983638  1
  V  V40  1  0.92226572  0.16479952  0.78899807  1
  V  V41  1  0.10526545  0.14082675  0.01784946  1
  V  V42  1  0.21118143  0.12375889  0.86078168  1
  V  V43  1  -0.00856559  0.82107181  0.76802326  1
  V  V44  1  0.60634075  0.15683177  0.67968113  1
  V  V45  1  0.23019895  0.38239550  0.17084493  1
  V  V46  1  0.50415724  0.52678927  0.51772178  1
  V  V47  1  0.44815556  0.15570453  0.67202442  1
  V  V48  1  0.86486707  0.25961917  0.14854118  1
  V  V49  1  0.87866532  0.49735627  0.88127098  1
  V  V50  1  0.56819038  0.27835292  0.91918593  1
  Zn  Zn51  1  0.99431577  0.45448060  0.72565555  1
  Zn  Zn52  1  0.73880177  0.13071574  0.16463103  1
  Zn  Zn53  1  0.77638937  -0.00707768  0.05256081  1
  Zn  Zn54  1  0.29818516  0.80071125  0.36328590  1
  Zn  Zn55  1  0.16857727  0.39158142  0.45031759  1
  Zn  Zn56  1  0.27277521  0.61214453  0.10370121  1
  Zn  Zn57  1  0.06827344  0.59199804  0.38206052  1
  Zn  Zn58  1  0.69621385  0.43118888  0.92704362  1
  Zn  Zn59  1  0.34383041  0.06066179  0.52628045  1
  Zn  Zn60  1  0.73239975  0.28323183  0.60303441  1
  Zn  Zn61  1  0.50963295  0.76251696  -0.02033383  1
  Zn  Zn62  1  0.26263640  0.21338287  0.26217831  1
  Zn  Zn63  1  1.00693021  0.61345596  0.88119084  1
  Zn  Zn64  1  0.96419970  0.26487932  0.94309542  1
  Zn  Zn65  1  0.67384609  0.01811952  0.38444547  1
  Zn  Zn66  1  0.93675845  0.69163190  0.45476140  1
  Zn  Zn67  1  0.43189623  0.18971157  0.35890322  1
  Zn  Zn68  1  0.37703600  0.95406892  0.10351682  1
  Zn  Zn69  1  0.14789938  0.73322142  0.68457119  1
  Zn  Zn70  1  0.60092835  0.86615281  0.48653837  1
  Zn  Zn71  1  0.47299781  0.43632945  0.69928028  1
  Zn  Zn72  1  0.86409460  0.34386869  0.80109784  1
  Zn  Zn73  1  0.43297595  0.71015206  0.44589130  1
  Zn  Zn74  1  0.94379095  0.19311762  0.46177343  1
  Zn  Zn75  1  0.18513436  0.93026200  0.45085325  1
  Zn  Zn76  1  0.18888847  0.69725891  0.25589710  1
  Zn  Zn77  1  0.66528411  0.45353492  0.50497076  1
  Zn  Zn78  1  0.38927669  0.47375756  0.12629559  1
  Zn  Zn79  1  0.56876327  0.56358725  0.79876708  1
  Zn  Zn80  1  0.32446678  0.84752007  0.78772631  1
  Zn  Zn81  1  0.13086224  0.20810132  0.58003050  1
  Zn  Zn82  1  0.01420090  0.36679600  0.49727109  1
  Zn  Zn83  1  0.80620286  0.65373057  0.60149433  1
  Zn  Zn84  1  0.67428104  0.74847912  0.64258600  1
  Zn  Zn85  1  0.55328798  0.08971193  0.85382220  1
  Zn  Zn86  1  0.02669981  0.01649975  0.22956259  1
  Zn  Zn87  1  0.82683525  0.32434379  0.33088013  1
  Zn  Zn88  1  0.82062417  0.14068341  0.64105233  1
  Zn  Zn89  1  0.59327965  0.50565046  0.16413013  1
  Zn  Zn90  1  0.04779573  -0.00201934  0.84016231  1
  Zn  Zn91  1  0.67599197  0.94219675  0.89228377  1
  Zn  Zn92  1  0.90538673  0.99574332  0.74138797  1
  Zn  Zn93  1  0.68378288  0.79862849  0.31840722  1
  Zn  Zn94  1  -0.01729545  0.78955409  -0.04202361  1
  Zn  Zn95  1  0.05866944  0.29957659  0.09743180  1
  Zn  Zn96  1  0.80425363  0.55616844  0.05175358  1
  Zn  Zn97  1  0.96707292  0.44689012  0.13730153  1
  Zn  Zn98  1  0.60228124  0.31279030  0.10073240  1
  Zn  Zn99  1  0.52731014  0.61585775  0.32059694  1
  Zn  Zn100  1  0.28037590  0.25470822  0.71335192  1
  Zn  Zn101  1  0.05349549  0.84691541  0.58816047  1
  O  O102  1  0.14235686  0.13482658  0.10249273  1
  O  O103  1  0.09731395  0.10993817  0.61407708  1
  O  O104  1  0.03044963  0.68528467  0.15194129  1
  O  O105  1  0.10268357  0.65017127  0.63314989  1
  O  O106  1  0.65662602  0.22420354  0.05442741  1
  O  O107  1  0.67776717  0.22474049  0.68633986  1
  O  O108  1  0.59052926  0.59344171  0.07551219  1
  O  O109  1  0.70299733  0.63858433  0.63991841  1
  O  O110  1  0.43963797  0.34026907  0.37157788  1
  O  O111  1  0.33200243  0.33995460  0.81310785  1
  O  O112  1  0.39069596  0.81883467  0.41732814  1
  O  O113  1  0.37358160  0.92944850  0.84105499  1
  O  O114  1  0.90979273  0.38714392  0.36751329  1
  O  O115  1  0.87682448  0.35187708  0.91822806  1
  O  O116  1  0.83163230  0.83280840  0.45882761  1
  O  O117  1  0.88238154  0.83684843  0.92922936  1
  O  O118  1  0.24882230  -0.02473459  0.35103598  1
  O  O119  1  0.29718380  0.06685620  0.87794954  1
  O  O120  1  0.20829915  0.47843569  0.39667552  1
  O  O121  1  0.21278745  0.46860824  0.82342771  1
  O  O122  1  0.77989432  -0.02794733  0.36154989  1
  O  O123  1  0.76754854  -0.04967304  0.95373148  1
  O  O124  1  0.72603718  0.53841214  0.46372673  1
  O  O125  1  0.78198080  0.47968939  0.87421377  1
  O  O126  1  0.28392670  0.43902791  0.11124909  1
  O  O127  1  0.26284821  0.51155895  0.59222958  1
  O  O128  1  0.22484443  0.94534474  0.15189339  1
  O  O129  1  0.23624220  1.03071261  0.56484657  1
  O  O130  1  0.75842309  0.50158796  0.13814602  1
  O  O131  1  0.79179626  0.49809732  0.68896404  1
  O  O132  1  0.77593884  0.94998256  0.15874878  1
  O  O133  1  0.71244558  0.93199758  0.62270359  1
  O  O134  1  0.00198315  0.40902931  0.23694450  1
  O  O135  1  0.09872906  0.42679378  0.71051704  1
  O  O136  1  -0.06945621  0.78851456  0.25600721  1
  O  O137  1  -0.00323127  0.92128327  0.76082539  1
  O  O138  1  0.42590817  0.40168125  0.33681926  1
  O  O139  1  0.56565160  0.35586713  0.72394116  1
  O  O140  1  0.47560960  0.82534763  0.23464922  1
  O  O141  1  0.50218449  0.84470718  0.71415786  1
  O  O142  1  0.48350732  0.09339210  0.20753071  1
  O  O143  1  0.52662459  0.13373037  0.74979518  1
  O  O144  1  0.43338094  0.63663043  0.25516441  1
  O  O145  1  0.50976721  0.64386195  0.73327483  1
  O  O146  1  0.97683128  0.11748714  0.24675721  1
  O  O147  1  0.97909171  0.07981155  0.78321740  1
  O  O148  1  0.89895074  0.63548543  0.23421276  1
  O  O149  1  1.01153694  0.65062750  0.77209310  1
  O  O150  1  0.42376379  0.37796661  0.17834402  1
  O  O151  1  0.35830075  0.20331129  0.44240810  1
  O  O152  1  0.40786547  0.76129835  -0.06694822  1
  O  O153  1  0.39081949  0.75095612  0.53498855  1
  O  O154  1  0.88563932  0.27943422  0.04433866  1
  O  O155  1  0.96714370  0.27241280  0.53648611  1
  O  O156  1  0.73441337  0.78465981  0.02917580  1
  O  O157  1  0.88696770  0.79374726  0.48372009  1
  O  O158  1  0.13338287  0.22892561  0.46676814  1
  O  O159  1  0.04940342  0.22577043  1.01391806  1
  O  O160  1  0.09060146  0.76941055  0.51795515  1
  O  O161  1  0.14461679  0.75638699  0.95334822  1
  O  O162  1  0.72338872  0.38055327  0.55310826  1
  O  O163  1  0.54591178  0.32087049  1.00247377  1
  O  O164  1  0.63890924  0.77494547  0.53656073  1
  O  O165  1  0.60494659  0.70977742  0.95271602  1
  O  O166  1  0.51985933  0.25495533  0.17365166  1
  O  O167  1  0.59523613  0.26267896  0.47263403  1
  O  O168  1  0.47771925  0.70239175  0.07322457  1
  O  O169  1  0.42292752  0.73001731  0.64386587  1
  O  O170  1  0.97910802  0.25442358  0.16185523  1
  O  O171  1  0.96747891  0.17174167  0.66011515  1
  O  O172  1  0.98180024  0.73953550  0.12540816  1
  O  O173  1  1.02461016  0.77553624  0.67744221  1
  O  O174  1  -0.00171424  0.22047772  0.36920687  1
  O  O175  1  0.04032964  0.34227895  0.90513267  1
  O  O176  1  -0.05872281  0.79496784  0.32429810  1
  O  O177  1  0.03676742  0.79327332  0.85849781  1
  O  O178  1  0.53481483  0.18862577  0.32083107  1
  O  O179  1  0.49169589  0.28443530  0.86694241  1
  O  O180  1  0.51640820  0.70531755  0.37866857  1
  O  O181  1  0.53149345  0.74354785  0.81061875  1
  O  O182  1  0.30727763  0.13654717  0.44286366  1
  O  O183  1  0.18320532  0.16124264  0.95040762  1
  O  O184  1  0.17152814  0.63725113  0.49170100  1
  O  O185  1  0.27368927  0.66091570  0.92402472  1
  O  O186  1  0.76025747  0.18063010  0.55143552  1
  O  O187  1  0.71435466  0.08217237  1.06861781  1
  O  O188  1  0.75995746  0.67339398  0.49583284  1
  O  O189  1  0.71866454  0.60300210  0.99736603  1
  O  O190  1  0.27245116  0.29893390  -0.01949433  1
  O  O191  1  0.26333775  0.32947186  0.45632325  1
  O  O192  1  0.29273372  0.76708185  0.03798606  1
  O  O193  1  0.26824054  0.87386892  0.50207911  1
  O  O194  1  0.75026748  0.37404907  0.01093481  1
  O  O195  1  0.80999291  0.44932116  0.64427310  1
  O  O196  1  0.60727521  0.87418393  0.11778079  1
  O  O197  1  0.67587134  0.84440746  0.41031971  1
  O  O198  1  0.15546669  0.59765772  0.31498923  1
  O  O199  1  0.27901071  0.57771753  0.57326231  1
  O  O200  1  0.14141159  1.01794183  0.24067184  1
  O  O201  1  0.17837325  1.01185066  0.70652922  1
  O  O202  1  0.60997304  0.39232612  0.34078083  1
  O  O203  1  0.65095816  0.48157873  0.77999214  1
  O  O204  1  0.67887624  0.96712363  0.27987892  1
  O  O205  1  0.62712804  1.01525150  0.82804729  1
  O  O206  1  0.35657422  -0.00188573  0.20379363  1
  O  O207  1  0.39249260  0.06384181  0.74510410  1
  O  O208  1  0.31814926  0.53566564  0.30876756  1
  O  O209  1  0.36588815  0.39646250  0.78650699  1
  O  O210  1  0.87609760  -0.06964171  0.27636650  1
  O  O211  1  0.84469406  -0.04431425  0.82328577  1
  O  O212  1  0.88726197  0.56643337  0.22823469  1
  O  O213  1  0.91105172  0.44859700  0.79496134  1
  O  O214  1  0.06684534  0.37943688  0.39661941  1
  O  O215  1  0.13627955  0.44929778  0.96895781  1
  O  O216  1  0.10088095  0.88027645  0.40121180  1
  O  O217  1  0.13013198  0.91326882  0.86796436  1
  O  O218  1  0.66034191  0.38981684  0.39091146  1
  O  O219  1  0.63883713  0.34319958  0.87010304  1
  O  O220  1  0.59598978  0.77818615  0.25764384  1
  O  O221  1  0.65616471  0.83520483  0.87650369  1
  O  O222  1  0.38509470  0.25915037  0.08909066  1
  O  O223  1  0.52844437  0.19494675  0.61939658  1
  O  O224  1  0.36968431  0.57761836  0.07064441  1
  O  O225  1  0.33315330  0.55198167  0.73196473  1
  O  O226  1  0.84191272  0.16655533  0.13879524  1
  O  O227  1  0.89114464  0.04732202  0.64161044  1
  O  O228  1  0.87022058  0.64152457  0.07342352  1
  O  O229  1  0.88882660  0.66994254  0.68064298  1
  O  O230  1  0.29258074  0.30797388  0.20741220  1
  O  O231  1  0.24417307  0.21240972  0.56073410  1
  O  O232  1  0.15773857  0.78672452  0.12726626  1
  O  O233  1  0.23525997  0.76122341  0.61894370  1
  O  O234  1  0.76934746  0.29586706  0.15691304  1
  O  O235  1  0.84460407  0.26538885  0.63490172  1
  O  O236  1  0.67842223  0.67784639  0.16580033  1
  O  O237  1  0.77817713  0.76181475  0.61239185  1
  O  O238  1  0.21098849  0.22543378  0.35548846  1
  O  O239  1  0.23412997  0.19337156  0.79428377  1
  O  O240  1  0.20450889  0.76146622  0.40929817  1
  O  O241  1  0.26124191  0.81967842  0.87973694  1
  O  O242  1  0.76563690  0.26928045  0.40515114  1
  O  O243  1  0.76346939  0.14992162  0.92339644  1
  O  O244  1  0.74137828  0.70346072  0.33394151  1
  O  O245  1  0.75262945  0.71323003  0.88615469  1
  O  O246  1  0.01459585  0.08103405  0.00268888  1
  O  O247  1  -0.02365758  0.09726606  0.51940533  1
  O  O248  1  -0.00618968  0.67625999  -0.02286651  1
  O  O249  1  -0.02494440  0.67004725  0.56122367  1
  O  O250  1  0.55562028  0.11726520  0.08137451  1
  O  O251  1  0.52634141  0.24976254  0.47367818  1
  O  O252  1  0.49181256  0.59432571  -0.03313914  1
  O  O253  1  0.48305137  0.62604539  0.51674067  1
  O  O254  1  0.55394456  0.43544640  0.49491721  1
  O  O255  1  0.43165844  0.45562023  0.92096405  1
  O  O256  1  0.49597716  0.87157902  0.51565087  1
  O  O257  1  0.52529722  0.87519029  0.96577968  1
  O  O258  1  0.95578921  0.45403723  0.53004647  1
  O  O259  1  1.00759199  0.39158598  1.04968943  1
  O  O260  1  0.96896309  0.90161693  0.52791886  1
  O  O261  1  1.01430180  0.87139151  1.02502548  1
  O  O262  1  0.51810166  0.55102781  0.41780055  1
  O  O263  1  0.48814683  0.49815731  0.77925833  1
  O  O264  1  0.53819077  0.83582331  0.26695528  1
  O  O265  1  0.46622298  1.03193190  0.91900194  1
  O  O266  1  0.99419402  0.52128361  0.34495560  1
  O  O267  1  0.99378198  0.50097531  0.91165867  1
  O  O268  1  0.98173851  0.94422402  0.30146014  1
  O  O269  1  0.96520792  0.97212123  0.91631368  1
  O  O270  1  0.00818842  -0.01449516  0.12642079  1
  O  O271  1  0.03606622  -0.01172651  0.62946750  1
  O  O272  1  -0.00702349  0.54921122  0.09385552  1
  O  O273  1  -0.01244479  0.55080943  0.65833701  1
  O  O274  1  0.48230307  -0.03019858  0.07985602  1
  O  O275  1  0.64277218  0.07817983  0.64681678  1
  O  O276  1  0.48910506  0.51737018  0.12638439  1
  O  O277  1  0.47689067  0.51944905  0.61572126  1
  O  O278  1  0.19505614  0.44325242  0.24442264  1
  O  O279  1  0.22541706  0.33851551  0.66942668  1
  O  O280  1  0.25946056  0.91026991  0.30324414  1
  O  O281  1  0.27066931  0.88424680  0.70016963  1
  O  O282  1  0.77055271  0.40148472  0.26273530  1
  O  O283  1  0.75665646  0.35852198  0.76699268  1
  O  O284  1  0.76051772  0.85019354  0.25915467  1
  O  O285  1  0.69469204  0.87874078  0.67306379  1
  O  O286  1  0.27461279  0.10248864  0.24304890  1
  O  O287  1  0.40713148  0.10296399  0.60316826  1
  O  O288  1  0.25695346  0.62007374  0.21011379  1
  O  O289  1  0.28713226  0.60580560  0.73400752  1
  O  O290  1  0.79319272  0.05274516  0.23440410  1
  O  O291  1  0.83330202  0.14068378  0.75532819  1
  O  O292  1  0.75640008  0.55620074  0.34222492  1
  O  O293  1  0.67945588  0.73982021  0.75769799  1
  O  O294  1  0.40588678  0.07004254  0.33835373  1
  O  O295  1  0.33559415  0.03339804  0.71621653  1
  O  O296  1  0.35600792  0.65544843  0.38598279  1
  O  O297  1  0.26179025  0.49373485  0.86503643  1
  O  O298  1  0.85297281  0.14021250  0.42840952  1
  O  O299  1  0.91735293  0.18318838  0.88424170  1
  O  O300  1  0.84661156  0.64616609  0.41035574  1
  O  O301  1  0.88750820  0.59215923  0.86658827  1
  O  O302  1  0.15768286  0.33887036  0.12562656  1
  O  O303  1  0.11942068  0.39368192  0.54932881  1
  O  O304  1  0.11806259  0.84439552  0.13214801  1
  O  O305  1  0.15326001  0.90228933  0.59852532  1
  O  O306  1  0.64665857  0.40004923  0.15308988  1
  O  O307  1  0.62442850  0.37448950  0.67282471  1
  O  O308  1  0.61204144  0.80672013  0.10041885  1
  O  O309  1  0.67298749  0.93978628  0.56054595  1
  O  O310  1  0.08801180  0.22741793  0.26642002  1
  O  O311  1  0.07965747  0.27713553  0.65016754  1
  O  O312  1  0.11280812  0.76807276  0.29037224  1
  O  O313  1  0.15914368  0.78533028  0.77549429  1
  O  O314  1  0.64553645  0.15368379  0.21644935  1
  O  O315  1  0.74818937  0.20436391  0.88036348  1
  O  O316  1  0.59131718  0.55823935  0.26058086  1
  O  O317  1  0.56232818  0.74977114  0.64998008  1
  O  O318  1  0.38476553  0.20115027  0.25072840  1
  O  O319  1  0.38509081  0.22456729  0.69782655  1
  O  O320  1  0.29757531  0.73958652  0.27344908  1
  O  O321  1  0.39661262  0.75926798  0.76519196  1
  O  O322  1  0.88370832  0.25612470  0.25879089  1
  O  O323  1  0.93597432  0.26616473  0.75835831  1
  O  O324  1  0.74840230  0.67973378  0.16717721  1
  O  O325  1  0.90228902  0.80024927  0.77416362  1
  O  O326  1  0.42054947  0.48142663  0.50333048  1
  O  O327  1  0.24201591  0.34651750  0.93788897  1
  O  O328  1  0.38436389  0.97503082  0.47441758  1
  O  O329  1  0.34468515  0.95786133  0.99314569  1
  O  O330  1  0.86573298  0.57136086  0.55971473  1
  O  O331  1  0.86783690  0.47961246  0.99476859  1
  O  O332  1  0.90416463  0.91958364  0.56440518  1
  O  O333  1  0.88626716  0.97232494  1.03102150  1
  O  O334  1  0.08218376  0.03109544  -0.00834896  1
  O  O335  1  0.17805576  0.03014329  0.50593925  1
  O  O336  1  0.17745592  0.62118239  0.04827694  1
  O  O337  1  0.04202699  0.57171012  0.49423571  1
  O  O338  1  0.61097640  0.01061410  -0.01564887  1
  O  O339  1  0.59550202  -0.04505098  0.41901400  1
  O  O340  1  0.61525612  0.49941257  -0.04860679  1
  O  O341  1  0.60482283  0.53655651  0.55838384  1
  O  O342  1  0.38786284  0.41006994  -0.04881801  1
  O  O343  1  0.41460999  0.37793921  0.63868751  1
  O  O344  1  0.27645436  0.89762043  0.12730983  1
  O  O345  1  0.36209512  0.87697343  0.59839734  1
  O  O346  1  0.86167583  0.39464539  0.12365766  1
  O  O347  1  0.95432326  0.37256418  0.65641872  1
  O  O348  1  0.79595307  0.79170883  0.06070479  1
  O  O349  1  0.88871931  0.88086699  0.62515890  1
  O  O350  1  0.10723496  0.10401306  0.37184326  1
  O  O351  1  0.13503057  0.07281536  0.83595821  1
  O  O352  1  0.03633618  0.70007349  0.40716130  1
  O  O353  1  0.12237350  0.60884941  0.89575662  1
  O  O354  1  0.69590063  0.11944640  0.41064372  1
  O  O355  1  0.58895957  0.17106614  0.92763868  1
  O  O356  1  0.64678278  0.65236284  0.40342311  1
  O  O357  1  0.62546820  0.62564813  0.86329578  1
