# generated using pymatgen
data_V51Zn51O256
_symmetry_space_group_name_H-M   'P 1'
_cell_length_a   17.26916467
_cell_length_b   17.25753016
_cell_length_c   17.28237098
_cell_angle_alpha   88.92211529
_cell_angle_beta   89.54821776
_cell_angle_gamma   90.00688523
_symmetry_Int_Tables_number   1
_chemical_formula_structural   V51Zn51O256
_chemical_formula_sum   'V51 Zn51 O256'
_cell_volume   5149.47461941
_cell_formula_units_Z   1
loop_
 _symmetry_equiv_pos_site_id
 _symmetry_equiv_pos_as_xyz
  1  'x, y, z'
loop_
 _atom_site_type_symbol
 _atom_site_label
 _atom_site_symmetry_multiplicity
 _atom_site_fract_x
 _atom_site_fract_y
 _atom_site_fract_z
 _atom_site_occupancy
  V  V0  1  0.77678785  0.64216548  0.88655528  1
  V  V1  1  0.24714711  0.74395282  0.03580859  1
  V  V2  1  0.50972101  0.24249051  0.73172369  1
  V  V3  1  0.39012440  0.24021179  0.15571224  1
  V  V4  1  0.37684065  0.38481145  0.49141215  1
  V  V5  1  0.12280852  0.61437838  0.53104590  1
  V  V6  1  0.13009145  0.89420086  0.22318730  1
  V  V7  1  0.60231329  0.71177143  0.38784226  1
  V  V8  1  0.37292589  0.12719790  0.72452512  1
  V  V9  1  0.12243449  0.88593926  0.74183154  1
  V  V10  1  0.27825703  0.23801794  -0.00452153  1
  V  V11  1  0.12193678  0.38895968  0.74717170  1
  V  V12  1  -0.04695535  -0.01371079  0.00834875  1
  V  V13  1  0.10688942  0.62830124  0.00019178  1
  V  V14  1  0.72681128  0.49223770  0.24111392  1
  V  V15  1  -0.01107536  0.87896685  0.85557892  1
  V  V16  1  0.38624634  0.89091853  0.50581796  1
  V  V17  1  0.35658675  0.00842928  0.87890187  1
  V  V18  1  0.37499249  0.73979435  0.63663930  1
  V  V19  1  0.85654683  0.13814574  0.70093496  1
  V  V20  1  0.74798541  0.39483670  0.61139354  1
  V  V21  1  0.50681214  0.38376106  0.85381840  1
  V  V22  1  -0.00423261  0.35427969  0.87242220  1
  V  V23  1  0.00017351  0.24493869  0.72475815  1
  V  V24  1  0.28110780  0.01316228  0.27794092  1
  V  V25  1  0.50523374  0.50703898  0.49327615  1
  V  V26  1  0.52598493  0.59597757  0.12059718  1
  V  V27  1  0.49720596  0.88299348  0.37250726  1
  V  V28  1  0.52020933  0.62219238  0.63353154  1
  V  V29  1  0.24788834  0.76764513  0.51379495  1
  V  V30  1  0.47100115  0.85913133  0.87657477  1
  V  V31  1  0.62834167  0.23267922  0.87051834  1
  V  V32  1  0.27623515  0.23929643  0.51512291  1
  V  V33  1  0.10635386  0.02657746  0.61440009  1
  V  V34  1  0.85906482  0.47076980  0.87197335  1
  V  V35  1  0.23852378  0.65169141  0.86681495  1
  V  V36  1  0.25712154  0.40502876  0.64191336  1
  V  V37  1  0.37755861  0.41488079  -0.01254978  1
  V  V38  1  0.00028283  0.47007600  0.00261052  1
  V  V39  1  0.35109570  0.51134101  0.84853838  1
  V  V40  1  0.62468244  0.72902990  0.93213909  1
  V  V41  1  0.48038982  0.72510609  0.24947553  1
  V  V42  1  0.13656250  0.80734532  0.38940922  1
  V  V43  1  0.24835354  0.01738565  0.72898430  1
  V  V44  1  0.61303753  0.89462162  0.73692961  1
  V  V45  1  0.89266302  0.54831630  0.35547488  1
  V  V46  1  0.86899818  0.03364808  0.84822105  1
  V  V47  1  0.53307306  -0.02106547  -0.00122616  1
  V  V48  1  0.22640200  0.60715982  0.38975675  1
  V  V49  1  -0.00676367  0.77173679  0.20060765  1
  V  V50  1  0.01528864  0.65890523  0.66436824  1
  Zn  Zn51  1  0.78903863  0.50812211  0.03469568  1
  Zn  Zn52  1  0.07580964  0.82861939  0.02674241  1
  Zn  Zn53  1  0.05028314  0.07082539  0.79408603  1
  Zn  Zn54  1  0.93858902  0.95503346  0.68146515  1
  Zn  Zn55  1  0.68452283  0.41868160  0.80932081  1
  Zn  Zn56  1  0.71862414  0.08150470  0.16239352  1
  Zn  Zn57  1  0.53265784  0.82470633  0.07861722  1
  Zn  Zn58  1  0.48055203  0.40332125  0.14036247  1
  Zn  Zn59  1  0.39475750  0.10464883  0.51096548  1
  Zn  Zn60  1  0.79660655  0.83076827  0.81967380  1
  Zn  Zn61  1  0.21139012  0.96222488  0.46140790  1
  Zn  Zn62  1  0.12401627  0.09483055  0.24230685  1
  Zn  Zn63  1  0.19407987  0.70598935  0.69452381  1
  Zn  Zn64  1  0.05967273  0.65080275  0.32895905  1
  Zn  Zn65  1  0.93500870  0.68353316  0.82873715  1
  Zn  Zn66  1  0.97908121  0.70421956  0.45799415  1
  Zn  Zn67  1  0.82324569  0.39150837  0.40581123  1
  Zn  Zn68  1  0.70560414  0.84425483  0.36284354  1
  Zn  Zn69  1  0.83785531  0.25675009  0.83831644  1
  Zn  Zn70  1  0.44066587  0.45197536  0.68888414  1
  Zn  Zn71  1  0.15992511  0.66031811  0.18779884  1
  Zn  Zn72  1  0.69532684  0.06664849  0.78664493  1
  Zn  Zn73  1  0.98653077  0.37294339  0.43836606  1
  Zn  Zn74  1  0.59142379  0.58127656  0.81444164  1
  Zn  Zn75  1  0.35624780  0.24540504  0.36188150  1
  Zn  Zn76  1  0.74155731  -0.00753809  -0.03196860  1
  Zn  Zn77  1  0.54819534  0.54096112  0.30320251  1
  Zn  Zn78  1  0.41582834  0.66509103  0.44558019  1
  Zn  Zn79  1  0.88956484  0.25560466  0.55636030  1
  Zn  Zn80  1  0.17494623  0.43296400  0.47519430  1
  Zn  Zn81  1  0.39268908  0.10369047  0.03912339  1
  Zn  Zn82  1  0.08008824  0.31515064  0.57542936  1
  Zn  Zn83  1  0.54988222  0.80455570  0.56241335  1
  Zn  Zn84  1  0.81199351  0.65992240  0.60239958  1
  Zn  Zn85  1  0.89204192  0.49302391  0.16550775  1
  Zn  Zn86  1  0.16914294  0.37142557  -0.04466508  1
  Zn  Zn87  1  0.50664855  0.26565666  0.01653706  1
  Zn  Zn88  1  0.69735120  0.57212762  0.45152062  1
  Zn  Zn89  1  0.40953934  0.67695940  0.96081556  1
  Zn  Zn90  1  0.33224352  0.78204782  0.34520543  1
  Zn  Zn91  1  0.55617391  0.31967565  0.55027901  1
  Zn  Zn92  1  0.31897581  0.31973686  0.80015650  1
  Zn  Zn93  1  0.53087157  0.06339361  0.81642463  1
  Zn  Zn94  1  0.97606057  0.96444421  0.20719224  1
  Zn  Zn95  1  0.29938368  0.83182079  0.80319487  1
  Zn  Zn96  1  0.40927215  0.20380861  0.88177221  1
  Zn  Zn97  1  0.42723082  0.06150657  0.34558133  1
  Zn  Zn98  1  0.06256708  0.54981099  0.83302555  1
  Zn  Zn99  1  0.66604189  0.67000552  0.21414869  1
  Zn  Zn100  1  0.93477176  0.44824717  0.70033490  1
  Zn  Zn101  1  0.45734206  0.93702788  0.20051813  1
  O  O102  1  0.14526264  0.09063809  -0.00532616  1
  O  O103  1  0.10889437  0.12243627  0.62701404  1
  O  O104  1  0.12260820  0.60315227  0.09560954  1
  O  O105  1  0.11979999  0.64421891  0.63850911  1
  O  O106  1  0.71000819  0.17273644  0.07351691  1
  O  O107  1  0.62040439  0.09717953  0.58974743  1
  O  O108  1  0.61994387  0.62804666  0.11977789  1
  O  O109  1  0.61095122  0.63679473  0.61119794  1
  O  O110  1  0.37553882  0.36164193  0.39698801  1
  O  O111  1  0.38477307  0.40245825  0.85223856  1
  O  O112  1  0.38757635  0.86571194  0.39349143  1
  O  O113  1  0.37298555  0.90040490  0.86015882  1
  O  O114  1  0.92463181  0.45223886  0.38101124  1
  O  O115  1  0.88339773  0.36388705  0.85827478  1
  O  O116  1  0.89559458  0.79249963  0.47538224  1
  O  O117  1  0.88303621  0.89989088  0.84151314  1
  O  O118  1  0.27263074  0.00788612  0.37614611  1
  O  O119  1  0.26296838  0.02337508  0.86193319  1
  O  O120  1  0.22274728  0.50894282  0.40390487  1
  O  O121  1  0.25708188  0.49691979  0.84739459  1
  O  O122  1  0.74583577  -0.05464480  0.33451916  1
  O  O123  1  0.76325777  0.00759196  0.85684214  1
  O  O124  1  0.80413956  0.56193397  0.39762486  1
  O  O125  1  0.76094207  0.45423794  0.88171676  1
  O  O126  1  0.22611082  0.44307005  0.21452392  1
  O  O127  1  0.25068824  0.49800495  0.64566021  1
  O  O128  1  0.31232967  0.90844247  0.09469936  1
  O  O129  1  0.23930835  1.01214818  0.63393633  1
  O  O130  1  0.78012607  0.47763912  0.14514439  1
  O  O131  1  0.72167274  0.49198565  0.61732117  1
  O  O132  1  0.75206135  1.00564995  0.08955305  1
  O  O133  1  0.74874330  1.10726611  0.46586280  1
  O  O134  1  0.13146921  0.24164543  0.15946517  1
  O  O135  1  0.00758150  0.37495356  0.74042277  1
  O  O136  1  0.02255308  0.86394617  0.24513304  1
  O  O137  1  0.00546693  0.89293085  0.74662490  1
  O  O138  1  0.45979191  0.43635139  0.25366782  1
  O  O139  1  0.49230283  0.36422020  0.75154157  1
  O  O140  1  0.47897217  0.85060218  0.27364918  1
  O  O141  1  0.51589621  0.87783360  0.78182652  1
  O  O142  1  0.55780371  0.10334618  0.22401208  1
  O  O143  1  0.49580868  0.13702322  0.73305713  1
  O  O144  1  0.49497004  0.61527816  0.22497531  1
  O  O145  1  0.52081709  0.62025411  0.73385276  1
  O  O146  1  1.01636211  0.10042990  0.30467748  1
  O  O147  1  0.98563783  0.14323584  0.72908791  1
  O  O148  1  1.05191356  0.68676536  0.22428860  1
  O  O149  1  1.01838242  0.63629054  0.76888897  1
  O  O150  1  0.41369093  0.20762279  -0.00601848  1
  O  O151  1  0.37052394  0.27841598  0.53103738  1
  O  O152  1  0.34411547  0.75407563  0.01466177  1
  O  O153  1  0.35283078  0.74193464  0.50616473  1
  O  O154  1  0.81246199  0.28287093  0.07537500  1
  O  O155  1  0.89352912  0.31246757  0.45700024  1
  O  O156  1  0.82962698  0.72080416  0.06334138  1
  O  O157  1  0.79419734  0.76836343  0.62826555  1
  O  O158  1  0.17629007  0.24195108  0.57266249  1
  O  O159  1  0.18273439  0.26452327  0.99695202  1
  O  O160  1  0.14611958  0.78508380  0.49989521  1
  O  O161  1  0.06951099  0.71692619  0.99339754  1
  O  O162  1  0.61382030  0.25538308  0.47324864  1
  O  O163  1  0.60253446  0.23593704  0.96825161  1
  O  O164  1  0.59693236  0.73507969  0.48420890  1
  O  O165  1  0.59974757  0.75699010  1.02319314  1
  O  O166  1  0.48117295  0.29105527  0.12831005  1
  O  O167  1  0.51196065  0.26246293  0.63418141  1
  O  O168  1  0.48860458  0.75563922  0.15530731  1
  O  O169  1  0.48182304  0.72920047  0.61886231  1
  O  O170  1  0.95746986  0.27998965  0.12781437  1
  O  O171  1  0.98455814  0.27415239  0.62022937  1
  O  O172  1  0.99366173  0.79083854  0.10388744  1
  O  O173  1  0.99323984  0.75029270  0.66155184  1
  O  O174  1  -0.01648003  0.16696340  0.33238767  1
  O  O175  1  -0.01894632  0.25909551  0.83599209  1
  O  O176  1  0.04449007  0.76365028  0.38433272  1
  O  O177  1  -0.01404531  0.78160884  0.86258902  1
  O  O178  1  0.57396376  0.24123925  0.40494511  1
  O  O179  1  0.50632065  0.25516749  0.85074687  1
  O  O180  1  0.49014305  0.71672712  0.36984701  1
  O  O181  1  0.44810606  0.76403882  0.88453527  1
  O  O182  1  0.28653330  0.14195661  0.51685987  1
  O  O183  1  0.27659442  0.14222600  1.01652540  1
  O  O184  1  0.22184887  0.64836781  0.50697858  1
  O  O185  1  0.21911917  0.65488577  0.98958741  1
  O  O186  1  0.76466414  0.15803208  0.41262064  1
  O  O187  1  0.76286683  0.17842109  1.02392209  1
  O  O188  1  0.75454090  0.59868994  0.54128009  1
  O  O189  1  0.75483429  0.59553170  0.97738760  1
  O  O190  1  0.28320036  0.38171940  -0.02616441  1
  O  O191  1  0.26324182  0.38352554  0.53172537  1
  O  O192  1  0.18956994  0.82033388  0.00426885  1
  O  O193  1  0.27388516  0.87164743  0.49860796  1
  O  O194  1  0.77470412  0.27741925  0.13551396  1
  O  O195  1  0.76469577  0.40966097  0.50754605  1
  O  O196  1  0.79738354  0.88141558  0.07319118  1
  O  O197  1  0.78237624  0.86083782  0.47314770  1
  O  O198  1  0.06687847  0.43695973  0.23180714  1
  O  O199  1  0.11547146  0.48503826  0.75620730  1
  O  O200  1  0.08621794  0.99281091  0.22576242  1
  O  O201  1  0.13262828  1.02068493  0.73741778  1
  O  O202  1  0.62820301  0.47714394  0.24812761  1
  O  O203  1  0.63202168  0.49673588  0.75282587  1
  O  O204  1  0.69468453  0.98457141  0.28872874  1
  O  O205  1  0.61175595  0.99705649  0.74911403  1
  O  O206  1  0.38370414  0.00890531  0.25266318  1
  O  O207  1  0.35479575  0.01290889  0.74021593  1
  O  O208  1  0.38110934  0.44698084  0.26644729  1
  O  O209  1  0.38839125  0.52652677  0.75797139  1
  O  O210  1  0.88381581  -0.00534110  0.26903589  1
  O  O211  1  0.87458725  0.03296319  0.73693237  1
  O  O212  1  0.89719565  0.55044807  0.25588388  1
  O  O213  1  0.86772758  0.49419531  0.77362968  1
  O  O214  1  0.08127930  0.40366886  0.29337552  1
  O  O215  1  0.10481175  0.36046451  0.85566704  1
  O  O216  1  0.13144387  0.90406428  0.39700860  1
  O  O217  1  0.09278591  0.90359671  0.84781834  1
  O  O218  1  0.67375774  0.28182656  0.26146639  1
  O  O219  1  0.60922972  0.35331708  0.86241428  1
  O  O220  1  0.59280382  0.85064541  0.37621386  1
  O  O221  1  0.59054247  0.82676450  0.88898653  1
  O  O222  1  0.40177730  0.14276775  0.14693959  1
  O  O223  1  0.38793345  0.12376246  0.62907923  1
  O  O224  1  0.35778691  0.51544496  0.27077042  1
  O  O225  1  0.35974361  0.64568894  0.64127095  1
  O  O226  1  0.85561031  0.16413691  0.09937155  1
  O  O227  1  0.86815442  0.15063383  0.60349568  1
  O  O228  1  0.85607346  0.67693764  0.11232999  1
  O  O229  1  0.90197137  0.62589182  0.66604613  1
  O  O230  1  0.31405618  0.27175742  0.09554561  1
  O  O231  1  0.23539969  0.25913072  0.62165935  1
  O  O232  1  0.23186169  0.72665305  0.13355395  1
  O  O233  1  0.25578071  0.76041822  0.61602194  1
  O  O234  1  0.81714236  0.16479988  0.16093137  1
  O  O235  1  0.78576589  0.29780146  0.59090579  1
  O  O236  1  0.72645357  0.76387323  0.16828718  1
  O  O237  1  0.85894686  0.81262958  0.64395853  1
  O  O238  1  0.25554112  0.26077834  0.41898234  1
  O  O239  1  0.30351785  0.24946347  0.89325561  1
  O  O240  1  0.23513264  0.75880491  0.39479423  1
  O  O241  1  0.24566833  0.75036134  0.86512774  1
  O  O242  1  0.72830308  0.25019200  0.29456973  1
  O  O243  1  0.72716440  0.24966887  0.86611407  1
  O  O244  1  0.70290592  0.73729569  0.36782704  1
  O  O245  1  0.72579317  0.73288990  0.92972422  1
  O  O246  1  0.00329602  0.06667102  0.00863035  1
  O  O247  1  0.08117795  0.15886109  0.45246412  1
  O  O248  1  0.01430842  0.57136418  -0.01441522  1
  O  O249  1  0.01854979  0.64783971  0.54418243  1
  O  O250  1  0.50712759  0.06850642  0.02623722  1
  O  O251  1  0.51825120  0.12432374  0.51668850  1
  O  O252  1  0.47110757  0.63406258  0.04628693  1
  O  O253  1  0.48096428  0.60782333  0.51724743  1
  O  O254  1  0.48523721  0.39433803  0.51190772  1
  O  O255  1  0.47169377  0.36489590  0.96208876  1
  O  O256  1  0.49224837  0.87074594  0.48557922  1
  O  O257  1  0.48777771  0.87485090  0.97975220  1
  O  O258  1  1.08776965  0.36129825  0.47251100  1
  O  O259  1  0.99107467  0.34945114  0.97018669  1
  O  O260  1  0.92380660  0.85934869  0.48351651  1
  O  O261  1  1.00267452  0.90000890  0.96775930  1
  O  O262  1  0.48745319  0.51484018  0.39422897  1
  O  O263  1  0.52512343  0.47989068  0.85463735  1
  O  O264  1  0.50445558  0.98149666  0.35996457  1
  O  O265  1  0.50099495  0.98284891  0.89381808  1
  O  O266  1  0.95633740  0.62336383  0.38232076  1
  O  O267  1  0.98854410  0.46829527  0.87819230  1
  O  O268  1  0.90379582  1.00073220  0.34709742  1
  O  O269  1  0.97227242  1.01420991  0.85887390  1
  O  O270  1  -0.06238901  -0.03657855  0.10458822  1
  O  O271  1  0.00581739  0.00857283  0.61234402  1
  O  O272  1  -0.02719131  0.46286604  0.10035723  1
  O  O273  1  -0.04962905  0.56083009  0.65369771  1
  O  O274  1  0.51573699  -0.06512076  0.10555173  1
  O  O275  1  0.55422517  0.07727048  0.56732868  1
  O  O276  1  0.53279045  0.49722785  0.11262600  1
  O  O277  1  0.50247857  0.51365130  0.61825333  1
  O  O278  1  0.22510627  0.39937538  0.27089656  1
  O  O279  1  0.22867540  0.36683733  0.74909118  1
  O  O280  1  0.23155247  0.93611341  0.23773109  1
  O  O281  1  0.23035835  0.91117931  0.75908568  1
  O  O282  1  0.76930091  0.43247711  0.31225891  1
  O  O283  1  0.72983655  0.37070780  0.70938496  1
  O  O284  1  0.70534191  0.83033185  0.20191367  1
  O  O285  1  0.70713393  0.87062370  0.76505884  1
  O  O286  1  0.23453384  0.09751964  0.24885615  1
  O  O287  1  0.27042205  0.12689399  0.73875185  1
  O  O288  1  0.18850163  0.62583936  0.29527485  1
  O  O289  1  0.22783982  0.63349731  0.77104275  1
  O  O290  1  0.71965832  0.05770663  0.27486768  1
  O  O291  1  0.75884726  0.13083164  0.71737980  1
  O  O292  1  0.73407569  0.58961288  0.25464560  1
  O  O293  1  0.71234976  0.61062856  0.82260244  1
  O  O294  1  0.40718576  0.15010872  0.40052637  1
  O  O295  1  0.40596874  0.09677855  0.84290939  1
  O  O296  1  0.32382745  0.62812834  0.38802045  1
  O  O297  1  0.33949975  0.62277417  0.88309146  1
  O  O298  1  0.86269396  0.04704908  0.38452992  1
  O  O299  1  0.86224011  0.13123129  0.85355530  1
  O  O300  1  0.92969737  0.51723783  0.51744227  1
  O  O301  1  0.86930340  0.58932928  0.87799163  1
  O  O302  1  0.13940790  0.31077791  0.18013311  1
  O  O303  1  0.13751743  0.38507478  0.64230228  1
  O  O304  1  0.13218350  0.87083484  0.13146668  1
  O  O305  1  0.11870880  0.91037774  0.64513996  1
  O  O306  1  0.65402009  0.36527727  0.06891181  1
  O  O307  1  0.65250607  0.36459393  0.59078235  1
  O  O308  1  0.64799530  0.86841372  0.17238460  1
  O  O309  1  0.59965995  0.86550543  0.64392774  1
  O  O310  1  0.08253082  0.19688942  0.20609597  1
  O  O311  1  0.09542486  0.25686417  0.73465151  1
  O  O312  1  0.15613844  0.81005088  0.28166696  1
  O  O313  1  0.13616765  0.78855503  0.74430163  1
  O  O314  1  0.60106699  0.12497291  0.16954378  1
  O  O315  1  0.60779617  0.24524410  0.75396318  1
  O  O316  1  0.58948027  0.72830047  0.27218472  1
  O  O317  1  0.61209873  0.78022742  0.82638526  1
  O  O318  1  0.36841748  0.25973666  0.25016821  1
  O  O319  1  0.38760934  0.23229941  0.75449799  1
  O  O320  1  0.38090841  0.72746041  0.26528524  1
  O  O321  1  0.36004819  0.77326793  0.72875113  1
  O  O322  1  0.92456073  0.19327135  0.29763374  1
  O  O323  1  0.87353372  0.23762329  0.73182262  1
  O  O324  1  0.90277958  0.75944891  0.22865654  1
  O  O325  1  0.83110057  0.72506525  0.82980313  1
  O  O326  1  0.37707137  0.48333545  0.49843551  1
  O  O327  1  0.38918975  0.50941168  0.95450497  1
  O  O328  1  0.38534142  0.98916609  0.50526042  1
  O  O329  1  0.36442377  1.01298742  0.97736567  1
  O  O330  1  0.96764358  0.46130416  0.54246026  1
  O  O331  1  0.88276406  0.47025804  0.98098958  1
  O  O332  1  0.82765408  0.91603436  0.48005564  1
  O  O333  1  0.85946150  1.00565128  0.96294145  1
  O  O334  1  0.13897215  0.07742674  -0.07559827  1
  O  O335  1  0.13912368  0.01730879  0.51883069  1
  O  O336  1  0.09708717  0.44461679  0.00241099  1
  O  O337  1  0.12338337  0.51822668  0.54141814  1
  O  O338  1  0.63205369  -0.02532159  -0.01255350  1
  O  O339  1  0.70158272  0.05242623  0.44976303  1
  O  O340  1  0.68971991  0.39663392  0.01500982  1
  O  O341  1  0.60460217  0.50484078  0.49044206  1
  O  O342  1  0.38288766  0.42334203  0.08528276  1
  O  O343  1  0.35444843  0.38419766  0.65948601  1
  O  O344  1  0.34937065  0.86864710  0.14088481  1
  O  O345  1  0.39140486  0.85582726  0.59838578  1
  O  O346  1  0.93423286  0.29666459  0.19252048  1
  O  O347  1  0.84490465  0.42116187  0.63306198  1
  O  O348  1  0.79146764  0.93335278  0.12194872  1
  O  O349  1  0.84440478  0.88751401  0.64220156  1
  O  O350  1  0.13158279  0.16076686  0.40263751  1
  O  O351  1  0.10556613  0.13307595  0.87938681  1
  O  O352  1  0.11343895  0.62213331  0.42408514  1
  O  O353  1  0.13890413  0.60264015  0.89550267  1
  O  O354  1  0.59452054  0.18164763  0.36956112  1
  O  O355  1  0.62173290  0.12910728  0.85268003  1
  O  O356  1  0.61827659  0.61057052  0.37937423  1
  O  O357  1  0.58092880  0.64367692  0.90795124  1
