# generated using pymatgen
data_V51Zn51O256
_symmetry_space_group_name_H-M   'P 1'
_cell_length_a   17.60120006
_cell_length_b   17.48145116
_cell_length_c   17.44408282
_cell_angle_alpha   89.65725392
_cell_angle_beta   90.35592793
_cell_angle_gamma   92.05482471
_symmetry_Int_Tables_number   1
_chemical_formula_structural   V51Zn51O256
_chemical_formula_sum   'V51 Zn51 O256'
_cell_volume   5363.80469738
_cell_formula_units_Z   1
loop_
 _symmetry_equiv_pos_site_id
 _symmetry_equiv_pos_as_xyz
  1  'x, y, z'
loop_
 _atom_site_type_symbol
 _atom_site_label
 _atom_site_symmetry_multiplicity
 _atom_site_fract_x
 _atom_site_fract_y
 _atom_site_fract_z
 _atom_site_occupancy
  V  V0  1  0.82284408  0.62659009  0.43218698  1
  V  V1  1  -0.00674904  0.63907257  0.13695133  1
  V  V2  1  0.91871585  0.37634060  0.56653993  1
  V  V3  1  0.12687646  0.77288678  0.33109111  1
  V  V4  1  0.25517203  0.14615332  0.85851847  1
  V  V5  1  0.49508307  0.65532637  0.14724715  1
  V  V6  1  -0.01242480  0.35655742  0.88140266  1
  V  V7  1  0.27142130  0.42848739  0.06907920  1
  V  V8  1  0.89447273  0.05417745  0.26429982  1
  V  V9  1  0.73695848  0.09805162  0.89309400  1
  V  V10  1  -0.01243975  0.88670592  0.84066565  1
  V  V11  1  0.30919870  0.24348042  0.49652791  1
  V  V12  1  0.79458330  0.56485180  0.75531170  1
  V  V13  1  0.11900747  0.66565081  -0.00290922  1
  V  V14  1  0.64149086  -0.03998329  0.15103927  1
  V  V15  1  0.36460722  0.58348793  0.24469304  1
  V  V16  1  0.20737246  0.19021027  0.33181418  1
  V  V17  1  0.12392121  0.79734647  0.84278791  1
  V  V18  1  0.34622743  0.75845012  0.14052383  1
  V  V19  1  0.72244094  0.28531646  0.49076481  1
  V  V20  1  0.90030775  0.50598471  0.34595559  1
  V  V21  1  0.07454691  0.61054199  0.60836220  1
  V  V22  1  0.60422722  0.84791700  0.74911513  1
  V  V23  1  0.00556721  0.11544086  0.64785444  1
  V  V24  1  0.91319975  -0.04451685  0.43505935  1
  V  V25  1  0.06398065  0.13103702  0.01076919  1
  V  V26  1  0.75304562  0.21535405  0.01522402  1
  V  V27  1  -0.00183138  0.52822644  -0.03784758  1
  V  V28  1  0.25826357  0.41226310  0.66492811  1
  V  V29  1  0.86444263  0.74137270  0.09391321  1
  V  V30  1  0.74623757  0.84387007  0.62864676  1
  V  V31  1  0.33394646  0.77926516  0.62083031  1
  V  V32  1  0.76494986  0.41773642  0.15023857  1
  V  V33  1  0.69381277  0.63024381  0.89554728  1
  V  V34  1  0.48737466  0.12329852  0.09683667  1
  V  V35  1  0.87403121  0.88629745  -0.00523199  1
  V  V36  1  0.11634473  0.01262802  0.12632547  1
  V  V37  1  0.88212600  0.00814989  0.85446907  1
  V  V38  1  0.22866585  0.02890566  0.26462751  1
  V  V39  1  0.84446059  0.13829653  0.74522179  1
  V  V40  1  0.61051148  0.33687759  0.75255700  1
  V  V41  1  0.64966343  0.23439160  0.34297641  1
  V  V42  1  0.38920353  0.01498420  0.88704235  1
  V  V43  1  0.62856463  0.38870986  0.23926492  1
  V  V44  1  0.10242030  0.49898030  0.11809851  1
  V  V45  1  0.60872828  -0.00355396  0.64082490  1
  V  V46  1  0.24622674  0.57564381  0.36512935  1
  V  V47  1  0.40370129  0.12765663  0.25103015  1
  V  V48  1  0.27178901  0.24364815  0.00754308  1
  V  V49  1  0.75871097  0.07274867  0.38691952  1
  V  V50  1  0.45450597  0.78640760  0.28071035  1
  Zn  Zn51  1  0.81394401  0.03611008  0.56780183  1
  Zn  Zn52  1  0.08754237  0.61242964  0.81513275  1
  Zn  Zn53  1  0.30211781  0.28800251  0.20410397  1
  Zn  Zn54  1  0.77569072  0.35952468  0.33889469  1
  Zn  Zn55  1  0.27769965  0.59122242  0.57125984  1
  Zn  Zn56  1  0.65822322  0.90923859  0.46170200  1
  Zn  Zn57  1  0.70026614  0.82325104  0.90896139  1
  Zn  Zn58  1  0.90401611  0.42184450  0.76086289  1
  Zn  Zn59  1  0.42124242  0.18203427  0.94214648  1
  Zn  Zn60  1  0.53117650  0.84402427  0.57224339  1
  Zn  Zn61  1  0.82082982  0.57281948  0.03633193  1
  Zn  Zn62  1  0.47005268  0.18939381  0.42347748  1
  Zn  Zn63  1  0.05341912  0.95161094  0.31181417  1
  Zn  Zn64  1  0.09988731  0.46681874  0.32886290  1
  Zn  Zn65  1  0.20403007  0.17911311  0.66025689  1
  Zn  Zn66  1  0.11602298  0.40746418  0.51849198  1
  Zn  Zn67  1  0.10298482  1.01091668  0.89958025  1
  Zn  Zn68  1  0.44442170  0.40188095  0.66792895  1
  Zn  Zn69  1  0.86342676  0.55219353  0.60312911  1
  Zn  Zn70  1  0.36813483  0.68188844  0.43227621  1
  Zn  Zn71  1  0.81339799  0.04317137  0.07340824  1
  Zn  Zn72  1  1.03741231  0.60879907  0.39632958  1
  Zn  Zn73  1  0.79511103  0.46067836  0.47072219  1
  Zn  Zn74  1  0.27711809  0.60294368  0.07675759  1
  Zn  Zn75  1  0.03991142  0.82785124  0.07171975  1
  Zn  Zn76  1  0.90208252  0.19156244  0.95890617  1
  Zn  Zn77  1  0.58022696  0.08007671  0.29723409  1
  Zn  Zn78  1  0.68156386  0.17818742  0.63757218  1
  Zn  Zn79  1  0.96407582  0.73475645  0.94585434  1
  Zn  Zn80  1  0.44292769  0.93474816  0.68811109  1
  Zn  Zn81  1  0.79867065  0.29141553  0.83865959  1
  Zn  Zn82  1  0.07481604  0.87733131  0.47761005  1
  Zn  Zn83  1  0.18024871  0.67144928  0.19870871  1
  Zn  Zn84  1  0.93312246  0.44522519  0.16138130  1
  Zn  Zn85  1  0.23474046  0.36916861  0.38160591  1
  Zn  Zn86  1  0.72848749  0.73538323  0.74722479  1
  Zn  Zn87  1  0.29359252  0.85599098  0.80109311  1
  Zn  Zn88  1  0.30455684  0.05935301  0.05914749  1
  Zn  Zn89  1  0.27806765  0.83626694  0.31398905  1
  Zn  Zn90  1  0.66327345  0.76343579  0.11689572  1
  Zn  Zn91  1  0.14732365  0.20037718  0.15131386  1
  Zn  Zn92  1  0.58905862  -0.01571216  0.85036686  1
  Zn  Zn93  1  0.12092256  0.80909470  0.63270536  1
  Zn  Zn94  1  0.61428851  0.25560344  0.15162161  1
  Zn  Zn95  1  0.85498251  0.19427563  0.55247097  1
  Zn  Zn96  1  -0.00033386  0.16294082  0.83702120  1
  Zn  Zn97  1  0.94826775  0.91356084  0.63255556  1
  Zn  Zn98  1  0.93948151  0.93932535  0.15553650  1
  Zn  Zn99  1  0.11541241  0.33320882  0.00795604  1
  Zn  Zn100  1  0.80057267  0.79850138  0.45672008  1
  Zn  Zn101  1  0.18687275  0.33593251  0.84227097  1
  O  O102  1  0.07935549  0.10461715  0.12853297  1
  O  O103  1  0.10091644  0.14451557  0.64824798  1
  O  O104  1  0.10081398  0.63166316  0.11797328  1
  O  O105  1  0.17474218  0.62815894  0.59754929  1
  O  O106  1  0.55482301  0.02963168  0.09910595  1
  O  O107  1  0.61310203  0.09534083  0.63944176  1
  O  O108  1  0.58912575  0.67805354  0.14019324  1
  O  O109  1  0.63807280  0.56625934  0.58947912  1
  O  O110  1  0.45885556  0.39340494  0.44191049  1
  O  O111  1  0.36270552  0.52264937  0.84945587  1
  O  O112  1  0.36375208  0.84944995  0.39683972  1
  O  O113  1  0.34777117  0.94629115  0.82790120  1
  O  O114  1  0.86596209  0.41422658  0.37863782  1
  O  O115  1  0.87865439  0.36364650  0.85706233  1
  O  O116  1  0.86712491  0.87272111  0.40390188  1
  O  O117  1  0.88630692  0.89870447  0.87504269  1
  O  O118  1  0.21557347  0.06932365  0.35152635  1
  O  O119  1  0.20136500  0.06455396  0.86800296  1
  O  O120  1  0.26653680  0.48293089  0.36749279  1
  O  O121  1  0.44912810  0.64192981  0.83989673  1
  O  O122  1  0.72220993  -0.01780401  0.39790712  1
  O  O123  1  0.78318044  0.00854850  0.89232773  1
  O  O124  1  0.79372647  0.53886512  0.38390913  1
  O  O125  1  0.71796859  0.55813347  0.82378694  1
  O  O126  1  0.21129977  0.50716483  0.10119157  1
  O  O127  1  0.28269874  0.50829122  0.64039829  1
  O  O128  1  0.21588262  1.01676040  0.11980166  1
  O  O129  1  0.21450971  1.03748184  0.57413012  1
  O  O130  1  0.76840188  0.50527987  0.10884949  1
  O  O131  1  0.77921803  0.52059111  0.66801544  1
  O  O132  1  0.72760660  0.99115621  0.12235353  1
  O  O133  1  0.72284276  0.97572989  0.61171481  1
  O  O134  1  -0.00104048  0.36915699  0.22818832  1
  O  O135  1  0.01024862  0.39694621  0.79582986  1
  O  O136  1  -0.07021236  0.77081215  0.29740848  1
  O  O137  1  -0.02411009  0.88620478  0.74642037  1
  O  O138  1  0.55516298  0.32598202  0.21675922  1
  O  O139  1  0.51447703  0.32588379  0.72196846  1
  O  O140  1  0.49729575  0.87070659  0.27676192  1
  O  O141  1  0.50548450  0.86794359  0.74614296  1
  O  O142  1  0.49903781  0.10484466  0.21944768  1
  O  O143  1  0.40285040  0.03661587  0.70711609  1
  O  O144  1  0.47452165  0.59917132  0.22761719  1
  O  O145  1  0.49320118  0.47361360  0.73137058  1
  O  O146  1  0.95103137  0.12938255  0.26710335  1
  O  O147  1  0.95904537  0.14679066  0.73615918  1
  O  O148  1  0.99256714  0.63310168  0.22926038  1
  O  O149  1  1.08939740  0.58777774  0.70733690  1
  O  O150  1  0.36684274  0.26211600  -0.00827749  1
  O  O151  1  0.40661962  0.22821829  0.49804861  1
  O  O152  1  0.39857500  0.71865123  0.03468646  1
  O  O153  1  0.31736094  0.78081956  0.52351641  1
  O  O154  1  0.84434784  0.23124758  0.04455309  1
  O  O155  1  0.87243381  0.30121163  0.51801240  1
  O  O156  1  0.86234204  0.73847477  -0.00369216  1
  O  O157  1  0.95258198  0.74477334  0.48354643  1
  O  O158  1  0.11675546  0.25353259  0.51858930  1
  O  O159  1  0.10672772  0.22237429  1.04097294  1
  O  O160  1  0.14182356  0.80441850  0.52156198  1
  O  O161  1  0.11492847  0.75934291  1.02617662  1
  O  O162  1  0.63168399  0.25731135  0.47944076  1
  O  O163  1  0.67887162  0.31482784  0.97813195  1
  O  O164  1  0.63119296  0.61632732  0.54111112  1
  O  O165  1  0.63582910  0.78058407  1.00255847  1
  O  O166  1  0.51941672  0.21472702  0.10843485  1
  O  O167  1  0.37685040  0.04893073  0.58064729  1
  O  O168  1  0.45829743  0.74758182  0.17337996  1
  O  O169  1  0.43821921  0.78146174  0.60793194  1
  O  O170  1  1.02367858  0.30762031  0.19229120  1
  O  O171  1  1.05064432  0.29912996  0.68679135  1
  O  O172  1  0.97621627  0.74492882  0.12227378  1
  O  O173  1  1.06298069  0.70763531  0.62969304  1
  O  O174  1  -0.05533008  0.23021000  0.39240976  1
  O  O175  1  -0.03227565  0.25367027  0.89280409  1
  O  O176  1  0.05961785  0.71229344  0.37139946  1
  O  O177  1  0.00977472  0.78660100  0.85607058  1
  O  O178  1  0.55392220  0.21379816  0.35450894  1
  O  O179  1  0.36873178  0.31198321  0.80785895  1
  O  O180  1  0.40575045  0.78750762  0.39031622  1
  O  O181  1  0.55683463  0.79437190  0.98174551  1
  O  O182  1  0.26611982  0.18856108  0.42174541  1
  O  O183  1  0.26386176  0.14314376  0.99003208  1
  O  O184  1  0.27903221  0.61454642  0.46289085  1
  O  O185  1  0.21138344  0.63697171  0.99494251  1
  O  O186  1  0.79511939  0.10669168  0.47797714  1
  O  O187  1  0.76012985  0.10855596  1.00117091  1
  O  O188  1  0.79935206  0.59831762  0.52347030  1
  O  O189  1  0.73742653  0.61432664  0.98202611  1
  O  O190  1  0.23255082  0.35238259  0.00458518  1
  O  O191  1  0.29441089  0.33650020  0.47078355  1
  O  O192  1  0.23190209  0.91518361  -0.01787838  1
  O  O193  1  0.35774306  0.99567243  0.43831405  1
  O  O194  1  0.74921227  0.33539335  -0.00932436  1
  O  O195  1  0.72339295  0.38374488  0.50195980  1
  O  O196  1  0.78015301  0.86403892  -0.02462343  1
  O  O197  1  0.73283694  0.85077161  0.52030130  1
  O  O198  1  0.10595473  0.49387423  0.21702784  1
  O  O199  1  0.21067999  0.58332082  0.81136335  1
  O  O200  1  0.12382834  1.00408021  0.23368820  1
  O  O201  1  0.17968010  0.97599428  0.56343870  1
  O  O202  1  0.59367132  0.47284967  0.24931721  1
  O  O203  1  0.58966420  0.40656117  0.81938657  1
  O  O204  1  0.62500127  1.00224215  0.23718625  1
  O  O205  1  0.61482994  0.98004200  0.73910165  1
  O  O206  1  0.32431877  0.06006595  0.23787282  1
  O  O207  1  0.23930918  0.00014031  0.71495870  1
  O  O208  1  0.35922922  0.49132036  0.24362192  1
  O  O209  1  0.36192748  0.50834885  0.78099558  1
  O  O210  1  0.95498377  -0.03452591  0.26586133  1
  O  O211  1  0.86558010  0.01356182  0.76105140  1
  O  O212  1  0.89367488  0.50569741  0.25036685  1
  O  O213  1  0.87688157  0.52348557  0.78623914  1
  O  O214  1  0.05866213  0.22369636  0.49213221  1
  O  O215  1  0.09524564  0.33839941  0.89985596  1
  O  O216  1  0.10682215  0.86772398  0.36028223  1
  O  O217  1  0.09536024  0.90109580  0.86106073  1
  O  O218  1  0.65416102  0.34243461  0.33495200  1
  O  O219  1  0.57257932  0.25895030  0.84700516  1
  O  O220  1  0.64460095  0.84003294  0.32881006  1
  O  O221  1  0.62505637  0.87825401  0.85114508  1
  O  O222  1  0.39028594  0.11276616  0.11381638  1
  O  O223  1  0.39429765  0.08244035  0.64257498  1
  O  O224  1  0.36205085  0.62688684  0.14609647  1
  O  O225  1  0.33308949  0.68027182  0.62924153  1
  O  O226  1  0.87699828  0.03446760  0.16368513  1
  O  O227  1  0.81898968  0.11731006  0.64915389  1
  O  O228  1  0.88468445  0.63861338  0.11170642  1
  O  O229  1  0.97541573  0.58727834  0.61782756  1
  O  O230  1  0.25192668  0.23845315  0.10701550  1
  O  O231  1  0.26840327  0.21836135  0.58446113  1
  O  O232  1  0.25484670  0.71693449  0.12492627  1
  O  O233  1  0.23660806  0.79468341  0.63572859  1
  O  O234  1  0.68941094  0.21036828  0.08768568  1
  O  O235  1  0.75040696  0.23457839  0.57622544  1
  O  O236  1  0.77181598  0.74222738  0.12343152  1
  O  O237  1  0.73580020  0.74673571  0.63194134  1
  O  O238  1  0.24163199  0.28766560  0.30153026  1
  O  O239  1  0.23270423  0.24319759  0.89625683  1
  O  O240  1  0.21862672  0.75419555  0.36330183  1
  O  O241  1  0.21907754  0.81170880  0.86552692  1
  O  O242  1  0.75538916  0.25987424  0.39398448  1
  O  O243  1  0.75328217  0.20952043  0.90522739  1
  O  O244  1  0.88081816  0.72151831  0.50578194  1
  O  O245  1  0.72099360  0.72534227  0.86021987  1
  O  O246  1  -0.03090419  0.12939080  0.02127826  1
  O  O247  1  -0.04478992  0.15541174  0.57333706  1
  O  O248  1  0.01072922  0.64589204  -0.00833222  1
  O  O249  1  0.05726663  0.63095016  0.51016296  1
  O  O250  1  0.48879013  0.11964926  -0.00291338  1
  O  O251  1  0.52492754  0.09575298  0.48081212  1
  O  O252  1  0.45490383  0.67165449  0.04031402  1
  O  O253  1  0.46108220  0.65181519  0.49093910  1
  O  O254  1  0.47655067  0.38155085  0.51083739  1
  O  O255  1  0.50938055  0.22214560  0.85236596  1
  O  O256  1  0.56219316  0.85820871  0.47142390  1
  O  O257  1  0.51756130  0.82429215  1.03188607  1
  O  O258  1  1.01473106  0.37444296  0.55001479  1
  O  O259  1  0.98802226  0.42115174  0.96203431  1
  O  O260  1  0.96919920  0.81635279  0.49857712  1
  O  O261  1  0.97192385  0.85003701  0.98052652  1
  O  O262  1  0.47027415  0.44166013  0.56174498  1
  O  O263  1  0.48942357  0.48631664  0.91766332  1
  O  O264  1  0.54493110  1.00843872  0.38744511  1
  O  O265  1  0.48444837  1.00792577  0.87570337  1
  O  O266  1  1.00035115  0.50213710  0.36444024  1
  O  O267  1  1.02321623  0.54170407  0.86866558  1
  O  O268  1  1.01388452  0.95572378  0.42626779  1
  O  O269  1  0.98853426  0.99736122  0.86453904  1
  O  O270  1  0.05045848  -0.07078830  0.12008713  1
  O  O271  1  -0.00589626  0.01968830  0.64655873  1
  O  O272  1  -0.00621076  0.52602465  0.11191361  1
  O  O273  1  0.09234489  0.51289671  0.58113092  1
  O  O274  1  0.56174562  -0.00363297  0.02122834  1
  O  O275  1  0.51704698  -0.03361698  0.60703604  1
  O  O276  1  0.50941705  0.54639801  0.07258209  1
  O  O277  1  0.48130174  0.59378770  0.60520206  1
  O  O278  1  0.30685043  0.38215024  0.14597802  1
  O  O279  1  0.22475986  0.39649109  0.75948763  1
  O  O280  1  0.24852189  0.93602774  0.28591116  1
  O  O281  1  0.21144630  0.93479330  0.72651140  1
  O  O282  1  0.74881197  0.42194047  0.25056604  1
  O  O283  1  0.69986204  0.32590009  0.79674089  1
  O  O284  1  0.65433116  0.77449869  0.30797766  1
  O  O285  1  0.72042977  0.85525671  0.73275321  1
  O  O286  1  0.20360693  0.15054294  0.23560705  1
  O  O287  1  0.24538849  0.16923242  0.76370220  1
  O  O288  1  0.25039696  0.60471550  0.25921122  1
  O  O289  1  0.25295252  0.63975833  0.79504583  1
  O  O290  1  0.79723803  0.08699361  0.29187068  1
  O  O291  1  0.75442074  0.11415786  0.78993963  1
  O  O292  1  0.77506654  0.70466075  0.39912786  1
  O  O293  1  0.81104615  0.66022655  0.73672695  1
  O  O294  1  0.41592028  0.12325494  0.34803360  1
  O  O295  1  0.35828406  0.11922880  0.86707756  1
  O  O296  1  0.36470617  0.61702742  0.34174948  1
  O  O297  1  0.47126084  0.63363514  0.77409421  1
  O  O298  1  0.88157112  0.03107135  0.37968283  1
  O  O299  1  0.88766035  0.11658725  0.86574792  1
  O  O300  1  0.91705464  0.60913626  0.39591874  1
  O  O301  1  0.92510670  0.66877803  0.82537564  1
  O  O302  1  0.09227936  0.40556151  0.08975437  1
  O  O303  1  0.19093661  0.38308459  0.59810060  1
  O  O304  1  0.21954493  0.86816880  0.03287491  1
  O  O305  1  0.05309816  0.88475202  0.59616661  1
  O  O306  1  0.67412725  0.36813011  0.13663647  1
  O  O307  1  0.63883435  0.39823067  0.68176794  1
  O  O308  1  0.63960767  0.86237346  0.16050722  1
  O  O309  1  0.62035931  0.86670143  0.63790778  1
  O  O310  1  0.09325039  0.28874751  0.21326610  1
  O  O311  1  0.10975323  0.28245975  0.71966831  1
  O  O312  1  0.12748853  0.76085048  0.23276634  1
  O  O313  1  0.12363837  0.79229490  0.74626171  1
  O  O314  1  0.66653708  0.21621165  0.24990224  1
  O  O315  1  0.62997648  0.25081714  0.70242730  1
  O  O316  1  0.51213068  0.72504225  0.32171947  1
  O  O317  1  0.60522128  0.75153373  0.74866719  1
  O  O318  1  0.38096718  0.21959470  0.23219570  1
  O  O319  1  0.40219918  0.35835843  0.85058168  1
  O  O320  1  0.34597286  0.78306736  0.24492362  1
  O  O321  1  0.33981266  0.78983480  0.72631900  1
  O  O322  1  0.96598151  0.27624687  0.34345084  1
  O  O323  1  0.83728305  0.23406416  0.74988373  1
  O  O324  1  0.87015442  0.75275646  0.26461919  1
  O  O325  1  0.96946761  0.66495571  0.77145642  1
  O  O326  1  0.43933754  0.59789639  0.54613840  1
  O  O327  1  0.49891693  0.42654038  0.95237829  1
  O  O328  1  0.50630095  1.02973373  0.44861469  1
  O  O329  1  0.35904979  1.00160450  0.97946542  1
  O  O330  1  0.88717343  0.46729699  0.53339208  1
  O  O331  1  0.90220777  0.54317969  0.97199167  1
  O  O332  1  0.89182529  0.97035019  0.53181932  1
  O  O333  1  0.88378881  0.98324885  1.00817911  1
  O  O334  1  0.10283226  0.03219783  0.01362420  1
  O  O335  1  0.29264113  -0.02327639  0.45583033  1
  O  O336  1  0.09430774  0.53810125  0.00731678  1
  O  O337  1  0.13353727  0.40033948  0.40990331  1
  O  O338  1  0.61706624  -0.05112819  0.02528692  1
  O  O339  1  0.67072754  -0.00868058  0.54953171  1
  O  O340  1  0.57257524  0.51739613  0.07200061  1
  O  O341  1  0.61027983  0.47330366  0.44429155  1
  O  O342  1  0.34059159  0.47982791  0.02742931  1
  O  O343  1  0.34363345  0.36531221  0.65694153  1
  O  O344  1  0.34654919  0.84071795  0.09660571  1
  O  O345  1  0.35869303  0.88466534  0.62211400  1
  O  O346  1  0.84997174  0.37526766  0.13306082  1
  O  O347  1  0.89993548  0.37354398  0.66307008  1
  O  O348  1  0.88135469  0.85550416  0.09958526  1
  O  O349  1  0.84208136  0.86770733  0.63699471  1
  O  O350  1  0.12004880  0.20162065  0.35739857  1
  O  O351  1  0.07464674  0.13337111  0.90934638  1
  O  O352  1  0.14697146  0.57278513  0.37260369  1
  O  O353  1  0.11672797  0.69361467  0.88593950  1
  O  O354  1  0.67256909  0.12581266  0.37166024  1
  O  O355  1  0.64317965  0.07640345  0.89423019  1
  O  O356  1  0.56396715  0.52338030  0.43770294  1
  O  O357  1  0.60164677  0.62184582  0.91021147  1
