# generated using pymatgen
data_V51Zn51O256
_symmetry_space_group_name_H-M   'P 1'
_cell_length_a   17.39472679
_cell_length_b   17.66814045
_cell_length_c   17.56841547
_cell_angle_alpha   90.24863634
_cell_angle_beta   89.99294858
_cell_angle_gamma   91.45216443
_symmetry_Int_Tables_number   1
_chemical_formula_structural   V51Zn51O256
_chemical_formula_sum   'V51 Zn51 O256'
_cell_volume   5397.55970351
_cell_formula_units_Z   1
loop_
 _symmetry_equiv_pos_site_id
 _symmetry_equiv_pos_as_xyz
  1  'x, y, z'
loop_
 _atom_site_type_symbol
 _atom_site_label
 _atom_site_symmetry_multiplicity
 _atom_site_fract_x
 _atom_site_fract_y
 _atom_site_fract_z
 _atom_site_occupancy
  V  V0  1  0.36545499  0.42250833  0.05358887  1
  V  V1  1  0.15427452  0.19095209  0.39406703  1
  V  V2  1  0.33814668  0.69508273  0.30545603  1
  V  V3  1  0.74892060  0.14412659  0.40022397  1
  V  V4  1  0.02061954  0.61156774  0.65613011  1
  V  V5  1  0.39099839  0.30218908  0.62816157  1
  V  V6  1  0.22785639  0.54759003  0.27971375  1
  V  V7  1  0.02171365  0.13431470  0.09356808  1
  V  V8  1  0.36450763  0.64413010  0.76347731  1
  V  V9  1  0.84155880  0.07566534  0.27035976  1
  V  V10  1  0.84492902  0.60535938  0.21733893  1
  V  V11  1  0.12927786  0.74835299  0.84778213  1
  V  V12  1  0.48284868  0.37361578  0.38929563  1
  V  V13  1  0.35685756  0.06728220  0.26134381  1
  V  V14  1  -0.01808927  -0.01879338  0.45784439  1
  V  V15  1  0.13708466  0.65623181  0.04761864  1
  V  V16  1  0.37741170  0.14449244  0.74300971  1
  V  V17  1  0.03255002  0.26633214  0.74669875  1
  V  V18  1  0.77014596  0.87836188  0.66534033  1
  V  V19  1  0.59375882  0.11747226  0.49585513  1
  V  V20  1  0.27199290  0.04479390  0.42814000  1
  V  V21  1  0.27749818  -0.03423228  0.76653665  1
  V  V22  1  0.23345270  0.52067967  0.71988481  1
  V  V23  1  0.75389338  0.02990594  0.74390303  1
  V  V24  1  0.00684475  0.50087053  0.01940168  1
  V  V25  1  0.81109854  0.11093493  0.90011373  1
  V  V26  1  0.49426099  0.38589997  0.86207264  1
  V  V27  1  0.54904761  0.21953476  0.19810092  1
  V  V28  1  0.85707920  0.84602974  0.00571982  1
  V  V29  1  0.59725489  0.90081806  0.74354930  1
  V  V30  1  0.04823234  0.87914405  0.87196273  1
  V  V31  1  0.23824012  0.31799678  0.00117355  1
  V  V32  1  0.60463053  0.02749686  0.08839612  1
  V  V33  1  0.23058181  0.87267226  0.11192858  1
  V  V34  1  0.85182956  0.86835927  0.50142293  1
  V  V35  1  0.54355633  0.65337787  0.10595119  1
  V  V36  1  0.91112378  0.20547355  0.60945803  1
  V  V37  1  0.84715488  0.70272800  0.63564473  1
  V  V38  1  0.58458135  0.79283298  0.86193165  1
  V  V39  1  0.29162415  0.74229676  0.55052845  1
  V  V40  1  0.24067752  0.63289328  0.89826434  1
  V  V41  1  0.50983877  0.59360144  0.65670507  1
  V  V42  1  0.36733590  0.50256013  0.37332313  1
  V  V43  1  0.09625542  0.89570955  0.23709649  1
  V  V44  1  0.56397431  0.16631086  -0.03886659  1
  V  V45  1  0.01564514  0.35783894  0.34413236  1
  V  V46  1  0.04029289  0.75922033  0.36602781  1
  V  V47  1  0.64164479  0.65456896  0.41554818  1
  V  V48  1  0.38656901  0.76003525  0.12625395  1
  V  V49  1  -0.06009676  0.23539132  0.24278802  1
  V  V50  1  0.23591608  0.38164385  0.58736830  1
  Zn  Zn51  1  0.43269314  0.17136482  0.39993226  1
  Zn  Zn52  1  0.52242419  0.31570207  0.04898449  1
  Zn  Zn53  1  0.74678230  0.18213893  0.19819233  1
  Zn  Zn54  1  0.15800408  0.09284506  0.22384360  1
  Zn  Zn55  1  0.28231956  0.89068584  0.30101978  1
  Zn  Zn56  1  0.39019115  0.21842270  0.92059682  1
  Zn  Zn57  1  0.40646627  0.96090501  0.13338022  1
  Zn  Zn58  1  0.20506922  0.73669865  0.21636773  1
  Zn  Zn59  1  0.44260368  0.67486233  0.48422860  1
  Zn  Zn60  1  0.83540534  0.23945360  0.76529911  1
  Zn  Zn61  1  0.21471979  0.20759513  0.68227862  1
  Zn  Zn62  1  0.55780457  0.50717951  0.28921283  1
  Zn  Zn63  1  0.14062474  0.01795337  0.90174046  1
  Zn  Zn64  1  0.66017686  0.72199156  0.68731531  1
  Zn  Zn65  1  0.35940103  0.57303429  0.17117314  1
  Zn  Zn66  1  0.32621664  0.46343373  0.86904688  1
  Zn  Zn67  1  0.15050499  0.89593280  0.42853460  1
  Zn  Zn68  1  -0.02381499  0.76204072  0.53630724  1
  Zn  Zn69  1  0.84327526  0.77812268  0.32661686  1
  Zn  Zn70  1  0.05551937  0.82863128  0.06558193  1
  Zn  Zn71  1  0.26477638  0.84633658  0.91090271  1
  Zn  Zn72  1  0.50784192  0.29191912  0.51941467  1
  Zn  Zn73  1  0.40081996  0.46373241  0.70773294  1
  Zn  Zn74  1  0.93364208  0.97076252  0.73720086  1
  Zn  Zn75  1  0.66968386  0.96005067  0.57307895  1
  Zn  Zn76  1  0.71277741  0.18559273  0.63319167  1
  Zn  Zn77  1  0.58889896  0.11523969  0.76525379  1
  Zn  Zn78  1  0.41187498  0.82237758  0.80411187  1
  Zn  Zn79  1  0.93886259  0.17476617  0.42585457  1
  Zn  Zn80  1  0.19682905  0.70002570  0.68235789  1
  Zn  Zn81  1  0.62192229  0.07821024  0.29086850  1
  Zn  Zn82  1  0.46959310  0.99691942  0.73544123  1
  Zn  Zn83  1  0.80427015  0.50947825  0.03759699  1
  Zn  Zn84  1  0.99205699  0.17140577  0.89938877  1
  Zn  Zn85  1  0.05492513  0.30926510  0.52730846  1
  Zn  Zn86  1  0.93566426  0.43618689  0.21258406  1
  Zn  Zn87  1  0.02525955  0.56470360  0.31133564  1
  Zn  Zn88  1  0.07237942  0.55930072  0.82499526  1
  Zn  Zn89  1  0.62663386  0.44845440  0.99532296  1
  Zn  Zn90  1  0.55644756  0.39473943  0.68933206  1
  Zn  Zn91  1  0.43718417  0.69752349  0.94597973  1
  Zn  Zn92  1  0.02467726  0.05763972  0.30737922  1
  Zn  Zn93  1  0.70200619  0.94425546  0.90521181  1
  Zn  Zn94  1  0.26036528  0.36197284  0.38085086  1
  Zn  Zn95  1  0.45275818  0.11622813  0.08203496  1
  Zn  Zn96  1  0.84163966  0.04732238  0.56962836  1
  Zn  Zn97  1  0.33597692  0.56010474  0.57348493  1
  Zn  Zn98  1  0.84481912  0.05102863  0.07546807  1
  Zn  Zn99  1  0.76540095  0.57436373  0.50949122  1
  Zn  Zn100  1  0.74667425  0.76437758  0.16120628  1
  Zn  Zn101  1  1.06970897  0.43583829  0.66614434  1
  O  O102  1  0.10943175  0.10534714  0.12916023  1
  O  O103  1  0.03164797  0.06424311  0.75528892  1
  O  O104  1  0.15991315  0.66237802  0.13901896  1
  O  O105  1  0.11202408  0.64328809  0.63622851  1
  O  O106  1  0.61384838  0.11359624  0.03364555  1
  O  O107  1  0.59793178  0.17737513  0.59182247  1
  O  O108  1  0.65317187  0.63601269  0.08842162  1
  O  O109  1  0.63947442  0.72765735  0.48406823  1
  O  O110  1  0.37832733  0.39528169  0.37211854  1
  O  O111  1  0.35837414  0.41073045  0.95520181  1
  O  O112  1  0.49937266  0.82477901  0.38090728  1
  O  O113  1  0.38108750  0.82936019  0.92551242  1
  O  O114  1  0.99019476  0.45602689  0.31059849  1
  O  O115  1  0.81069283  0.33381089  0.96951267  1
  O  O116  1  0.81825936  0.83773479  0.41706985  1
  O  O117  1  0.92228575  0.86770923  0.93010118  1
  O  O118  1  0.24199291  -0.04626493  0.38788253  1
  O  O119  1  0.22237388  0.03014502  0.99807186  1
  O  O120  1  0.25831618  0.46793710  0.34234938  1
  O  O121  1  0.24557917  0.53748301  0.89074112  1
  O  O122  1  0.76087807  0.08314502  0.49422806  1
  O  O123  1  0.74661705  0.03410828  0.85607989  1
  O  O124  1  0.80172314  0.50416523  0.44385242  1
  O  O125  1  0.76511223  0.37390530  0.81600573  1
  O  O126  1  0.24749556  0.53298206  0.18743018  1
  O  O127  1  0.23348167  0.48640810  0.62243641  1
  O  O128  1  0.28826328  0.94848906  0.13053208  1
  O  O129  1  0.19657554  0.92151345  0.70153038  1
  O  O130  1  0.79338558  0.41523476  0.10929279  1
  O  O131  1  0.72488028  0.47196116  0.60261384  1
  O  O132  1  0.70126753  0.98544809  0.06940815  1
  O  O133  1  0.75669848  1.00390444  0.63981892  1
  O  O134  1  -0.03418765  0.33415009  0.23624687  1
  O  O135  1  0.03574747  0.36363145  0.73791393  1
  O  O136  1  0.00442210  0.88613715  0.22180364  1
  O  O137  1  0.00747327  0.91484172  0.79179600  1
  O  O138  1  0.51790488  0.29193796  0.24434320  1
  O  O139  1  0.42898491  0.45060550  0.81587122  1
  O  O140  1  0.52799291  0.93630671  0.27073942  1
  O  O141  1  0.49355265  0.88594157  0.74954232  1
  O  O142  1  0.52193148  0.13122476  0.25366260  1
  O  O143  1  0.47922541  0.11205914  0.73257529  1
  O  O144  1  0.53883772  0.59263270  0.20737387  1
  O  O145  1  0.46537646  0.62544641  0.74456248  1
  O  O146  1  0.94096541  0.11492087  0.26318893  1
  O  O147  1  1.05478931  0.07872126  0.82261499  1
  O  O148  1  0.94969443  0.60339159  0.22716424  1
  O  O149  1  1.00774960  0.60875514  0.75261000  1
  O  O150  1  0.30645561  0.25181927  -0.02123376  1
  O  O151  1  0.39307931  0.25496389  0.54484478  1
  O  O152  1  0.38005600  0.72386141  0.03749993  1
  O  O153  1  0.39071950  0.75133262  0.54452751  1
  O  O154  1  0.84795548  0.29179470  0.01066119  1
  O  O155  1  0.88693339  0.21500533  0.51488082  1
  O  O156  1  0.85010873  0.75023963  -0.02070072  1
  O  O157  1  0.86450768  0.77944300  0.55811467  1
  O  O158  1  0.09292784  0.22572856  0.46015728  1
  O  O159  1  0.16507040  0.27326850  1.03880398  1
  O  O160  1  0.05238329  0.75255827  0.46322291  1
  O  O161  1  0.10708253  0.74196101  1.01915738  1
  O  O162  1  0.60187036  0.22859127  0.52569519  1
  O  O163  1  0.58422173  0.25979034  0.97678067  1
  O  O164  1  0.65047084  0.70784697  0.33544685  1
  O  O165  1  0.64077102  0.74733426  0.91787864  1
  O  O166  1  0.49955378  0.21520820  0.11013250  1
  O  O167  1  0.49239316  0.32756003  0.62927185  1
  O  O168  1  0.49697733  0.73115575  0.13946005  1
  O  O169  1  0.59489143  0.64356406  0.64904775  1
  O  O170  1  0.98793147  0.20963273  0.15681714  1
  O  O171  1  0.99716436  0.26352775  0.60952353  1
  O  O172  1  1.02708337  0.75007442  0.15638896  1
  O  O173  1  0.95225329  0.67634386  0.60838926  1
  O  O174  1  -0.03005949  0.24792727  0.34345993  1
  O  O175  1  0.03473108  0.25354465  0.84527885  1
  O  O176  1  -0.05127317  0.77895561  0.34157143  1
  O  O177  1  0.03541429  0.77536214  0.88402241  1
  O  O178  1  0.47740953  0.27295604  0.40337152  1
  O  O179  1  0.45215591  0.29904548  0.87337378  1
  O  O180  1  0.55063589  0.85993283  0.41593581  1
  O  O181  1  0.48938257  0.75301585  0.86385706  1
  O  O182  1  0.29800559  0.03054094  0.51490735  1
  O  O183  1  0.27683027  0.14270770  1.08275118  1
  O  O184  1  0.26954533  0.64696735  0.55659826  1
  O  O185  1  0.22888636  0.64066340  0.99839377  1
  O  O186  1  0.71249468  0.14383375  0.51921491  1
  O  O187  1  0.79351880  0.10873757  0.99580258  1
  O  O188  1  0.74593231  0.65783748  0.42821179  1
  O  O189  1  0.71053736  0.51057876  0.99661568  1
  O  O190  1  0.27584739  0.37847526  0.08042104  1
  O  O191  1  0.25566247  0.37909314  0.49459534  1
  O  O192  1  0.23023496  0.86610710  0.01433299  1
  O  O193  1  0.20458697  0.80540416  0.48837860  1
  O  O194  1  0.62593814  0.37324711  0.08940063  1
  O  O195  1  0.82326219  0.37546091  0.49985800  1
  O  O196  1  0.78028120  0.87423132  -0.05374473  1
  O  O197  1  0.75983177  0.88735987  0.55967500  1
  O  O198  1  0.13110029  0.54151340  0.28685146  1
  O  O199  1  0.13721180  0.50669036  0.74779384  1
  O  O200  1  0.10979793  0.99258069  0.26079039  1
  O  O201  1  0.22135130  1.01233506  0.82982383  1
  O  O202  1  0.59577547  0.46860600  0.17072056  1
  O  O203  1  0.72752912  0.56894778  0.74578613  1
  O  O204  1  0.62286703  1.04628360  0.18170019  1
  O  O205  1  0.59107127  0.99992982  0.74571616  1
  O  O206  1  0.35887162  -0.02789742  0.27601291  1
  O  O207  1  0.36303749  0.02178743  0.75234649  1
  O  O208  1  0.34457298  0.57192832  0.29529480  1
  O  O209  1  0.34816429  0.56249401  0.68510554  1
  O  O210  1  0.84398723  -0.01508482  0.27865066  1
  O  O211  1  0.85102527  0.04315335  0.74813703  1
  O  O212  1  0.85620675  0.50947182  0.24960767  1
  O  O213  1  0.77476885  0.45075129  0.64746708  1
  O  O214  1  0.10763413  0.34958052  0.32591881  1
  O  O215  1  0.19250654  0.40024602  0.93813067  1
  O  O216  1  0.10155787  0.84370964  0.33764121  1
  O  O217  1  0.14833241  0.85819737  0.85610915  1
  O  O218  1  0.55689103  0.40480723  0.33032771  1
  O  O219  1  0.56677975  0.37812196  0.79666847  1
  O  O220  1  0.68719478  0.94265788  0.37471588  1
  O  O221  1  0.61312394  0.89411958  0.85672829  1
  O  O222  1  0.39477102  0.06888644  0.16497328  1
  O  O223  1  0.43012259  0.03958838  0.58274149  1
  O  O224  1  0.37101631  0.68341873  0.20252708  1
  O  O225  1  0.45578818  0.60797467  0.57506546  1
  O  O226  1  0.80759275  0.09129804  0.17218770  1
  O  O227  1  0.92083228  0.10780597  0.61731306  1
  O  O228  1  0.84158188  0.57244776  0.12071346  1
  O  O229  1  0.79443887  0.62740023  0.59835705  1
  O  O230  1  0.27305182  0.19548849  0.12793172  1
  O  O231  1  0.26237762  0.29324941  0.62904354  1
  O  O232  1  0.27953009  0.78234545  0.13370138  1
  O  O233  1  0.25866695  0.77864849  0.63627052  1
  O  O234  1  0.78377940  0.37278017  0.32642499  1
  O  O235  1  0.81499238  0.22816572  0.65192522  1
  O  O236  1  0.65270383  0.86561506  0.16307240  1
  O  O237  1  0.75555235  0.77678832  0.66556984  1
  O  O238  1  0.22690401  0.25595708  0.37267792  1
  O  O239  1  0.19153093  0.33568315  0.89798763  1
  O  O240  1  0.26723891  0.77658737  0.44996034  1
  O  O241  1  0.23334428  0.74203311  0.87809229  1
  O  O242  1  0.75024707  0.23555326  0.39791544  1
  O  O243  1  0.79183472  0.19598888  0.85692583  1
  O  O244  1  0.76321879  0.79533440  0.26036429  1
  O  O245  1  0.86775920  0.58807984  0.85115643  1
  O  O246  1  0.02988478  0.16391824  0.00074791  1
  O  O247  1  -0.01318728  0.07932596  0.46328771  1
  O  O248  1  0.01396625  0.60509235  0.03267776  1
  O  O249  1  -0.03131700  0.57317753  0.43189263  1
  O  O250  1  0.46258665  0.14725837  -0.02738020  1
  O  O251  1  0.49980774  0.12154842  0.47161070  1
  O  O252  1  0.51393735  0.64677935  0.01358929  1
  O  O253  1  0.54225527  0.65878068  0.43495177  1
  O  O254  1  0.50956359  0.39952237  0.47893205  1
  O  O255  1  0.53484306  0.41516304  0.95110594  1
  O  O256  1  0.40579655  0.89847647  0.49497876  1
  O  O257  1  0.43166850  0.88855786  0.95987365  1
  O  O258  1  1.00923303  0.36498846  0.44232474  1
  O  O259  1  1.02256208  0.40651742  1.00023665  1
  O  O260  1  0.95577788  0.87155433  0.49675126  1
  O  O261  1  0.94318693  0.83361992  1.06085946  1
  O  O262  1  0.46424393  0.51245965  0.35631032  1
  O  O263  1  0.59982887  0.56141259  0.85455725  1
  O  O264  1  0.54153121  0.98333109  0.32206545  1
  O  O265  1  0.49960410  0.86713262  0.97430860  1
  O  O266  1  1.13188867  0.52537713  0.47919347  1
  O  O267  1  1.02782095  0.51757822  0.92123175  1
  O  O268  1  0.98311050  0.96746431  0.36340723  1
  O  O269  1  1.06229512  0.95000913  0.94089349  1
  O  O270  1  -0.04468207  0.06186221  0.09577612  1
  O  O271  1  0.01334669  -0.02668435  0.61752193  1
  O  O272  1  -0.02122800  0.47824197  0.11445838  1
  O  O273  1  0.01540064  0.51853610  0.62419764  1
  O  O274  1  0.50374761  0.00939236  0.08188208  1
  O  O275  1  0.45639164  -0.01853862  0.61127922  1
  O  O276  1  0.48963399  0.56780825  0.14695383  1
  O  O277  1  0.51610646  0.49537120  0.67035519  1
  O  O278  1  0.25091379  0.30999127  0.22250249  1
  O  O279  1  0.28024246  0.45138498  0.76771956  1
  O  O280  1  0.20253267  0.85135832  0.23076104  1
  O  O281  1  0.31257995  0.88359757  0.80821651  1
  O  O282  1  0.72785083  0.37737711  0.28469180  1
  O  O283  1  0.83124837  0.35512029  0.77909621  1
  O  O284  1  0.68647383  0.91529267  0.30995266  1
  O  O285  1  0.72834100  0.92354132  0.75425081  1
  O  O286  1  0.26490056  0.09445267  0.24717176  1
  O  O287  1  0.28957796  0.13370130  0.69383671  1
  O  O288  1  0.23729918  0.66175960  0.29618132  1
  O  O289  1  0.24863315  0.62195217  0.75879082  1
  O  O290  1  0.73413002  0.10881915  0.29736981  1
  O  O291  1  0.69882852  0.11433975  0.72521156  1
  O  O292  1  0.74948007  0.58571769  0.23700764  1
  O  O293  1  0.71997551  0.63530472  0.76614490  1
  O  O294  1  0.34787262  0.09676414  0.37676057  1
  O  O295  1  0.35578025  0.15643826  0.83532972  1
  O  O296  1  0.38869256  0.68086062  0.38690553  1
  O  O297  1  0.35466193  0.64295101  0.86794730  1
  O  O298  1  0.84737647  0.11910481  0.37482764  1
  O  O299  1  0.90789312  0.09810016  0.89130191  1
  O  O300  1  0.85175728  0.65828828  0.30364150  1
  O  O301  1  0.75406461  0.44423329  0.82583305  1
  O  O302  1  0.18394662  0.29388828  0.20627758  1
  O  O303  1  0.13303203  0.37476887  0.59137976  1
  O  O304  1  0.12365610  0.89177262  0.12495501  1
  O  O305  1  0.07621734  0.94808685  0.60010217  1
  O  O306  1  0.62748556  0.40238279  0.16372091  1
  O  O307  1  0.65994290  0.34258228  0.65857336  1
  O  O308  1  0.59409251  0.88371230  0.12751842  1
  O  O309  1  0.63108244  0.88453791  0.65060421  1
  O  O310  1  0.10644661  0.14635824  0.31395066  1
  O  O311  1  0.11463396  0.22071493  0.71367077  1
  O  O312  1  0.07070527  0.75921574  0.21430334  1
  O  O313  1  0.12268156  0.74633881  0.75371878  1
  O  O314  1  0.64838421  0.21988513  0.18996289  1
  O  O315  1  0.66633572  0.28084836  0.69652299  1
  O  O316  1  0.65223567  0.70290115  0.12920229  1
  O  O317  1  0.61311041  0.78597920  0.76310280  1
  O  O318  1  0.44891040  0.13126880  0.29208369  1
  O  O319  1  0.39182973  0.24254302  0.71032593  1
  O  O320  1  0.33142783  0.79139426  0.30238664  1
  O  O321  1  0.36503883  0.73542122  0.74160809  1
  O  O322  1  0.84266698  0.23632139  0.23032439  1
  O  O323  1  0.93983837  0.22060483  0.73155363  1
  O  O324  1  0.83735589  0.69367020  0.16759941  1
  O  O325  1  0.85860502  0.68883140  0.72633577  1
  O  O326  1  0.35156011  0.53174404  0.46490313  1
  O  O327  1  0.37011202  0.51663289  1.07868412  1
  O  O328  1  0.42585589  0.95032270  0.45244361  1
  O  O329  1  0.29250000  1.03025886  0.98237426  1
  O  O330  1  0.94374034  0.51777583  0.46816322  1
  O  O331  1  0.90770047  0.50193382  0.99935200  1
  O  O332  1  0.87287577  0.97431150  0.49382759  1
  O  O333  1  0.85568949  0.94188627  1.04146586  1
  O  O334  1  0.19497588  0.18029788  -0.12829347  1
  O  O335  1  0.07996444  -0.04363994  0.48156683  1
  O  O336  1  0.10464030  0.51494299  0.05172634  1
  O  O337  1  0.12933076  0.59416418  0.47217905  1
  O  O338  1  0.65362848  -0.03785867  0.00880372  1
  O  O339  1  0.60185747  0.02685896  0.53097525  1
  O  O340  1  0.64894270  0.59378253  -0.10626678  1
  O  O341  1  0.65360460  0.57172443  0.48298805  1
  O  O342  1  0.44215519  0.37349270  0.08809553  1
  O  O343  1  0.35611065  0.39960608  0.62617940  1
  O  O344  1  0.41630780  0.85298608  0.13146388  1
  O  O345  1  0.24692251  0.96517984  0.66163221  1
  O  O346  1  0.84535000  0.38342785  0.14919352  1
  O  O347  1  0.86353078  0.38342738  0.55619680  1
  O  O348  1  0.79404361  0.82091157  0.08222658  1
  O  O349  1  0.86512298  0.89256073  0.68343352  1
  O  O350  1  0.19413948  0.10895967  0.43788866  1
  O  O351  1  0.16285553  0.14310593  0.92217688  1
  O  O352  1  0.05719663  0.66869910  0.33591237  1
  O  O353  1  0.13381604  0.64238990  0.87574782  1
  O  O354  1  0.63734263  0.11413518  0.39930055  1
  O  O355  1  0.59158359  0.14118398  0.87221365  1
  O  O356  1  0.62574877  0.57513008  0.35132415  1
  O  O357  1  0.81327766  0.59107256  0.89645702  1
