# generated using pymatgen
data_V51Zn51O256
_symmetry_space_group_name_H-M   'P 1'
_cell_length_a   17.70835152
_cell_length_b   17.89585439
_cell_length_c   17.46447382
_cell_angle_alpha   92.01701748
_cell_angle_beta   90.33346658
_cell_angle_gamma   89.43085073
_symmetry_Int_Tables_number   1
_chemical_formula_structural   V51Zn51O256
_chemical_formula_sum   'V51 Zn51 O256'
_cell_volume   5530.81304236
_cell_formula_units_Z   1
loop_
 _symmetry_equiv_pos_site_id
 _symmetry_equiv_pos_as_xyz
  1  'x, y, z'
loop_
 _atom_site_type_symbol
 _atom_site_label
 _atom_site_symmetry_multiplicity
 _atom_site_fract_x
 _atom_site_fract_y
 _atom_site_fract_z
 _atom_site_occupancy
  V  V0  1  0.50727186  0.77275457  0.76869506  1
  V  V1  1  0.23916320  0.77963660  0.53170452  1
  V  V2  1  0.51761599  0.61994975  0.08283681  1
  V  V3  1  0.90847394  0.51420001  0.37342911  1
  V  V4  1  0.71530472  0.27684146  -0.01538123  1
  V  V5  1  0.14924486  0.89574085  0.28544488  1
  V  V6  1  -0.00983314  0.92229682  0.90094396  1
  V  V7  1  0.79418301  0.26979741  0.52034553  1
  V  V8  1  0.01792719  -0.00709664  0.50372615  1
  V  V9  1  0.22317880  0.74865438  0.00047724  1
  V  V10  1  0.01653890  0.16219013  0.62801130  1
  V  V11  1  0.08322755  0.87659694  0.74649689  1
  V  V12  1  0.22703318  0.63241470  0.43139008  1
  V  V13  1  0.06265845  0.02324395  0.11843900  1
  V  V14  1  0.36708218  0.50488739  0.40703212  1
  V  V15  1  0.34854681  0.91318081  0.00109648  1
  V  V16  1  0.85063566  0.16740888  0.73124348  1
  V  V17  1  0.26617224  0.08971406  0.38616869  1
  V  V18  1  0.49295714  0.26140251  0.78486310  1
  V  V19  1  0.27171982  0.24461835  0.49428311  1
  V  V20  1  0.40100698  0.06237840  0.27265979  1
  V  V21  1  0.17908767  0.22153659  0.32506214  1
  V  V22  1  0.75599712  0.01851239  0.76584098  1
  V  V23  1  0.94238365  0.25728071  0.18977264  1
  V  V24  1  0.10037832  0.72152116  0.87337915  1
  V  V25  1  0.02099696  0.65493447  0.12037049  1
  V  V26  1  0.32349050  0.39908368  -0.01461303  1
  V  V27  1  0.15017351  0.39992589  0.24513347  1
  V  V28  1  0.11834511  0.15866633  -0.02807582  1
  V  V29  1  0.88016502  0.49625737  0.86161325  1
  V  V30  1  0.10101226  0.45518684  0.60958313  1
  V  V31  1  0.91785139  0.35542717  0.03695317  1
  V  V32  1  0.39405774  -0.04465028  0.41111447  1
  V  V33  1  0.14096555  0.28016642  0.82624821  1
  V  V34  1  0.87672535  0.07443533  0.90125379  1
  V  V35  1  0.22784804  0.94332250  0.11459985  1
  V  V36  1  0.36040922  0.74087263  0.64572063  1
  V  V37  1  0.54587922  0.47355448  -0.02663914  1
  V  V38  1  0.40748539  0.24206260  0.60516852  1
  V  V39  1  0.29787379  0.69099545  0.21719826  1
  V  V40  1  0.00668961  0.38668222  0.80964839  1
  V  V41  1  0.63644076  -0.00824670  0.64701121  1
  V  V42  1  0.39921308  0.11727271  0.75475155  1
  V  V43  1  0.89008588  0.62784038  0.73143047  1
  V  V44  1  0.28489305  0.47408828  0.74622650  1
  V  V45  1  0.10987739  0.49190857  0.08836770  1
  V  V46  1  0.51512441  0.09766665  0.60903111  1
  V  V47  1  0.36932161  0.26575640  0.09239344  1
  V  V48  1  0.87996061  0.83844842  0.01127118  1
  V  V49  1  0.03425170  0.29795351  0.33827404  1
  V  V50  1  0.24018239  0.62788508  0.83986736  1
  Zn  Zn51  1  0.93235508  0.66939172  0.96159226  1
  Zn  Zn52  1  0.73667507  0.42072013  0.42642117  1
  Zn  Zn53  1  0.16628203  0.45543743  0.90063345  1
  Zn  Zn54  1  0.06663868  0.07437605  0.33975651  1
  Zn  Zn55  1  0.15719939  0.71907584  0.68477834  1
  Zn  Zn56  1  0.14210509  0.75198743  0.18084975  1
  Zn  Zn57  1  0.82568086  0.14267298  0.07575336  1
  Zn  Zn58  1  0.92583511  0.13058639  0.45487099  1
  Zn  Zn59  1  0.27841841  0.57416666  0.06398031  1
  Zn  Zn60  1  0.07240428  0.84036965  0.04962510  1
  Zn  Zn61  1  0.86554349  0.55316565  0.03971396  1
  Zn  Zn62  1  0.08734250  0.31304344  0.53467378  1
  Zn  Zn63  1  0.60811637  0.23313618  0.55448195  1
  Zn  Zn64  1  0.22820488  0.31139756  0.66621385  1
  Zn  Zn65  1  0.36975835  0.88241358  0.21395332  1
  Zn  Zn66  1  0.67674417  0.61178532  0.02900461  1
  Zn  Zn67  1  0.77947377  0.92435174  0.90842193  1
  Zn  Zn68  1  0.28888069  0.80039738  0.35483670  1
  Zn  Zn69  1  0.64790800  0.15210483  0.74748634  1
  Zn  Zn70  1  0.83702358  0.04844129  0.61678453  1
  Zn  Zn71  1  0.55120244  0.95988048  0.49111348  1
  Zn  Zn72  1  0.18050682  0.98851806  0.93639556  1
  Zn  Zn73  1  0.29366253  0.09372705  0.02071718  1
  Zn  Zn74  1  0.51325408  0.28475016  -0.02281845  1
  Zn  Zn75  1  0.38923578  0.70719619  0.94784631  1
  Zn  Zn76  1  0.97219833  0.43093109  0.20118594  1
  Zn  Zn77  1  0.66289717  0.85620801  0.77916502  1
  Zn  Zn78  1  0.09806099  0.59184336  0.29567490  1
  Zn  Zn79  1  0.05154493  0.82534109  0.54683636  1
  Zn  Zn80  1  0.83024605  0.31386250  0.85372255  1
  Zn  Zn81  1  0.92666594  0.66941331  0.27425405  1
  Zn  Zn82  1  0.43113424  0.56384552  0.25653180  1
  Zn  Zn83  1  0.74301157  0.44994106  0.99634710  1
  Zn  Zn84  1  0.46004694  0.14444112  0.42378839  1
  Zn  Zn85  1  0.25277915  0.82086345  0.82499471  1
  Zn  Zn86  1  0.43732307  0.43631005  0.82732071  1
  Zn  Zn87  1  0.94558888  0.34515692  0.61651815  1
  Zn  Zn88  1  0.35359348  0.08352781  0.53969233  1
  Zn  Zn89  1  0.31001903  0.56250829  0.58170326  1
  Zn  Zn90  1  0.05760232  0.55792857  0.78490974  1
  Zn  Zn91  1  0.91347186  0.78454598  0.84808917  1
  Zn  Zn92  1  0.33053563  0.24639787  0.88647378  1
  Zn  Zn93  1  0.26845494  0.13896207  0.18233813  1
  Zn  Zn94  1  0.55090205  0.60476682  0.87415421  1
  Zn  Zn95  1  0.97172108  1.03507601  0.74438778  1
  Zn  Zn96  1  0.18878153  0.93401152  0.45965199  1
  Zn  Zn97  1  0.45721215  0.94951807  0.72585287  1
  Zn  Zn98  1  0.41985112  0.46544357  0.10480239  1
  Zn  Zn99  1  0.09469856  0.30099314  0.08810269  1
  Zn  Zn100  1  0.96307320  0.22947081  0.90659826  1
  Zn  Zn101  1  0.35563871  0.38384650  0.25070566  1
  O  O102  1  0.12773445  0.07280201  0.19482503  1
  O  O103  1  0.10174311  0.13234947  0.64300609  1
  O  O104  1  0.09111281  0.60715761  0.07727534  1
  O  O105  1  0.06483105  0.66353547  0.63873063  1
  O  O106  1  0.74731580  0.06419227  0.11229708  1
  O  O107  1  0.61233419  0.10418178  0.64366541  1
  O  O108  1  0.60549189  0.66165221  0.09938098  1
  O  O109  1  0.56202551  0.54971065  0.49064597  1
  O  O110  1  0.36180280  0.41852156  0.36210247  1
  O  O111  1  0.36090880  0.39567927  0.89415925  1
  O  O112  1  0.36123427  0.86641922  0.40299306  1
  O  O113  1  0.30941811  0.90501070  0.88734592  1
  O  O114  1  0.95103737  0.42522747  0.38016438  1
  O  O115  1  0.90531408  0.39170947  0.84611688  1
  O  O116  1  0.81144429  0.77924903  0.34233525  1
  O  O117  1  0.88749897  0.88882188  0.88957790  1
  O  O118  1  0.24798842  -0.00252592  0.39310370  1
  O  O119  1  0.27477526  -0.03063834  0.86733527  1
  O  O120  1  0.27932536  0.55935551  0.38681676  1
  O  O121  1  0.22926936  0.52074722  0.83224838  1
  O  O122  1  0.70769428  -0.02566750  0.38431162  1
  O  O123  1  0.78768123  0.03462783  0.87720157  1
  O  O124  1  0.81665199  0.48695742  0.39332119  1
  O  O125  1  0.79441485  0.47036882  0.89459388  1
  O  O126  1  0.19811693  0.52214828  0.11612654  1
  O  O127  1  0.25929521  0.50745244  0.65951535  1
  O  O128  1  0.24272327  1.03693006  0.11934803  1
  O  O129  1  0.21332868  1.03293013  0.72120449  1
  O  O130  1  0.75904458  0.54737728  0.04844562  1
  O  O131  1  0.69154410  0.55024275  0.66765368  1
  O  O132  1  0.77228190  1.01052691  0.15884267  1
  O  O133  1  0.74143814  1.00901946  0.65646682  1
  O  O134  1  0.04076061  0.37141014  0.26345476  1
  O  O135  1  -0.00968477  0.37931265  0.71562752  1
  O  O136  1  -0.16271787  0.93742004  0.29406811  1
  O  O137  1  0.00739596  0.85697747  0.82136248  1
  O  O138  1  0.56887149  0.32222842  0.28317028  1
  O  O139  1  0.49182709  0.35521693  0.77288216  1
  O  O140  1  0.48887219  0.87586307  0.18911140  1
  O  O141  1  0.49020441  0.86751328  0.78211311  1
  O  O142  1  0.47360317  0.11774771  0.31401456  1
  O  O143  1  0.48830988  0.12569890  0.78551319  1
  O  O144  1  0.48137793  0.61785418  0.17423532  1
  O  O145  1  0.48748157  0.67416320  0.81704232  1
  O  O146  1  1.05180260  0.08422210  0.21547214  1
  O  O147  1  0.96330238  0.14187414  0.71683160  1
  O  O148  1  1.02123246  0.64339756  0.22440343  1
  O  O149  1  0.98090671  0.63191535  0.76612563  1
  O  O150  1  0.32892192  0.28649631  -0.01035454  1
  O  O151  1  0.39379770  0.19415870  0.50641844  1
  O  O152  1  0.31356646  0.78574679  -0.02068630  1
  O  O153  1  0.36022521  0.76658967  0.55381093  1
  O  O154  1  0.88655651  0.29115925  -0.03493505  1
  O  O155  1  0.84761634  0.19850561  0.47775666  1
  O  O156  1  0.86594712  0.75529252  -0.05014497  1
  O  O157  1  0.79609797  0.70188873  0.54621603  1
  O  O158  1  0.17528810  0.25251546  0.50108134  1
  O  O159  1  0.15267372  0.22816629  1.03085614  1
  O  O160  1  0.14437255  0.76982246  0.51680206  1
  O  O161  1  0.12557755  0.78127590  0.96319821  1
  O  O162  1  0.55652239  0.21062598  0.43963136  1
  O  O163  1  0.61851717  0.27108842  0.99423589  1
  O  O164  1  0.59749326  0.70322599  0.54107082  1
  O  O165  1  0.69665606  0.67254602  0.92440957  1
  O  O166  1  0.45909106  0.24340597  0.06571362  1
  O  O167  1  0.51611616  0.20243054  0.60229458  1
  O  O168  1  0.45493931  0.66798822  0.02480373  1
  O  O169  1  0.46296402  0.74854237  0.68093830  1
  O  O170  1  1.03000494  0.24017049  0.15622481  1
  O  O171  1  1.01583761  0.25584006  0.59914204  1
  O  O172  1  1.04741259  0.74822697  0.10952235  1
  O  O173  1  0.99154450  0.72669273  0.55567201  1
  O  O174  1  0.07028374  0.20323832  0.33159885  1
  O  O175  1  0.02031732  0.29124168  0.84163152  1
  O  O176  1  -0.12930291  0.91009455  0.23859987  1
  O  O177  1  0.00453069  0.72046075  0.89771587  1
  O  O178  1  0.54051200  0.28672570  0.43090082  1
  O  O179  1  0.46239339  0.25363094  0.87993603  1
  O  O180  1  0.50928412  0.79829544  0.47095387  1
  O  O181  1  0.47257583  0.74077311  0.86734880  1
  O  O182  1  0.26482199  0.12190268  0.48451407  1
  O  O183  1  0.20233557  0.09262345  0.95710381  1
  O  O184  1  0.22752724  0.61988381  0.52761273  1
  O  O185  1  0.22878887  0.65358810  1.00000519  1
  O  O186  1  0.74790398  0.02974289  0.38157052  1
  O  O187  1  0.75384777  0.19425834  1.01655434  1
  O  O188  1  0.62425481  0.66149918  0.58819463  1
  O  O189  1  0.70793867  0.80776525  1.13875164  1
  O  O190  1  0.22864082  0.40561548  -0.02342463  1
  O  O191  1  0.30479413  0.32622598  0.47694596  1
  O  O192  1  0.22843430  0.92057010  0.01203270  1
  O  O193  1  0.24833410  0.87332184  0.52828537  1
  O  O194  1  0.75731314  0.35176070  0.03731299  1
  O  O195  1  0.76362690  0.32409964  0.44456751  1
  O  O196  1  0.80011790  0.89610366  0.01400928  1
  O  O197  1  0.87659541  0.79632298  0.36818834  1
  O  O198  1  0.13636723  0.49075051  0.27218856  1
  O  O199  1  0.09440108  0.50587330  0.69672512  1
  O  O200  1  0.09399038  0.96904154  0.31343679  1
  O  O201  1  0.05422291  0.96741345  0.73626492  1
  O  O202  1  0.69304633  0.49170432  0.27445312  1
  O  O203  1  0.62303845  0.54616068  0.67478798  1
  O  O204  1  0.72188115  0.96927866  0.18593828  1
  O  O205  1  0.65867118  1.03960457  0.77071716  1
  O  O206  1  0.38902296  -0.03751094  0.29251968  1
  O  O207  1  0.38221453  0.02178977  0.75385273  1
  O  O208  1  0.41442074  0.46529414  0.21214287  1
  O  O209  1  0.37734898  0.49698665  0.75927918  1
  O  O210  1  0.82343378  0.14448170  0.32037285  1
  O  O211  1  0.85926070  0.04112493  0.73705880  1
  O  O212  1  0.89898532  0.48175975  0.27100272  1
  O  O213  1  0.85778174  0.53731309  0.77477321  1
  O  O214  1  0.14416440  0.32046026  0.33107666  1
  O  O215  1  0.11402434  0.38674083  0.82873948  1
  O  O216  1  0.19104875  0.85893890  0.36835132  1
  O  O217  1  0.08173963  0.94992816  0.91552649  1
  O  O218  1  0.68630865  0.43148389  0.30787902  1
  O  O219  1  0.63939808  0.40860148  0.77385841  1
  O  O220  1  0.54814086  0.78209667  0.41197363  1
  O  O221  1  0.67308904  0.88194405  0.89181389  1
  O  O222  1  0.41582164  0.06146405  0.17958250  1
  O  O223  1  0.41246186  0.10951017  0.63722764  1
  O  O224  1  0.31909320  0.65921773  0.12658340  1
  O  O225  1  0.35632987  0.64600594  0.64283148  1
  O  O226  1  0.88166825  0.18959769  0.15812898  1
  O  O227  1  0.83850534  0.15716126  0.63331743  1
  O  O228  1  0.76659706  0.65058075  0.22314520  1
  O  O229  1  0.88808772  0.61784980  0.63871130  1
  O  O230  1  0.31402756  0.17663556  0.09140318  1
  O  O231  1  0.29960473  0.24510672  0.60484967  1
  O  O232  1  0.20388778  0.78304952  0.09277764  1
  O  O233  1  0.24468183  0.75497760  0.63276369  1
  O  O234  1  0.67683896  0.24546052  0.20535648  1
  O  O235  1  0.71120465  0.23799088  0.56437261  1
  O  O236  1  0.64607898  0.83833460  0.14558236  1
  O  O237  1  0.76349768  0.73087885  0.60536296  1
  O  O238  1  0.26483951  0.21910583  0.37872031  1
  O  O239  1  0.22933849  0.29209541  0.86087756  1
  O  O240  1  0.26709202  0.72793149  0.43409358  1
  O  O241  1  0.21577910  0.73193934  0.87510510  1
  O  O242  1  0.65338622  0.09768712  0.28756607  1
  O  O243  1  0.73384912  0.28755585  0.88684012  1
  O  O244  1  0.93808067  0.76600487  0.33100539  1
  O  O245  1  0.71423133  0.62536991  0.86631027  1
  O  O246  1  0.02042368  0.16944565  -0.02705375  1
  O  O247  1  -0.01547331  0.10591206  0.54845458  1
  O  O248  1  -0.06556434  0.63611701  0.07107024  1
  O  O249  1  0.04010794  0.67080293  0.56774109  1
  O  O250  1  0.55280082  0.14009839  0.16097203  1
  O  O251  1  0.51636408  0.07443451  0.51279827  1
  O  O252  1  0.57885786  0.58398731  -0.02220785  1
  O  O253  1  0.59794905  0.49273631  0.46825522  1
  O  O254  1  0.57325363  0.32734119  0.48515711  1
  O  O255  1  0.49349759  0.39352544  0.98544435  1
  O  O256  1  0.53888679  0.84635444  0.52419110  1
  O  O257  1  0.43284680  0.87758874  0.98779979  1
  O  O258  1  1.02581882  0.31223053  0.43303170  1
  O  O259  1  1.01248062  0.34857914  1.02714547  1
  O  O260  1  1.01033548  0.89809465  0.47918315  1
  O  O261  1  0.98098141  0.87849921  0.99545758  1
  O  O262  1  0.44246515  0.55026077  0.36798335  1
  O  O263  1  0.51076718  0.50044548  0.87925566  1
  O  O264  1  0.49159815  0.94788217  0.40458829  1
  O  O265  1  0.63029682  0.84186638  0.95396136  1
  O  O266  1  0.99933302  0.55405739  0.35159424  1
  O  O267  1  0.99911795  0.48492158  0.84351721  1
  O  O268  1  0.99376887  1.04566774  0.41797190  1
  O  O269  1  0.95601306  1.01563684  0.87041939  1
  O  O270  1  -0.02708553  0.00181889  0.11355050  1
  O  O271  1  -0.02839678  -0.02314452  0.60344862  1
  O  O272  1  0.02173607  0.50022938  0.13915383  1
  O  O273  1  0.01879372  0.40948130  0.56732167  1
  O  O274  1  0.55847832  -0.03532636  0.13799019  1
  O  O275  1  0.52146392  0.00160915  0.65141532  1
  O  O276  1  0.51297875  0.51325964  0.07019118  1
  O  O277  1  0.62618742  0.43488795  0.62981467  1
  O  O278  1  0.24366972  0.38468880  0.24523966  1
  O  O279  1  0.27894426  0.37904843  0.73981068  1
  O  O280  1  0.22158382  0.91754333  0.21599959  1
  O  O281  1  0.17411113  0.88237253  0.78106314  1
  O  O282  1  0.70238400  0.25822660  0.27471562  1
  O  O283  1  0.70673747  0.41376557  0.76190149  1
  O  O284  1  0.66601905  0.84107746  0.30771064  1
  O  O285  1  0.75580851  0.92271281  0.78590515  1
  O  O286  1  0.30416713  0.10248323  0.27991732  1
  O  O287  1  0.18406257  0.06880286  0.77377815  1
  O  O288  1  0.19967108  0.67856704  0.23538866  1
  O  O289  1  0.23302355  0.65011095  0.74779458  1
  O  O290  1  0.79080311  0.11667115  0.26120310  1
  O  O291  1  0.75859639  0.13967469  0.76359393  1
  O  O292  1  0.70591875  0.65874984  0.42530293  1
  O  O293  1  0.80803285  0.69047857  0.76906955  1
  O  O294  1  0.37450292  0.06615889  0.39500655  1
  O  O295  1  0.33765370  0.15828374  0.82095380  1
  O  O296  1  0.34708583  0.63738434  0.27727424  1
  O  O297  1  0.33020092  0.63906966  0.87401373  1
  O  O298  1  0.88526624  0.10584236  0.34316747  1
  O  O299  1  0.88855002  0.15766574  0.85495600  1
  O  O300  1  0.87185110  0.60412442  0.34140882  1
  O  O301  1  0.90076408  0.57063378  0.92799358  1
  O  O302  1  0.12925121  0.39369530  0.13996803  1
  O  O303  1  0.16026355  0.37205458  0.60615395  1
  O  O304  1  0.11650537  0.93151044  0.10614138  1
  O  O305  1  0.07987635  0.83325508  0.65652979  1
  O  O306  1  0.58480696  0.32455093  0.21524151  1
  O  O307  1  0.69531453  0.43642096  0.62711474  1
  O  O308  1  0.50578689  0.91799762  0.12873774  1
  O  O309  1  0.63020331  0.90793025  0.68807040  1
  O  O310  1  0.20106199  0.21441218  0.23179179  1
  O  O311  1  0.15302233  0.26045126  0.73199152  1
  O  O312  1  0.09384766  0.82806391  0.24446762  1
  O  O313  1  0.10056644  0.75294830  0.78078444  1
  O  O314  1  0.65501200  0.24957896  0.33053247  1
  O  O315  1  0.58658168  0.23754428  0.76717322  1
  O  O316  1  0.66694836  0.77276478  0.29971749  1
  O  O317  1  0.60393195  0.76612508  0.76291826  1
  O  O318  1  0.36941703  0.28597122  0.19087068  1
  O  O319  1  0.41668880  0.23298683  0.71462571  1
  O  O320  1  0.32268010  0.78855350  0.24678405  1
  O  O321  1  0.33803042  0.79412850  0.75451852  1
  O  O322  1  0.94181066  0.26891847  0.29186696  1
  O  O323  1  0.85362007  0.26062199  0.75210145  1
  O  O324  1  0.83042380  0.66375595  0.19632170  1
  O  O325  1  0.86993250  0.73776583  0.75199770  1
  O  O326  1  0.37108773  0.50812621  0.50594509  1
  O  O327  1  0.34562505  0.49714412  1.02161947  1
  O  O328  1  0.37659722  0.98112044  0.50746135  1
  O  O329  1  0.35846915  1.00837498  0.99617307  1
  O  O330  1  0.92441547  0.54103067  0.46765914  1
  O  O331  1  0.89316282  0.44613360  1.02541012  1
  O  O332  1  0.90328847  0.98055256  0.55803155  1
  O  O333  1  0.88116157  1.08411106  0.99659686  1
  O  O334  1  0.08761008  0.07370554  0.04120756  1
  O  O335  1  0.11385051  -0.00161853  0.51283878  1
  O  O336  1  0.10056404  0.47832470  -0.00783360  1
  O  O337  1  0.12370266  0.51057903  0.54004104  1
  O  O338  1  0.60239537  -0.11526562  0.00355523  1
  O  O339  1  0.63955232  -0.02656316  0.54971831  1
  O  O340  1  0.63558882  0.44259759  -0.03329844  1
  O  O341  1  0.67908416  0.49794190  0.47855870  1
  O  O342  1  0.36002501  0.37256607  0.08425327  1
  O  O343  1  0.42993224  0.32739131  0.59238366  1
  O  O344  1  0.32723714  0.90465571  0.10980748  1
  O  O345  1  0.34904075  0.84608537  0.69816396  1
  O  O346  1  0.91134105  0.34498778  0.14580996  1
  O  O347  1  0.84648425  0.32644417  0.58263682  1
  O  O348  1  0.88936655  0.80711791  0.09759558  1
  O  O349  1  0.82975548  0.74424640  0.49953273  1
  O  O350  1  0.17024542  0.11721322  0.35358998  1
  O  O351  1  0.12425526  0.19161883  0.87494165  1
  O  O352  1  0.13940045  0.63254422  0.38996386  1
  O  O353  1  0.12543735  0.62430777  0.86449132  1
  O  O354  1  0.62074059  0.03788065  0.28362001  1
  O  O355  1  0.60754130  0.12006887  1.12325447  1
  O  O356  1  0.66180403  0.63281182  0.37698761  1
  O  O357  1  0.65792083  0.60160886  0.82140386  1
