# generated using pymatgen
data_V51Zn51O256
_symmetry_space_group_name_H-M   'P 1'
_cell_length_a   17.19628268
_cell_length_b   17.34493007
_cell_length_c   17.35743561
_cell_angle_alpha   89.51937108
_cell_angle_beta   87.83663588
_cell_angle_gamma   88.98193966
_symmetry_Int_Tables_number   1
_chemical_formula_structural   V51Zn51O256
_chemical_formula_sum   'V51 Zn51 O256'
_cell_volume   5172.51219174
_cell_formula_units_Z   1
loop_
 _symmetry_equiv_pos_site_id
 _symmetry_equiv_pos_as_xyz
  1  'x, y, z'
loop_
 _atom_site_type_symbol
 _atom_site_label
 _atom_site_symmetry_multiplicity
 _atom_site_fract_x
 _atom_site_fract_y
 _atom_site_fract_z
 _atom_site_occupancy
  V  V0  1  0.37749502  0.23583837  0.12473081  1
  V  V1  1  0.49712782  0.12593789  0.13058158  1
  V  V2  1  0.26615551  0.61826761  0.82863026  1
  V  V3  1  0.62676779  0.00274530  0.12107270  1
  V  V4  1  0.61557871  0.11536641  -0.02361480  1
  V  V5  1  0.25565680  0.35861173  0.11935909  1
  V  V6  1  0.13424837  0.66947195  0.01597131  1
  V  V7  1  0.63848019  0.77345200  0.41011165  1
  V  V8  1  0.26000891  0.19436998  -0.01146585  1
  V  V9  1  0.02236502  0.11816865  0.12359170  1
  V  V10  1  0.60218793  0.13743377  0.47574537  1
  V  V11  1  0.23542503  -0.00099074  0.27886456  1
  V  V12  1  0.26858780  0.68259245  0.47745018  1
  V  V13  1  0.13022729  -0.03380113  0.56255541  1
  V  V14  1  -0.00345247  0.24201834  0.23972470  1
  V  V15  1  0.10842525  0.19832170  0.47700096  1
  V  V16  1  0.67694871  0.48797200  0.22519429  1
  V  V17  1  -0.03845558  0.43529997  0.52574381  1
  V  V18  1  0.63253507  0.89755874  0.27005032  1
  V  V19  1  0.39327234  0.95961176  0.53832413  1
  V  V20  1  0.89907003  0.66657328  0.25253593  1
  V  V21  1  0.66082765  0.48742457  0.65765177  1
  V  V22  1  0.49844304  0.78214287  0.31944396  1
  V  V23  1  -0.02384102  0.00333612  -0.02610038  1
  V  V24  1  -0.05261961  0.41231066  0.27668059  1
  V  V25  1  0.78617805  0.00637480  0.73333371  1
  V  V26  1  0.37677575  0.03335720  0.37163510  1
  V  V27  1  0.15188255  0.34345892  0.78027938  1
  V  V28  1  0.86979631  0.85818366  0.51438552  1
  V  V29  1  -0.01566158  0.47721287  -0.00463499  1
  V  V30  1  0.48423500  0.24199844  0.75367091  1
  V  V31  1  0.89774923  0.63880525  0.76021563  1
  V  V32  1  0.66097767  0.89033438  0.75858322  1
  V  V33  1  0.49814907  0.69477700  0.65988598  1
  V  V34  1  0.13548907  -0.01465847  0.14396747  1
  V  V35  1  0.75564304  0.88294590  0.10488270  1
  V  V36  1  0.13656915  0.18143222  0.87290338  1
  V  V37  1  -0.00594501  0.15435504  0.61364602  1
  V  V38  1  0.65076765  0.61864516  0.53070077  1
  V  V39  1  0.89499164  -0.01241050  0.37363408  1
  V  V40  1  0.41220345  -0.05249276  0.85135145  1
  V  V41  1  0.15275113  0.48086177  0.06324697  1
  V  V42  1  0.20256569  0.46692047  0.25562058  1
  V  V43  1  0.76874107  0.72781024  0.00933499  1
  V  V44  1  0.81167106  0.21022043  0.13221115  1
  V  V45  1  0.24142276  0.16413515  0.36975420  1
  V  V46  1  0.73023682  0.28276657  0.52446635  1
  V  V47  1  0.48406522  -0.02451749  0.01292452  1
  V  V48  1  0.77495205  0.11994429  0.86283025  1
  V  V49  1  0.37422444  0.39887124  0.55063107  1
  V  V50  1  0.63359802  0.73760598  0.88062740  1
  Zn  Zn51  1  0.85539558  0.45810379  0.68052444  1
  Zn  Zn52  1  0.92322066  0.25402874  0.44080218  1
  Zn  Zn53  1  0.11129788  0.87010167  0.02893967  1
  Zn  Zn54  1  0.57548045  0.57132937  0.80348756  1
  Zn  Zn55  1  0.95092870  0.70031656  0.94267015  1
  Zn  Zn56  1  0.41613647  0.85161131  0.67937690  1
  Zn  Zn57  1  0.65729700  0.44727393  0.42229922  1
  Zn  Zn58  1  0.79282913  0.79825125  0.80959584  1
  Zn  Zn59  1  0.79095881  0.81204915  0.28764345  1
  Zn  Zn60  1  0.06015078  0.08577007  0.31854276  1
  Zn  Zn61  1  0.27389503  0.57668461  0.13524165  1
  Zn  Zn62  1  0.68163811  0.67589871  0.71188257  1
  Zn  Zn63  1  0.09970885  0.32111129  -0.01630272  1
  Zn  Zn64  1  0.71238299  0.26470478  0.96090815  1
  Zn  Zn65  1  0.56663860  0.32041088  0.57449005  1
  Zn  Zn66  1  0.20450946  1.01533531  0.94388208  1
  Zn  Zn67  1  0.13625724  0.63899148  0.63099790  1
  Zn  Zn68  1  0.80302354  0.53338424  0.53245088  1
  Zn  Zn69  1  0.26860916  0.10431360  0.56872425  1
  Zn  Zn70  1  0.43122909  0.15433322  0.93896601  1
  Zn  Zn71  1  0.43036875  0.75942754  0.84380891  1
  Zn  Zn72  1  0.32963305  0.58686281  0.62802986  1
  Zn  Zn73  1  0.69558801  0.19679379  0.70516001  1
  Zn  Zn74  1  0.45356408  0.95313462  0.21778870  1
  Zn  Zn75  1  0.03172354  0.55211538  0.19949923  1
  Zn  Zn76  1  0.03661751  0.81314694  0.58986652  1
  Zn  Zn77  1  0.56453002  0.85609536  0.57433837  1
  Zn  Zn78  1  0.82230692  0.56822999  0.09353940  1
  Zn  Zn79  1  0.01016035  0.33508347  0.66341128  1
  Zn  Zn80  1  0.80306894  0.05964950  0.04201966  1
  Zn  Zn81  1  0.31693937  0.04493404  0.09402130  1
  Zn  Zn82  1  0.48331060  0.44185708  0.71738105  1
  Zn  Zn83  1  0.23239036  0.43481965  0.88109395  1
  Zn  Zn84  1  0.10244053  0.39570205  0.41365434  1
  Zn  Zn85  1  0.68992799  0.95325868  0.92208780  1
  Zn  Zn86  1  0.82380928  0.12557641  0.52929687  1
  Zn  Zn87  1  0.06526518  0.54266275  0.80479249  1
  Zn  Zn88  1  0.16886991  0.22209676  0.66324435  1
  Zn  Zn89  1  0.93618927  0.94054348  0.18007341  1
  Zn  Zn90  1  0.81515265  0.69129936  0.42521913  1
  Zn  Zn91  1  0.56880778  0.60345284  0.35289084  1
  Zn  Zn92  1  0.56838003  0.07786297  0.30799300  1
  Zn  Zn93  1  0.79261333  0.33095420  0.25968173  1
  Zn  Zn94  1  -0.03088134  0.09221381  0.80857262  1
  Zn  Zn95  1  0.18377968  0.19662386  0.19106216  1
  Zn  Zn96  1  0.68778434  0.94860008  0.47102625  1
  Zn  Zn97  1  0.94166074  0.98864938  0.62813540  1
  Zn  Zn98  1  0.41917573  0.21436038  0.44832091  1
  Zn  Zn99  1  0.25132360  0.89090007  0.42275305  1
  Zn  Zn100  1  0.59841501  0.83009173  0.04106173  1
  Zn  Zn101  1  0.94930660  0.32056384  0.08890550  1
  O  O102  1  0.12145001  0.12253846  0.12922264  1
  O  O103  1  0.10009309  0.17707913  0.58669827  1
  O  O104  1  0.17179230  0.59877715  0.08173188  1
  O  O105  1  0.08311429  0.56059096  0.69001497  1
  O  O106  1  0.60453583  0.10692779  0.10684623  1
  O  O107  1  0.66738869  0.12452440  0.61756187  1
  O  O108  1  0.45808112  0.62672756  0.15484290  1
  O  O109  1  0.68089861  0.59469907  0.63226570  1
  O  O110  1  0.36506487  0.42500708  0.45576981  1
  O  O111  1  0.39683982  0.42012723  0.91884729  1
  O  O112  1  0.35474558  0.94856724  0.43810146  1
  O  O113  1  0.38756502  0.85776308  0.88408703  1
  O  O114  1  0.85890956  0.38848852  0.32221509  1
  O  O115  1  0.90121813  0.30203930  0.87433933  1
  O  O116  1  0.91286975  0.90108875  0.42718504  1
  O  O117  1  1.01310839  0.82973050  0.84440702  1
  O  O118  1  0.25492843  0.04108031  0.36938403  1
  O  O119  1  0.31784610  0.00579362  0.87195326  1
  O  O120  1  0.17875278  0.45375997  0.34956907  1
  O  O121  1  0.29959042  0.53449921  0.87517539  1
  O  O122  1  0.78115099  0.00583434  0.40071676  1
  O  O123  1  0.76122416  0.01386794  0.85545689  1
  O  O124  1  0.71427875  0.47371701  0.32416085  1
  O  O125  1  0.68997952  0.43208117  0.94466989  1
  O  O126  1  0.25484701  0.46716115  0.09736238  1
  O  O127  1  0.21845202  0.55982540  0.62287248  1
  O  O128  1  0.24380680  1.00294996  0.16800064  1
  O  O129  1  0.20293108  1.01970695  0.59997109  1
  O  O130  1  0.64156629  0.52991078  0.14214359  1
  O  O131  1  0.76658289  0.47245766  0.62030658  1
  O  O132  1  0.72713694  1.00534786  0.11682460  1
  O  O133  1  0.77156237  1.00908256  0.63989657  1
  O  O134  1  -0.02958545  0.34390281  0.19807596  1
  O  O135  1  0.00364512  0.38648338  0.78052139  1
  O  O136  1  0.00609040  0.86282233  0.24195110  1
  O  O137  1  0.06809560  0.84339146  0.79617506  1
  O  O138  1  0.47271648  0.39002134  0.22547938  1
  O  O139  1  0.51060342  0.34632743  0.76792817  1
  O  O140  1  0.52433146  0.87456296  0.25570354  1
  O  O141  1  0.60971567  0.86171484  0.67944789  1
  O  O142  1  0.50748175  0.12865675  0.22644884  1
  O  O143  1  0.45341474  0.15644379  0.72157131  1
  O  O144  1  0.51234549  0.68242357  0.30244814  1
  O  O145  1  0.56592704  0.66068816  0.72674934  1
  O  O146  1  0.99547700  0.13455215  0.23307076  1
  O  O147  1  1.00817648  0.11780410  0.70472211  1
  O  O148  1  0.99955872  0.64817014  0.23901366  1
  O  O149  1  0.99993188  0.63699003  0.78573388  1
  O  O150  1  0.36001662  0.22007348  0.00443315  1
  O  O151  1  0.37564744  0.29490996  0.53766220  1
  O  O152  1  0.32717442  0.72471493  0.06504670  1
  O  O153  1  0.36798975  0.67615902  0.46065071  1
  O  O154  1  0.81417323  0.24580311  0.02264741  1
  O  O155  1  0.81223401  0.22910544  0.47963486  1
  O  O156  1  0.86831656  0.73715232  0.00825457  1
  O  O157  1  0.86388065  0.76263932  0.49622982  1
  O  O158  1  0.12082548  0.29346230  0.46191285  1
  O  O159  1  0.14693516  0.21755261  0.97527794  1
  O  O160  1  0.17617735  0.69053193  0.53823958  1
  O  O161  1  0.14534973  0.76099688  1.04173333  1
  O  O162  1  0.62955259  0.25028195  0.50776833  1
  O  O163  1  0.61487637  0.21496815  0.98579772  1
  O  O164  1  0.64390608  0.83624102  0.49193123  1
  O  O165  1  0.64378600  0.74731886  0.98759892  1
  O  O166  1  0.48230303  0.22971736  0.10918732  1
  O  O167  1  0.50878727  0.25929079  0.65056777  1
  O  O168  1  0.48380848  0.69005388  0.13625212  1
  O  O169  1  0.48248163  0.78511882  0.60618618  1
  O  O170  1  0.99183756  0.21879001  0.11867683  1
  O  O171  1  0.95566352  0.24369234  0.63289862  1
  O  O172  1  1.00603505  0.78980343  0.13802192  1
  O  O173  1  1.05006708  0.70957294  0.62507891  1
  O  O174  1  -0.03674561  0.25237844  0.33273511  1
  O  O175  1  0.04045326  0.18228138  0.86037330  1
  O  O176  1  0.02274072  0.77844874  0.47675102  1
  O  O177  1  0.02964664  0.77708387  0.90206116  1
  O  O178  1  0.44579141  0.29986053  0.38938283  1
  O  O179  1  0.48049405  0.21372302  0.85120916  1
  O  O180  1  0.52823263  0.79472786  0.41540541  1
  O  O181  1  0.53570397  0.75291436  0.87673091  1
  O  O182  1  0.21319909  0.15711176  0.48202605  1
  O  O183  1  0.26048489  0.09560047  1.00794980  1
  O  O184  1  0.25075636  0.58520498  0.46597406  1
  O  O185  1  0.21671555  0.65751844  0.91260970  1
  O  O186  1  0.70427417  0.13590245  0.54838765  1
  O  O187  1  0.72915024  0.10530387  0.97005456  1
  O  O188  1  0.75486442  0.62853791  0.50026178  1
  O  O189  1  0.75598121  0.63159124  1.02735708  1
  O  O190  1  0.33435051  0.38452188  -0.07962985  1
  O  O191  1  0.27773757  0.38701233  0.57710071  1
  O  O192  1  0.18311117  0.90044143  -0.06046621  1
  O  O193  1  0.26082317  0.78826076  0.46748224  1
  O  O194  1  0.73305119  0.37706443  -0.01840970  1
  O  O195  1  0.72204215  0.37393740  0.48314408  1
  O  O196  1  0.74398635  0.89864308  0.00795784  1
  O  O197  1  0.78262752  0.90545717  0.52275279  1
  O  O198  1  0.12377588  0.48743594  0.19656294  1
  O  O199  1  0.06862869  0.42844066  0.77590102  1
  O  O200  1  0.13307086  1.01288906  0.26282365  1
  O  O201  1  0.14854121  0.97232250  0.76110590  1
  O  O202  1  0.59154506  0.44035882  0.23354982  1
  O  O203  1  0.66375578  0.49465514  0.75406821  1
  O  O204  1  0.61138462  1.00023294  0.23105381  1
  O  O205  1  0.66103661  0.98774459  0.74888195  1
  O  O206  1  0.36369019  0.00392381  0.27291645  1
  O  O207  1  0.43275956  -0.06423231  0.75545421  1
  O  O208  1  0.38934133  0.49461531  0.30797915  1
  O  O209  1  0.48458779  0.51115925  0.79845837  1
  O  O210  1  0.88345790  -0.03579470  0.28004620  1
  O  O211  1  0.88936742  0.00566663  0.73279132  1
  O  O212  1  0.77356820  0.50561113  0.17836260  1
  O  O213  1  0.89196566  0.53653455  0.75672568  1
  O  O214  1  0.02090920  0.41621068  0.33901193  1
  O  O215  1  0.14434858  0.35590808  0.88516148  1
  O  O216  1  0.07678031  0.77412861  0.35770384  1
  O  O217  1  0.20943309  0.83178752  0.88806236  1
  O  O218  1  0.63939362  0.32283652  0.35732832  1
  O  O219  1  0.64014788  0.40888794  0.89817087  1
  O  O220  1  0.64883894  0.93114949  0.35834046  1
  O  O221  1  0.63591100  0.87640903  0.85999877  1
  O  O222  1  0.38536380  0.12561199  0.12725251  1
  O  O223  1  0.52638532  0.05772424  0.62033430  1
  O  O224  1  0.31002999  0.69098373  0.12763746  1
  O  O225  1  0.43499761  0.62235257  0.64766766  1
  O  O226  1  0.85264154  0.11767316  0.11930892  1
  O  O227  1  0.90987404  0.09732067  0.58685867  1
  O  O228  1  0.85148775  0.63682554  0.17204406  1
  O  O229  1  0.92782311  0.64547115  0.66411769  1
  O  O230  1  0.24701719  0.24782398  0.10509983  1
  O  O231  1  0.26861202  0.18758783  0.63788078  1
  O  O232  1  0.30624969  0.84184868  0.17363748  1
  O  O233  1  0.30581468  0.68441232  0.58032579  1
  O  O234  1  0.71800521  0.20904217  0.15232772  1
  O  O235  1  0.73680989  0.27441341  0.62358480  1
  O  O236  1  0.74771507  0.78042574  0.10188253  1
  O  O237  1  0.74270473  0.74354072  0.62086029  1
  O  O238  1  0.25574725  0.25662551  0.36508299  1
  O  O239  1  0.26941093  0.20225991  0.89355151  1
  O  O240  1  0.23585312  0.69123287  0.38441540  1
  O  O241  1  0.22824296  0.70320088  0.76830461  1
  O  O242  1  0.69586774  0.28619093  0.32607362  1
  O  O243  1  0.73814869  0.21632707  0.86276545  1
  O  O244  1  0.74328125  0.77505095  0.38392362  1
  O  O245  1  0.76014515  0.75353786  0.90666599  1
  O  O246  1  0.00386156  0.09012627  0.02726087  1
  O  O247  1  0.00457088  0.18306086  0.48559091  1
  O  O248  1  0.04282563  0.65365592  -0.00935837  1
  O  O249  1  0.02075757  0.63412130  0.40874349  1
  O  O250  1  0.50050756  0.10030312  0.00624950  1
  O  O251  1  0.50508363  0.15834457  0.49284469  1
  O  O252  1  0.39950784  0.60710301  -0.00087979  1
  O  O253  1  0.57139035  0.67128749  0.57136704  1
  O  O254  1  0.48073354  0.38233133  0.53734825  1
  O  O255  1  0.50289972  0.40932238  1.06622110  1
  O  O256  1  0.49120923  0.93959395  0.54218727  1
  O  O257  1  0.49977084  0.87938174  1.03306168  1
  O  O258  1  0.92896673  0.35440644  0.48421775  1
  O  O259  1  0.99691198  0.37230140  1.00085343  1
  O  O260  1  1.06744751  0.81121989  0.42040438  1
  O  O261  1  1.01189482  0.91661709  1.00865248  1
  O  O262  1  0.56445434  0.49731643  0.38092767  1
  O  O263  1  0.57728101  0.55358447  0.98425637  1
  O  O264  1  0.47520322  1.03446362  0.36738191  1
  O  O265  1  0.49393989  0.97264686  0.90755182  1
  O  O266  1  0.93694046  0.49642408  0.22605375  1
  O  O267  1  1.01379440  0.51004064  0.90667856  1
  O  O268  1  0.97783039  1.03847635  0.37792431  1
  O  O269  1  1.00588538  1.01299813  0.87886396  1
  O  O270  1  0.02426457  0.00921297  0.15446938  1
  O  O271  1  0.04001008  0.01639216  0.57179298  1
  O  O272  1  0.04752213  0.50610458  0.07153011  1
  O  O273  1  -0.05073980  0.42261142  0.63080707  1
  O  O274  1  0.49880170  0.00680468  0.12585970  1
  O  O275  1  0.53969169  0.02318043  0.67965229  1
  O  O276  1  0.46897685  0.47602254  0.06837407  1
  O  O277  1  0.55351516  0.49784152  0.64928472  1
  O  O278  1  0.24315297  0.37215520  0.21873614  1
  O  O279  1  0.23129022  0.39858543  0.76804317  1
  O  O280  1  0.24051950  0.90561479  0.30962075  1
  O  O281  1  0.24657641  0.84658863  0.82691474  1
  O  O282  1  0.71817209  0.39146358  0.20043174  1
  O  O283  1  0.80361595  0.41354966  0.83548619  1
  O  O284  1  0.72880907  0.88007213  0.22757027  1
  O  O285  1  0.77119562  0.89285258  0.75331787  1
  O  O286  1  0.23801324  0.13894039  0.26778409  1
  O  O287  1  0.20902018  -0.05679944  0.73609056  1
  O  O288  1  0.26385789  0.54453684  0.24182166  1
  O  O289  1  0.30836762  0.58357878  0.73964594  1
  O  O290  1  0.74426271  0.08762399  0.27636047  1
  O  O291  1  0.76011297  0.11608333  0.75442713  1
  O  O292  1  0.65919856  0.57750186  0.27462747  1
  O  O293  1  0.79576624  0.63639417  0.74725735  1
  O  O294  1  0.35433342  0.13609900  0.39723913  1
  O  O295  1  0.37683215  0.06091201  0.86486935  1
  O  O296  1  0.42441833  0.55128188  0.33012090  1
  O  O297  1  0.34835892  0.67264934  0.84812422  1
  O  O298  1  0.77696069  0.14070802  0.30619524  1
  O  O299  1  0.87254830  0.12926555  0.86519187  1
  O  O300  1  0.85808122  0.63264236  0.33965359  1
  O  O301  1  0.88867315  0.64072074  0.86601488  1
  O  O302  1  0.15693511  0.37258242  0.06986487  1
  O  O303  1  0.11814917  0.32330899  0.68187722  1
  O  O304  1  0.13604293  0.88929287  0.14743149  1
  O  O305  1  0.11863766  0.87965615  0.61477035  1
  O  O306  1  0.56686356  0.40146968  0.02606758  1
  O  O307  1  0.63026516  0.39178804  0.62692453  1
  O  O308  1  0.63281113  0.89378164  0.12554675  1
  O  O309  1  0.79203024  0.79183491  0.63759816  1
  O  O310  1  0.09442174  0.25476147  0.23842495  1
  O  O311  1  0.17166436  0.23605994  0.78668310  1
  O  O312  1  0.03389810  0.80155826  0.20412215  1
  O  O313  1  0.18094886  0.72523684  0.71269335  1
  O  O314  1  0.51393519  0.33420278  0.23781445  1
  O  O315  1  0.59045800  0.21992256  0.75518780  1
  O  O316  1  0.62461612  0.79180872  0.30538189  1
  O  O317  1  0.68453064  0.76301258  0.78065917  1
  O  O318  1  0.36447061  0.25222391  0.21636989  1
  O  O319  1  0.39097383  0.28199037  0.75929296  1
  O  O320  1  0.40397814  0.79988918  0.31956202  1
  O  O321  1  0.43094504  0.75240673  0.73289366  1
  O  O322  1  0.85322683  0.24640024  0.21790291  1
  O  O323  1  0.89863065  0.27752305  0.80864828  1
  O  O324  1  0.88479121  0.76620246  0.25694906  1
  O  O325  1  0.88591514  0.74163102  0.76203186  1
  O  O326  1  0.37622463  0.50381277  0.56478237  1
  O  O327  1  0.34852022  0.56385729  1.02713396  1
  O  O328  1  0.37181346  1.05528099  0.55586390  1
  O  O329  1  0.38522551  0.98315877  1.02631435  1
  O  O330  1  0.90707903  0.51701005  0.50128305  1
  O  O331  1  0.89386659  0.50766618  1.02638465  1
  O  O332  1  0.82958497  1.06529928  0.42610228  1
  O  O333  1  0.87746471  0.99978464  0.98185515  1
  O  O334  1  0.14924682  -0.00464488  0.04468222  1
  O  O335  1  0.15947905  -0.06253871  0.46974827  1
  O  O336  1  0.17139644  0.48758702  -0.03197610  1
  O  O337  1  0.05911552  0.44619293  0.50531786  1
  O  O338  1  0.60915973  -0.00429710  0.01171875  1
  O  O339  1  0.61916616  0.03875122  0.49033037  1
  O  O340  1  0.54849799  0.61097888  0.01475362  1
  O  O341  1  0.63608564  0.52461409  0.50860415  1
  O  O342  1  0.35238137  0.34591502  0.09390995  1
  O  O343  1  0.40099409  0.40639520  0.65542292  1
  O  O344  1  0.37743754  0.84585573  0.16458009  1
  O  O345  1  0.34821076  0.90010811  0.60465302  1
  O  O346  1  0.83433268  0.30683607  0.07423350  1
  O  O347  1  0.80784684  0.38858436  0.76791232  1
  O  O348  1  0.84985979  0.90382875  0.12351085  1
  O  O349  1  0.93401767  0.87751288  0.59186120  1
  O  O350  1  0.12421843  0.15579669  0.37832472  1
  O  O351  1  0.16287301  0.08651059  0.86901287  1
  O  O352  1  0.04411799  0.59402006  0.46168860  1
  O  O353  1  0.17451762  0.57465606  0.80903107  1
  O  O354  1  0.61710389  0.14541726  0.37769702  1
  O  O355  1  0.60567272  0.09559637  0.88476211  1
  O  O356  1  0.62962149  0.67187040  0.42744353  1
  O  O357  1  0.64007245  0.63912990  0.86477163  1
