# generated using pymatgen
data_V51Zn51O256
_symmetry_space_group_name_H-M   'P 1'
_cell_length_a   17.31366567
_cell_length_b   17.52804966
_cell_length_c   17.91455239
_cell_angle_alpha   89.49019215
_cell_angle_beta   89.73030331
_cell_angle_gamma   90.72824630
_symmetry_Int_Tables_number   1
_chemical_formula_structural   V51Zn51O256
_chemical_formula_sum   'V51 Zn51 O256'
_cell_volume   5435.89755462
_cell_formula_units_Z   1
loop_
 _symmetry_equiv_pos_site_id
 _symmetry_equiv_pos_as_xyz
  1  'x, y, z'
loop_
 _atom_site_type_symbol
 _atom_site_label
 _atom_site_symmetry_multiplicity
 _atom_site_fract_x
 _atom_site_fract_y
 _atom_site_fract_z
 _atom_site_occupancy
  V  V0  1  0.37993015  0.65438076  0.26913520  1
  V  V1  1  0.49774345  0.97107412  0.27990079  1
  V  V2  1  0.62168055  0.76647793  0.33453197  1
  V  V3  1  0.11180134  0.57674246  0.04846853  1
  V  V4  1  0.65315593  0.29073424  0.89219426  1
  V  V5  1  0.87265666  0.22387695  0.62466844  1
  V  V6  1  0.90283118  0.50399634  0.86645186  1
  V  V7  1  0.52030579  0.26252809  0.75582380  1
  V  V8  1  0.33947964  0.87967912  0.53457009  1
  V  V9  1  -0.01198463  0.59994153  0.15309100  1
  V  V10  1  0.75110408  0.81157823  0.46001544  1
  V  V11  1  0.00784593  0.88774201  0.36955964  1
  V  V12  1  -0.02151737  0.24899252  0.27041931  1
  V  V13  1  0.42100096  0.75743886  0.10652663  1
  V  V14  1  0.37025242  0.22402860  0.63379436  1
  V  V15  1  0.00089234  0.13091697  0.13612234  1
  V  V16  1  0.90420614  0.34488108  -0.03537653  1
  V  V17  1  0.26564561  0.84535243  0.12964266  1
  V  V18  1  0.88599271  0.75946331  0.14812645  1
  V  V19  1  0.01736386  0.76528744  0.68881794  1
  V  V20  1  0.81351491  0.82076731  0.63648636  1
  V  V21  1  0.02980795  0.75242600  0.24910563  1
  V  V22  1  0.42099878  0.71521636  0.77430124  1
  V  V23  1  0.40281165  0.11269958  0.78100362  1
  V  V24  1  0.53752386  0.89345965  0.83243107  1
  V  V25  1  0.73162628  0.45494559  0.31457215  1
  V  V26  1  0.86482944  0.25744916  0.12559209  1
  V  V27  1  0.12368597  0.78155454  0.93180674  1
  V  V28  1  0.13729987  0.02334106  0.11354887  1
  V  V29  1  0.25417449  0.01566787  0.76339451  1
  V  V30  1  0.12147370  0.35141441  0.76541294  1
  V  V31  1  0.63973490  0.49490343  0.14489776  1
  V  V32  1  0.13453512  0.91450937  0.25204189  1
  V  V33  1  0.24257385  0.13695746  0.90471227  1
  V  V34  1  0.62328121  0.66284666  0.48666881  1
  V  V35  1  0.01848230  0.92790188  0.91503220  1
  V  V36  1  0.13102355  0.22188282  0.38020701  1
  V  V37  1  0.21350521  0.59244856  0.90006588  1
  V  V38  1  0.79496948  0.76110546  -0.03207886  1
  V  V39  1  0.75160741  0.08306007  0.83624997  1
  V  V40  1  0.36685565  0.22490936  0.16704431  1
  V  V41  1  0.39146395  0.89675914  -0.03381908  1
  V  V42  1  0.54122386  0.52093210  0.57638613  1
  V  V43  1  0.00363520  0.22014318  0.76965382  1
  V  V44  1  0.77336724  0.87519733  0.10707985  1
  V  V45  1  0.52696829  0.09182289  0.64177829  1
  V  V46  1  0.70254625  0.13333782  0.34444766  1
  V  V47  1  0.10398219  0.46193789  0.61328115  1
  V  V48  1  0.25087552  0.36295119  0.63410741  1
  V  V49  1  0.74250285  0.30087878  0.55149528  1
  V  V50  1  0.76695514  0.63853922  0.36398220  1
  Zn  Zn51  1  0.54606355  0.16458439  0.22145476  1
  Zn  Zn52  1  0.98349070  0.93753868  0.63914808  1
  Zn  Zn53  1  0.66293105  0.24136458  0.08110752  1
  Zn  Zn54  1  0.88282238  0.19257630  0.43922599  1
  Zn  Zn55  1  0.44687923  0.74760274  0.42374731  1
  Zn  Zn56  1  0.38332655  0.70150322  0.94938868  1
  Zn  Zn57  1  0.88056709  0.82669611  0.80635693  1
  Zn  Zn58  1  0.47140863  0.60140639  0.68260375  1
  Zn  Zn59  1  1.05967590  0.21892149  0.95802201  1
  Zn  Zn60  1  0.07212170  0.26821848  0.58699397  1
  Zn  Zn61  1  0.91130370  0.41467714  0.21797253  1
  Zn  Zn62  1  0.97348482  0.42497900  0.71471487  1
  Zn  Zn63  1  0.07256445  0.41861842  0.94104665  1
  Zn  Zn64  1  0.46102064  0.37407541  0.64570046  1
  Zn  Zn65  1  0.04982985  0.07425929  0.31429624  1
  Zn  Zn66  1  -0.00294034  0.67935050  0.82068119  1
  Zn  Zn67  1  -0.04452820  0.81030760  0.52331887  1
  Zn  Zn68  1  0.21060784  0.95033771  0.95321259  1
  Zn  Zn69  1  0.69597720  0.68746752  0.17154530  1
  Zn  Zn70  1  0.82710807  0.24765477  0.80969169  1
  Zn  Zn71  1  0.54942569  0.23328424  0.55502365  1
  Zn  Zn72  1  0.42273040  0.92783409  0.69949924  1
  Zn  Zn73  1  0.18554956  0.38461303  0.46868544  1
  Zn  Zn74  1  0.55837498  0.09106460  0.84321471  1
  Zn  Zn75  1  0.05298768  0.84821788  0.07514392  1
  Zn  Zn76  1  0.72512239  0.88122418  0.82262378  1
  Zn  Zn77  1  0.02305248  0.33078975  0.09802005  1
  Zn  Zn78  1  0.34961990  0.04368132  0.59706924  1
  Zn  Zn79  1  0.89705492  0.74864435  0.36680216  1
  Zn  Zn80  1  0.68729213  0.18526036  0.68966978  1
  Zn  Zn81  1  0.81783609  0.67894501  0.53947791  1
  Zn  Zn82  1  0.69323070  0.47309380  0.47010259  1
  Zn  Zn83  1  0.32108143  0.05066777  0.06604469  1
  Zn  Zn84  1  0.08276927  0.08729655  0.83343079  1
  Zn  Zn85  1  0.66780376  0.95285366  0.36162990  1
  Zn  Zn86  1  0.57259395  0.75762563  0.64056877  1
  Zn  Zn87  1  0.33475982  0.25032032  0.36436538  1
  Zn  Zn88  1  0.29819909  0.26415362  0.78282355  1
  Zn  Zn89  1  0.14533007  0.60751237  0.72194108  1
  Zn  Zn90  1  0.73669225  0.44979526  0.96687452  1
  Zn  Zn91  1  0.60760336  0.60373937  0.27424306  1
  Zn  Zn92  1  0.17674665  0.15985780  0.69730710  1
  Zn  Zn93  1  0.77161545  0.81473658  0.26764301  1
  Zn  Zn94  1  0.96132507  0.93703779  0.18189159  1
  Zn  Zn95  1  0.90327591  0.14112343  0.00200945  1
  Zn  Zn96  1  0.52137817  0.34693225  0.17658733  1
  Zn  Zn97  1  0.15396331  0.86937813  0.45620069  1
  Zn  Zn98  1  0.14743836  0.22536955  0.18634107  1
  Zn  Zn99  1  0.27108344  0.82782097  0.82394381  1
  Zn  Zn100  1  0.31386643  0.59195864  0.05023511  1
  Zn  Zn101  1  0.19576817  0.65992936  0.17922501  1
  O  O102  1  0.11739982  0.12475867  0.13875716  1
  O  O103  1  0.13184570  0.16802068  0.59456438  1
  O  O104  1  0.09350102  0.59444205  0.15882794  1
  O  O105  1  0.12016030  0.55757396  0.63549988  1
  O  O106  1  0.67297694  0.04814655  0.02126861  1
  O  O107  1  0.62603681  0.10183219  0.64374200  1
  O  O108  1  0.63415839  0.59703745  0.15185412  1
  O  O109  1  0.63209673  0.69102645  0.57871412  1
  O  O110  1  0.43086288  0.30276419  0.42025201  1
  O  O111  1  0.37782184  0.46069927  0.88537704  1
  O  O112  1  0.38376537  0.96678306  0.27036834  1
  O  O113  1  0.31556600  0.89736905  0.90479357  1
  O  O114  1  1.02962858  0.49588911  0.35574007  1
  O  O115  1  0.87822446  0.31745727  0.87893522  1
  O  O116  1  0.91250231  0.86667864  0.37494267  1
  O  O117  1  0.95966158  0.89122507  0.84763276  1
  O  O118  1  0.23161053  0.11026045  0.52572013  1
  O  O119  1  0.23615986  0.03094992  0.87857642  1
  O  O120  1  0.24813356  0.40445856  0.36535633  1
  O  O121  1  0.20426945  0.49926212  0.90805225  1
  O  O122  1  0.70130378  0.04106194  0.29482615  1
  O  O123  1  0.75753444  -0.01396186  0.83102310  1
  O  O124  1  0.74717817  0.53360246  0.38277776  1
  O  O125  1  0.80953145  0.50803350  0.89901471  1
  O  O126  1  0.21736822  0.41301792  0.20566551  1
  O  O127  1  0.24353471  0.45672863  0.63539901  1
  O  O128  1  0.23403199  1.02145303  0.13131113  1
  O  O129  1  0.26437505  1.03145045  0.66758002  1
  O  O130  1  0.68828835  0.36328911  0.23869103  1
  O  O131  1  0.75403145  0.56028171  0.62869877  1
  O  O132  1  0.80052056  0.96091551  0.02564611  1
  O  O133  1  0.60415669  0.89745244  0.61385770  1
  O  O134  1  -0.01197923  0.34717952  0.26655332  1
  O  O135  1  0.01254527  0.32705953  0.74642515  1
  O  O136  1  0.02543190  0.87779479  0.25733071  1
  O  O137  1  0.04370140  0.86121505  0.68822897  1
  O  O138  1  0.53265794  0.26922425  0.25317334  1
  O  O139  1  0.49529495  0.35634826  0.74928878  1
  O  O140  1  0.52988741  0.90831224  0.22144825  1
  O  O141  1  0.47601398  0.85609772  0.76509207  1
  O  O142  1  0.42003064  0.09545759  0.38119634  1
  O  O143  1  0.51430144  0.13462593  0.74200493  1
  O  O144  1  0.48675618  0.60453280  0.28827382  1
  O  O145  1  0.39465978  0.62003557  0.75908935  1
  O  O146  1  0.99091758  0.13364243  0.24325459  1
  O  O147  1  1.01425589  0.12666120  0.74485969  1
  O  O148  1  0.99316546  0.65917601  0.24033557  1
  O  O149  1  0.93663463  0.75054768  0.75094567  1
  O  O150  1  0.34248321  0.26466542  0.08247231  1
  O  O151  1  0.35508056  0.21599982  0.54488051  1
  O  O152  1  0.38752204  0.80331656  0.00526206  1
  O  O153  1  0.40098419  0.81982471  0.48744234  1
  O  O154  1  0.88898020  0.25469463  0.01823117  1
  O  O155  1  0.82472359  0.25502806  0.51099613  1
  O  O156  1  0.85868091  0.78115759  0.04499693  1
  O  O157  1  0.85726336  0.77103492  0.47951810  1
  O  O158  1  0.08323434  0.26060351  0.46891029  1
  O  O159  1  0.19859028  0.28403314  1.00974398  1
  O  O160  1  0.17556076  0.68797699  0.52416109  1
  O  O161  1  0.11592609  0.77314109  1.02720196  1
  O  O162  1  0.65391625  0.26026274  0.53577563  1
  O  O163  1  0.67086010  0.24304191  0.97401749  1
  O  O164  1  0.65293014  0.77630232  0.45093336  1
  O  O165  1  0.69835473  0.76161418  1.01406938  1
  O  O166  1  0.46161181  0.18900613  0.14556438  1
  O  O167  1  0.47608174  0.26022488  0.63280238  1
  O  O168  1  0.51248368  0.77492057  0.09562987  1
  O  O169  1  0.49723375  0.71341463  0.70171778  1
  O  O170  1  1.02455342  0.23826633  0.16013516  1
  O  O171  1  0.96298395  0.25239985  0.59191382  1
  O  O172  1  0.98986769  0.78273180  0.14814863  1
  O  O173  1  0.99955391  0.73992405  0.59854977  1
  O  O174  1  -0.04760543  0.22712934  0.36198544  1
  O  O175  1  -0.00364134  0.21475278  0.86398439  1
  O  O176  1  0.01372272  0.76269874  0.34596700  1
  O  O177  1  0.04170950  0.74696968  0.89164497  1
  O  O178  1  0.49580001  0.27686513  0.43947347  1
  O  O179  1  0.55846277  0.25823982  0.85010918  1
  O  O180  1  0.53109763  0.78886053  0.35570541  1
  O  O181  1  0.45060988  0.71911444  0.86665300  1
  O  O182  1  0.19628122  0.17113862  0.53524401  1
  O  O183  1  0.28152249  0.12072758  0.99093883  1
  O  O184  1  0.29105417  0.62398045  0.52706530  1
  O  O185  1  0.20957237  0.59135211  1.08551964  1
  O  O186  1  0.68465696  0.06048632  0.41844164  1
  O  O187  1  0.82233026  0.11291440  0.93068843  1
  O  O188  1  0.73750842  0.64903503  0.47443938  1
  O  O189  1  0.80300879  0.67256311  0.94457757  1
  O  O190  1  0.23277588  0.34523864  0.00083680  1
  O  O191  1  0.25272540  0.33878727  0.53878254  1
  O  O192  1  0.24024401  0.88808706  0.04676406  1
  O  O193  1  0.24292777  0.85633826  0.51046864  1
  O  O194  1  0.82825272  0.39179661  0.00053967  1
  O  O195  1  0.73870632  0.39783233  0.53810614  1
  O  O196  1  0.71520456  0.84182029  0.01920927  1
  O  O197  1  0.74576829  0.90165954  0.42900523  1
  O  O198  1  0.18251305  0.40063933  0.14522631  1
  O  O199  1  0.10107099  0.44546997  0.73347858  1
  O  O200  1  0.13264694  1.01102161  0.25784417  1
  O  O201  1  0.16110048  1.06805014  0.75784773  1
  O  O202  1  0.65898577  0.50185101  0.25670299  1
  O  O203  1  0.56806907  0.53973484  0.66687855  1
  O  O204  1  0.57593682  0.92038373  0.05471818  1
  O  O205  1  0.62602740  0.85804692  0.67599868  1
  O  O206  1  0.27391763  0.00014931  0.39320691  1
  O  O207  1  0.37470996  0.01104017  0.76166612  1
  O  O208  1  0.42787197  0.55676587  0.26391510  1
  O  O209  1  0.34331672  0.45121653  0.82679311  1
  O  O210  1  0.87647333  -0.00224812  0.26046122  1
  O  O211  1  0.91443385  -0.00106212  0.72338271  1
  O  O212  1  0.81999003  0.43582180  0.27620273  1
  O  O213  1  0.73781465  0.44353939  0.75233000  1
  O  O214  1  0.10044378  0.32463737  0.41941142  1
  O  O215  1  0.11935087  0.36221886  0.85976332  1
  O  O216  1  0.13474134  0.88451065  0.34852713  1
  O  O217  1  0.11830078  0.88628349  0.91080093  1
  O  O218  1  0.53115723  0.41720158  0.36125045  1
  O  O219  1  0.66090707  0.38660376  0.91108867  1
  O  O220  1  0.67136628  0.85381717  0.30526170  1
  O  O221  1  0.62254538  0.84277420  0.83899238  1
  O  O222  1  0.34656607  0.12708793  0.14748634  1
  O  O223  1  0.39967706  0.12280838  0.65688867  1
  O  O224  1  0.39703774  0.66850987  0.05848833  1
  O  O225  1  0.30290635  0.64905394  0.58955951  1
  O  O226  1  0.89516556  0.15258294  0.11972308  1
  O  O227  1  0.85685990  0.13479586  0.60574962  1
  O  O228  1  0.89263594  0.66266306  0.13762220  1
  O  O229  1  0.82848014  0.72446362  0.63680020  1
  O  O230  1  0.26527661  0.23338479  0.19072223  1
  O  O231  1  0.27368395  0.21822609  0.67666290  1
  O  O232  1  0.24309072  0.75151955  0.12626610  1
  O  O233  1  0.18810845  0.71122560  0.58742219  1
  O  O234  1  0.76901369  0.26184251  0.11764950  1
  O  O235  1  0.77048882  0.26945008  0.64428186  1
  O  O236  1  0.76235160  0.77713778  0.15767354  1
  O  O237  1  0.74440068  0.83093731  0.56470527  1
  O  O238  1  0.22976789  0.22749853  0.38484393  1
  O  O239  1  0.27655561  0.22977788  0.88348238  1
  O  O240  1  0.20770271  0.62217915  0.38811553  1
  O  O241  1  0.21162389  0.75927995  0.89197483  1
  O  O242  1  0.68203701  0.21325978  0.39723920  1
  O  O243  1  0.72216895  0.27047426  0.82571347  1
  O  O244  1  0.76858644  0.75661288  0.36624554  1
  O  O245  1  0.80141765  0.81916864  0.88451379  1
  O  O246  1  0.01191533  0.14697525  0.03145254  1
  O  O247  1  -0.03990170  0.10813135  0.48137824  1
  O  O248  1  0.00765951  0.60582419  0.05470350  1
  O  O249  1  -0.03507131  0.58233285  0.51822327  1
  O  O250  1  0.55456827  0.07334186  -0.02203002  1
  O  O251  1  0.51099518  0.12911981  0.55211686  1
  O  O252  1  0.42505696  0.48125659  0.03329315  1
  O  O253  1  0.52841021  0.67941045  0.46903196  1
  O  O254  1  0.37355503  0.46973036  0.46290137  1
  O  O255  1  0.56814486  0.29194502  1.09820915  1
  O  O256  1  0.40642580  0.93461838  0.33409873  1
  O  O257  1  0.48285159  0.90055071  0.91997919  1
  O  O258  1  0.92015239  0.38685886  0.42498230  1
  O  O259  1  1.02395262  0.32456481  0.99005755  1
  O  O260  1  1.03974493  0.86154549  0.46659375  1
  O  O261  1  0.98808347  0.90421190  1.00412552  1
  O  O262  1  0.48174861  0.41727594  0.31214904  1
  O  O263  1  0.44869292  0.41700221  1.01233681  1
  O  O264  1  0.50596244  1.06396264  0.23893500  1
  O  O265  1  0.56064496  0.98415576  0.80937440  1
  O  O266  1  1.08865857  0.51468664  0.32197107  1
  O  O267  1  0.89858920  0.46395269  0.77829710  1
  O  O268  1  1.00828599  0.98455532  0.36680952  1
  O  O269  1  1.02216125  1.02443593  0.89956487  1
  O  O270  1  -0.00030099  0.03026674  0.13669736  1
  O  O271  1  -0.00819011  0.03553938  0.57990444  1
  O  O272  1  -0.04438691  0.51239512  0.17717845  1
  O  O273  1  0.00491538  0.44694710  0.61377699  1
  O  O274  1  0.54110217  -0.03608664  0.09442602  1
  O  O275  1  0.49658099  -0.00181489  0.64486284  1
  O  O276  1  0.55072561  0.45062352  0.15307161  1
  O  O277  1  0.45799364  0.57219580  0.57302184  1
  O  O278  1  0.31147991  0.37106750  0.34870961  1
  O  O279  1  0.22612788  0.34469133  0.74533806  1
  O  O280  1  0.22526838  0.88221138  0.21870151  1
  O  O281  1  0.23653710  0.92038679  0.77313680  1
  O  O282  1  0.69602846  0.39583483  0.38261541  1
  O  O283  1  0.66836109  0.44134329  0.74066994  1
  O  O284  1  0.83295345  0.95223903  0.29570835  1
  O  O285  1  0.85090789  1.01526414  0.69574828  1
  O  O286  1  0.24623687  0.06013946  0.37123136  1
  O  O287  1  0.30037380  0.12271724  0.80129057  1
  O  O288  1  0.28736103  0.63298868  0.24122178  1
  O  O289  1  0.20345345  0.61643037  0.80726467  1
  O  O290  1  0.74355472  0.17195398  0.26544472  1
  O  O291  1  0.75400862  0.12265963  0.74737963  1
  O  O292  1  0.75448420  0.64085017  0.26892432  1
  O  O293  1  0.80164617  0.54256932  0.67624890  1
  O  O294  1  0.38100420  0.14410068  0.41429321  1
  O  O295  1  0.44463020  0.10402904  0.86551387  1
  O  O296  1  0.37737439  0.69332087  0.35620849  1
  O  O297  1  0.30584389  0.61808415  0.93930938  1
  O  O298  1  0.79911825  0.13608141  0.38259620  1
  O  O299  1  0.84739277  0.13650395  0.85684358  1
  O  O300  1  0.86470495  0.64063124  0.37861480  1
  O  O301  1  0.95176096  0.58986974  0.85815610  1
  O  O302  1  0.12985063  0.33574338  0.14582529  1
  O  O303  1  0.13384626  0.35060172  0.63082604  1
  O  O304  1  0.10295830  0.92225185  0.14446670  1
  O  O305  1  0.13531619  0.98969650  0.58033757  1
  O  O306  1  0.69355942  0.38780130  0.17117967  1
  O  O307  1  0.51798834  0.42501827  0.56925632  1
  O  O308  1  0.71588493  0.92943882  0.15326902  1
  O  O309  1  0.55804471  0.85570872  0.57163798  1
  O  O310  1  0.10086502  0.24018280  0.28732511  1
  O  O311  1  0.11165432  0.23768678  0.75074284  1
  O  O312  1  0.12462213  0.74192113  0.23367740  1
  O  O313  1  0.07866296  0.69818127  0.73345646  1
  O  O314  1  0.63048261  0.16724486  0.15487346  1
  O  O315  1  0.60626138  0.25795207  0.70684784  1
  O  O316  1  0.61567307  0.72164504  0.24675475  1
  O  O317  1  0.71838242  0.61552879  0.79258867  1
  O  O318  1  0.37462227  0.21689448  0.26894611  1
  O  O319  1  0.40805087  0.22566432  0.76671486  1
  O  O320  1  0.41609299  0.71955949  0.20266507  1
  O  O321  1  0.33800702  0.76673249  0.76523299  1
  O  O322  1  0.88279527  0.24687541  0.22613196  1
  O  O323  1  0.89851840  0.22961933  0.72764003  1
  O  O324  1  0.87807223  0.77260026  0.24738709  1
  O  O325  1  0.79433154  0.85085235  0.72846683  1
  O  O326  1  0.39590757  0.51316943  0.41313154  1
  O  O327  1  0.35078680  0.48323310  1.06139773  1
  O  O328  1  0.35579292  0.97792008  0.51488636  1
  O  O329  1  0.38562076  0.97357694  1.02508804  1
  O  O330  1  0.90145262  0.57915383  0.55073676  1
  O  O331  1  0.95848455  0.44177160  0.92747008  1
  O  O332  1  0.94804089  1.04235792  0.51700870  1
  O  O333  1  0.82801728  1.01846952  1.05900840  1
  O  O334  1  0.13459856  0.01304704  0.02065677  1
  O  O335  1  0.13862352  -0.00060111  0.51205620  1
  O  O336  1  0.10152942  0.48311352  0.02771819  1
  O  O337  1  0.12892180  0.46166636  0.51960178  1
  O  O338  1  0.61724772  0.09447849  0.01313984  1
  O  O339  1  0.55799798  -0.03129686  0.35916172  1
  O  O340  1  0.68319248  0.48121569  0.06036849  1
  O  O341  1  0.61536679  0.54931401  0.50433369  1
  O  O342  1  0.40688541  0.32020629  0.18343537  1
  O  O343  1  0.35332527  0.33897447  0.65241790  1
  O  O344  1  0.36693446  0.84648551  0.13909561  1
  O  O345  1  0.35741188  0.87372689  0.62951010  1
  O  O346  1  0.91237402  0.35274698  0.12480550  1
  O  O347  1  0.91266271  0.44597437  0.46019029  1
  O  O348  1  0.86945656  0.88497288  0.14561334  1
  O  O349  1  0.89721235  0.87198153  0.60354991  1
  O  O350  1  0.10529666  0.12811467  0.39312084  1
  O  O351  1  0.14075385  0.15385553  0.91084179  1
  O  O352  1  0.23636395  0.55907176  0.39476757  1
  O  O353  1  0.13178312  0.62435664  0.95970614  1
  O  O354  1  0.60374448  0.14716279  0.31923229  1
  O  O355  1  0.66358877  0.11028853  0.86983532  1
  O  O356  1  0.64192946  0.65834841  0.37122876  1
  O  O357  1  0.65984100  0.59753010  0.82745952  1
