# generated using pymatgen
data_V51Zn51O256
_symmetry_space_group_name_H-M   'P 1'
_cell_length_a   17.86254484
_cell_length_b   17.69965375
_cell_length_c   17.93435135
_cell_angle_alpha   88.58912678
_cell_angle_beta   90.35622604
_cell_angle_gamma   89.59703394
_symmetry_Int_Tables_number   1
_chemical_formula_structural   V51Zn51O256
_chemical_formula_sum   'V51 Zn51 O256'
_cell_volume   5668.16492816
_cell_formula_units_Z   1
loop_
 _symmetry_equiv_pos_site_id
 _symmetry_equiv_pos_as_xyz
  1  'x, y, z'
loop_
 _atom_site_type_symbol
 _atom_site_label
 _atom_site_symmetry_multiplicity
 _atom_site_fract_x
 _atom_site_fract_y
 _atom_site_fract_z
 _atom_site_occupancy
  V  V0  1  0.63420149  0.52849279  0.64253288  1
  V  V1  1  0.77265791  0.15871917  0.87399592  1
  V  V2  1  0.42273787  0.00548427  0.38922264  1
  V  V3  1  0.70488546  0.09484662  0.38059650  1
  V  V4  1  0.26243577  0.50126049  0.25421993  1
  V  V5  1  0.02763984  0.71582554  0.25584069  1
  V  V6  1  0.07976839  0.00108136  0.63876226  1
  V  V7  1  0.13412504  -0.01296852  0.14850460  1
  V  V8  1  0.23846891  0.34947743  0.65130810  1
  V  V9  1  0.23722181  0.62133247  0.89042210  1
  V  V10  1  0.49948828  0.91466558  0.90243430  1
  V  V11  1  0.47136427  0.64486634  0.12584449  1
  V  V12  1  -0.00781499  0.26886344  0.74719047  1
  V  V13  1  0.39036879  0.48175649  0.83580117  1
  V  V14  1  0.10252828  0.71238503  0.70337316  1
  V  V15  1  0.46224259  0.74885789  0.79855402  1
  V  V16  1  0.78865278  0.59801325  0.42195219  1
  V  V17  1  0.67563401  0.67896986  -0.08841351  1
  V  V18  1  0.63870590  0.32900275  0.75092114  1
  V  V19  1  0.15853046  0.01589337  0.31784491  1
  V  V20  1  0.89006806  0.24175457  0.60809750  1
  V  V21  1  0.77850972  0.08380335  0.23095974  1
  V  V22  1  -0.10462381  0.19505004  0.27679429  1
  V  V23  1  0.47708281  0.25975012  0.80105103  1
  V  V24  1  0.81068303  0.78774372  -0.14336654  1
  V  V25  1  0.46433595  0.14238623  0.60669172  1
  V  V26  1  0.73986518  0.34131739  0.62020699  1
  V  V27  1  0.70715043  0.87003943  0.62074313  1
  V  V28  1  0.37523686  0.32531307  0.51860907  1
  V  V29  1  0.45576247  0.63425481  0.66316675  1
  V  V30  1  0.73796706  0.02994855  0.74906450  1
  V  V31  1  0.24779071  0.14286286  0.89803132  1
  V  V32  1  0.62074225  0.82504721  0.21912314  1
  V  V33  1  0.33762754  -0.00181484  0.95996971  1
  V  V34  1  0.88285366  0.74004021  0.13635074  1
  V  V35  1  0.58860085  0.86580214  0.76536286  1
  V  V36  1  -0.03350101  0.83782117  0.35267033  1
  V  V37  1  0.42669916  0.15702878  0.26503914  1
  V  V38  1  0.29770519  -0.00908357  0.71700416  1
  V  V39  1  0.60332707  0.03670207  0.64876147  1
  V  V40  1  0.17749350  0.45194099  0.80920655  1
  V  V41  1  0.88365929  0.39822135  0.52935411  1
  V  V42  1  0.81038343  0.53363077  0.70609323  1
  V  V43  1  0.87710385  0.91283161  -0.02953951  1
  V  V44  1  0.22237417  0.24116192  0.45685863  1
  V  V45  1  0.05272798  0.60448999  0.59417428  1
  V  V46  1  0.85241643  0.46479116  0.34486411  1
  V  V47  1  0.48884276  0.37493079  0.39830704  1
  V  V48  1  0.63619067  0.28719901  0.40382038  1
  V  V49  1  0.15826684  0.48451668  0.56938734  1
  V  V50  1  0.48941347  0.51713438  0.52267828  1
  Zn  Zn51  1  0.22747989  0.71142834  0.22590143  1
  Zn  Zn52  1  0.45739628  0.46474240  0.22689132  1
  Zn  Zn53  1  0.98749027  0.61065797  0.40268983  1
  Zn  Zn54  1  0.55415115  0.30338021  0.57936046  1
  Zn  Zn55  1  0.39812138  0.64077341  0.94390879  1
  Zn  Zn56  1  0.82226262  0.21967710  0.43909170  1
  Zn  Zn57  1  0.85173848  0.64582544  -0.03419545  1
  Zn  Zn58  1  0.02129269  0.52717479  0.25803693  1
  Zn  Zn59  1  0.31323199  0.07078054  0.54073623  1
  Zn  Zn60  1  0.43755470  0.70685089  0.50671947  1
  Zn  Zn61  1  0.05084095  0.33032718  0.59180814  1
  Zn  Zn62  1  0.89685143  0.59593295  0.57259932  1
  Zn  Zn63  1  0.92178784  0.35978453  0.25228263  1
  Zn  Zn64  1  0.86783026  0.94763062  0.79505392  1
  Zn  Zn65  1  0.32552904  0.31554669  0.32870909  1
  Zn  Zn66  1  0.56884346  0.79365010  0.03838034  1
  Zn  Zn67  1  0.23420955  0.26349620  0.02830788  1
  Zn  Zn68  1  0.74753852  0.67412986  0.59365416  1
  Zn  Zn69  1  0.82641274  0.31569525  0.78388530  1
  Zn  Zn70  1  0.66512786  0.45510101  0.47757165  1
  Zn  Zn71  1  0.04158870  0.80280513  0.54117537  1
  Zn  Zn72  1  0.61320367  0.14601841  0.81994301  1
  Zn  Zn73  1  0.59525522  0.72663609  0.64734292  1
  Zn  Zn74  1  0.20495704  0.43784799  0.99529478  1
  Zn  Zn75  1  0.20055651  0.15017683  0.67119751  1
  Zn  Zn76  1  0.27126920  0.79118870  0.76703159  1
  Zn  Zn77  1  0.27178306  0.60467939  0.07251120  1
  Zn  Zn78  1  0.97181394  0.67391562  0.83603278  1
  Zn  Zn79  1  0.51570854  0.16721522  0.42389045  1
  Zn  Zn80  1  0.30306755  0.87503132  0.30952949  1
  Zn  Zn81  1  0.30353099  0.32054781  0.81874701  1
  Zn  Zn82  1  0.55115664  0.56024426  0.80982318  1
  Zn  Zn83  1  0.79959514  0.74585656  0.29625165  1
  Zn  Zn84  1  -0.03723448  0.00636447  0.25707202  1
  Zn  Zn85  1  0.59951319  0.95632734  0.47413200  1
  Zn  Zn86  1  0.15194945  0.03112506  0.79583285  1
  Zn  Zn87  1  1.00226351  0.46512478  0.70673952  1
  Zn  Zn88  1  0.78773644  0.06993070  0.05070282  1
  Zn  Zn89  1  0.02480976  0.96062871  0.44282966  1
  Zn  Zn90  1  0.16079637  1.02896568  0.98421213  1
  Zn  Zn91  1  0.60870543  0.18736894  0.26565858  1
  Zn  Zn92  1  0.54511593  0.38878697  -0.10884479  1
  Zn  Zn93  1  0.74656803  0.30794430  0.28939620  1
  Zn  Zn94  1  0.84775363  0.92938556  0.14459841  1
  Zn  Zn95  1  0.88366944  1.04437243  0.62353047  1
  Zn  Zn96  1  0.70007450  0.91692170  0.90627521  1
  Zn  Zn97  1  0.34165555  0.50943072  0.64100930  1
  Zn  Zn98  1  0.68984285  0.17924007  0.54318624  1
  Zn  Zn99  1  0.32398157  0.04270665  0.14100630  1
  Zn  Zn100  1  0.47239806  1.05869708  0.78260006  1
  Zn  Zn101  1  0.01199418  0.86615969  0.16204859  1
  O  O102  1  0.18646454  0.20559605  0.15608227  1
  O  O103  1  0.12916814  0.08417336  0.62575992  1
  O  O104  1  0.21041251  0.79090681  -0.02464240  1
  O  O105  1  0.15018174  0.58687173  0.55911849  1
  O  O106  1  0.69825018  0.26895853  0.10637865  1
  O  O107  1  0.64216287  0.11806604  0.61556004  1
  O  O108  1  0.56899239  0.62976269  0.11841944  1
  O  O109  1  0.64712080  0.62558298  0.62953613  1
  O  O110  1  0.38781472  0.35907073  0.41148786  1
  O  O111  1  0.34581675  0.40300492  0.87395247  1
  O  O112  1  0.38103050  0.95023421  0.32243504  1
  O  O113  1  0.39551594  0.92784398  0.92616064  1
  O  O114  1  0.85558755  0.41113246  0.42917168  1
  O  O115  1  0.85929406  0.40166404  0.85291517  1
  O  O116  1  0.87570925  0.81452160  0.33518677  1
  O  O117  1  0.91364504  0.95435606  0.89001950  1
  O  O118  1  0.10256957  0.01920287  0.39310856  1
  O  O119  1  0.24733018  -0.03398676  0.96744893  1
  O  O120  1  0.24403123  0.50356152  0.34792186  1
  O  O121  1  0.17001811  0.40934732  0.89496716  1
  O  O122  1  0.66838945  0.01162463  0.40802291  1
  O  O123  1  0.75062013  -0.02632500  0.82835527  1
  O  O124  1  0.77380417  0.51703462  0.33421575  1
  O  O125  1  0.77684421  0.55417140  0.78733588  1
  O  O126  1  0.26909903  0.52056277  0.15077140  1
  O  O127  1  0.24490576  0.46822138  0.62172798  1
  O  O128  1  0.22983611  0.99704867  0.15581311  1
  O  O129  1  0.29083435  0.99248033  0.62120271  1
  O  O130  1  0.86618887  0.49912945  0.10771591  1
  O  O131  1  0.72849232  0.49592547  0.64758223  1
  O  O132  1  0.67817306  1.02299500  0.02888394  1
  O  O133  1  0.69729013  0.98136805  0.66265031  1
  O  O134  1  0.00768438  0.31317380  0.09031708  1
  O  O135  1  0.01937033  0.35317710  0.69888137  1
  O  O136  1  0.02301633  0.83017422  0.27375591  1
  O  O137  1  -0.05264893  0.82860804  0.63759914  1
  O  O138  1  0.48744313  0.40134822  0.30575858  1
  O  O139  1  0.53269706  0.32136130  0.74502572  1
  O  O140  1  0.53236058  0.84539652  0.17741504  1
  O  O141  1  0.48103442  0.85038712  0.82633515  1
  O  O142  1  0.51236902  0.17014727  0.22406108  1
  O  O143  1  0.50569808  0.16177660  0.81025885  1
  O  O144  1  0.45831516  0.70025783  0.20086363  1
  O  O145  1  0.48243725  0.64465790  0.75976210  1
  O  O146  1  0.90260217  0.10051160  0.24381343  1
  O  O147  1  1.02683601  0.16271518  0.74900052  1
  O  O148  1  0.99826901  0.63000451  0.22437565  1
  O  O149  1  1.12467783  0.62094151  0.69807265  1
  O  O150  1  0.41981192  0.25677027  0.08907693  1
  O  O151  1  0.39000614  0.23524706  0.51303732  1
  O  O152  1  0.29602752  0.65842719  -0.02330267  1
  O  O153  1  0.34730209  0.76903801  0.53691636  1
  O  O154  1  0.87159546  0.36911350  -0.07841008  1
  O  O155  1  0.87307734  0.27709302  0.51355907  1
  O  O156  1  0.88271362  0.72558777  -0.11754419  1
  O  O157  1  0.85304353  0.78930224  0.50174917  1
  O  O158  1  0.12637459  0.26379136  0.50747648  1
  O  O159  1  0.08496882  0.21713180  1.02650490  1
  O  O160  1  0.17197986  0.68504072  0.43742534  1
  O  O161  1  0.17374399  0.80218039  1.03118170  1
  O  O162  1  0.61941392  0.25486182  0.50036137  1
  O  O163  1  0.71422194  0.27037437  1.04016928  1
  O  O164  1  0.57897609  0.78048152  0.44385818  1
  O  O165  1  0.63185837  0.74053857  0.96987760  1
  O  O166  1  0.55833032  0.32528548  0.05490489  1
  O  O167  1  0.49203563  0.22983731  0.63345139  1
  O  O168  1  0.48320772  0.73291423  0.07289799  1
  O  O169  1  0.49005045  0.71292973  0.60784035  1
  O  O170  1  0.97109800  0.33067343  0.03430055  1
  O  O171  1  0.98635658  0.23947777  0.60875031  1
  O  O172  1  0.98082682  0.75996465  0.16183711  1
  O  O173  1  1.06899423  0.72041581  0.60399695  1
  O  O174  1  -0.09519888  0.20253243  0.37073471  1
  O  O175  1  -0.01527952  0.28937105  0.83477537  1
  O  O176  1  -0.00529107  0.71602180  0.35193387  1
  O  O177  1  0.03394841  0.72484878  0.77285539  1
  O  O178  1  0.52049285  0.27670092  0.39279050  1
  O  O179  1  0.48689667  0.29666698  0.88858253  1
  O  O180  1  0.51130857  0.77320466  0.42676955  1
  O  O181  1  0.45146448  0.71605251  0.88778821  1
  O  O182  1  0.25258993  0.15616987  0.49467493  1
  O  O183  1  0.23993893  0.16734207  0.99102020  1
  O  O184  1  0.31210794  0.61241540  0.49064243  1
  O  O185  1  0.23587616  0.53991036  0.99436553  1
  O  O186  1  0.74769902  0.13859450  0.46184217  1
  O  O187  1  0.82332194  0.14178484  0.97146190  1
  O  O188  1  0.81518442  0.64439582  0.50944091  1
  O  O189  1  0.72608570  0.74056942  0.84122906  1
  O  O190  1  0.44206479  0.40217401  0.13522962  1
  O  O191  1  0.26962003  0.32108619  0.49146953  1
  O  O192  1  0.33966564  0.84185080  0.05457807  1
  O  O193  1  0.35571284  0.82495331  0.42312854  1
  O  O194  1  0.83338070  0.39459113  -0.02534026  1
  O  O195  1  0.73389040  0.38838223  0.53531295  1
  O  O196  1  0.79507696  0.85400416  -0.06735817  1
  O  O197  1  0.66804398  0.89381833  0.53514473  1
  O  O198  1  0.17590320  0.46687331  0.22907408  1
  O  O199  1  0.09052957  0.47067619  0.77511798  1
  O  O200  1  0.08963812  1.01671590  0.23607671  1
  O  O201  1  0.09832215  0.97186804  0.73199703  1
  O  O202  1  0.63827265  0.49258014  0.23797661  1
  O  O203  1  0.60325176  0.50898747  0.72961941  1
  O  O204  1  0.67406742  0.89982092  0.18616815  1
  O  O205  1  0.64090971  1.05990551  0.75807743  1
  O  O206  1  0.23755496  0.08378386  0.34346519  1
  O  O207  1  0.38518894  0.00748923  0.75045435  1
  O  O208  1  0.36553826  0.50934778  0.26075152  1
  O  O209  1  0.37854476  0.48484218  0.74132918  1
  O  O210  1  0.78852221  -0.00969257  0.21370992  1
  O  O211  1  0.83387373  0.00659247  0.71174652  1
  O  O212  1  0.81936095  0.38469678  0.28373648  1
  O  O213  1  0.89533034  0.48542600  0.71831942  1
  O  O214  1  0.11487386  0.23251671  0.43980502  1
  O  O215  1  0.05466575  0.22211016  0.96455073  1
  O  O216  1  0.21474574  0.72633949  0.40224939  1
  O  O217  1  0.08451209  0.85597947  0.91170621  1
  O  O218  1  0.61042484  0.38392671  0.41329105  1
  O  O219  1  0.63585226  0.37856504  0.83193822  1
  O  O220  1  0.57952333  0.86654615  0.29272125  1
  O  O221  1  0.60768803  0.88995754  0.86215443  1
  O  O222  1  0.37064242  0.10253569  0.20975568  1
  O  O223  1  0.37004541  0.12768295  0.61683902  1
  O  O224  1  0.37049533  0.63327324  0.11879761  1
  O  O225  1  0.36433329  0.62154229  0.64407875  1
  O  O226  1  0.77639211  0.12245220  0.14011301  1
  O  O227  1  0.86374343  0.14996670  0.60346780  1
  O  O228  1  1.07214996  0.67276480  0.05600255  1
  O  O229  1  0.98078223  0.60333931  0.65806455  1
  O  O230  1  0.35458841  0.23670758  0.09953113  1
  O  O231  1  0.22517924  0.25420138  0.66514525  1
  O  O232  1  0.22106663  0.67993609  0.12684205  1
  O  O233  1  0.31898834  0.81865343  0.48536759  1
  O  O234  1  0.73874107  0.41531125  0.08579775  1
  O  O235  1  0.74901662  0.24682285  0.60761841  1
  O  O236  1  0.87905327  0.68400955  0.05907075  1
  O  O237  1  0.69043210  0.76553308  0.61283123  1
  O  O238  1  0.24290730  0.25477469  0.36346711  1
  O  O239  1  0.25183825  0.22432774  0.84841320  1
  O  O240  1  0.37568424  0.68361441  0.40704997  1
  O  O241  1  0.26382810  0.69727661  0.83559621  1
  O  O242  1  0.73470548  0.28674821  0.40567141  1
  O  O243  1  0.78836304  0.25246391  0.86582334  1
  O  O244  1  0.81460154  0.83905065  0.47231550  1
  O  O245  1  0.84069029  0.83872860  0.78276851  1
  O  O246  1  0.12375187  0.21589726  0.18269516  1
  O  O247  1  -0.12535888  -0.00492485  0.47413409  1
  O  O248  1  0.04601685  0.61541689  0.03065178  1
  O  O249  1  -0.00358563  0.61662257  0.51272866  1
  O  O250  1  0.54457182  0.18017289  0.01280507  1
  O  O251  1  0.49674597  0.12186165  0.51880611  1
  O  O252  1  0.45705869  0.60666606  0.03134617  1
  O  O253  1  0.48471093  0.60882682  0.49162888  1
  O  O254  1  0.47332208  0.35682086  0.52403174  1
  O  O255  1  0.58428515  0.43296850  0.98830389  1
  O  O256  1  0.47062081  0.87146518  0.55115580  1
  O  O257  1  0.52760578  0.88183587  0.98952589  1
  O  O258  1  0.97759080  0.38681163  0.52906387  1
  O  O259  1  1.07744375  0.45404080  1.11447782  1
  O  O260  1  1.00730691  0.84582708  0.45080441  1
  O  O261  1  0.94291715  0.85973985  1.00831740  1
  O  O262  1  0.49658168  0.47264780  0.43456340  1
  O  O263  1  0.49064742  0.47906956  0.85430760  1
  O  O264  1  0.50562250  0.96456025  0.41818436  1
  O  O265  1  0.51225419  1.00778521  0.87711282  1
  O  O266  1  0.93806615  0.46085454  0.28486847  1
  O  O267  1  0.97854327  0.52253773  0.92560950  1
  O  O268  1  0.96371488  0.94031760  0.34596406  1
  O  O269  1  1.05258057  0.87703947  0.85387404  1
  O  O270  1  -0.05023303  -0.04765653  0.16788372  1
  O  O271  1  -0.01336208  0.01820076  0.63594923  1
  O  O272  1  0.03342964  0.50639898  0.14693528  1
  O  O273  1  0.06026053  0.49663221  0.60971652  1
  O  O274  1  0.57364801  0.16166326  0.07255432  1
  O  O275  1  0.50913778  0.07793698  0.67691195  1
  O  O276  1  0.48086240  0.55857401  0.17706563  1
  O  O277  1  0.50309499  0.55616992  0.63437316  1
  O  O278  1  0.29742520  0.40237139  0.25945402  1
  O  O279  1  0.23244460  0.38057937  0.75008029  1
  O  O280  1  0.20775079  0.93386613  0.31614092  1
  O  O281  1  0.26881596  0.90503196  0.75654753  1
  O  O282  1  0.60250552  0.44709294  0.20064575  1
  O  O283  1  0.74253035  0.35617702  0.72512793  1
  O  O284  1  0.70865824  0.80256036  0.26975011  1
  O  O285  1  0.67511996  0.85371701  0.72642712  1
  O  O286  1  0.19962860  0.11193678  0.28268168  1
  O  O287  1  0.24054099  0.07387309  0.74657553  1
  O  O288  1  0.24811590  0.60060571  0.25964518  1
  O  O289  1  0.22402749  0.53583267  0.82494177  1
  O  O290  1  0.68322325  0.10219937  0.26414694  1
  O  O291  1  0.77348967  0.12086437  0.78001986  1
  O  O292  1  0.76247933  0.67460974  0.36902335  1
  O  O293  1  0.82466972  0.62181581  0.65772727  1
  O  O294  1  0.44564071  0.10565219  0.35471533  1
  O  O295  1  0.32976890  0.08347596  0.89863127  1
  O  O296  1  0.33941501  0.61980423  0.42505544  1
  O  O297  1  0.36145791  0.56418408  0.87806892  1
  O  O298  1  0.79362773  0.07950609  0.34048812  1
  O  O299  1  0.85549253  0.10212657  0.90972312  1
  O  O300  1  0.88506091  0.56096722  0.39790142  1
  O  O301  1  0.93371307  0.59704771  0.90264969  1
  O  O302  1  0.22785076  0.35699430  0.05936554  1
  O  O303  1  0.15058825  0.37110121  0.60785775  1
  O  O304  1  0.11448410  0.89456959  0.13592187  1
  O  O305  1  0.08907893  0.89754177  0.59376785  1
  O  O306  1  0.74536016  0.48312732  0.07232023  1
  O  O307  1  0.63438036  0.34584566  0.64241995  1
  O  O308  1  0.63923724  0.79047011  0.12088825  1
  O  O309  1  0.55387371  0.93923619  0.71516696  1
  O  O310  1  -0.04534686  0.26300400  0.23391788  1
  O  O311  1  0.08765636  0.20927722  0.74223481  1
  O  O312  1  0.12234418  0.71318141  0.25455717  1
  O  O313  1  0.17767078  0.76870139  0.71781138  1
  O  O314  1  0.64105517  0.28750041  0.29415062  1
  O  O315  1  0.65508675  0.23744064  0.77103564  1
  O  O316  1  0.61026354  0.72868003  0.24648603  1
  O  O317  1  0.55298958  0.77035074  0.73996343  1
  O  O318  1  0.38745318  0.24356734  0.27819299  1
  O  O319  1  0.38566111  0.26545130  0.77534717  1
  O  O320  1  0.29240702  0.77879305  0.26865882  1
  O  O321  1  0.38004807  0.76406190  0.75403439  1
  O  O322  1  0.80338231  0.21794164  0.25356320  1
  O  O323  1  0.89264845  0.25474212  0.72011465  1
  O  O324  1  0.84040297  0.69603733  0.21079083  1
  O  O325  1  0.91040000  0.77318212  0.65790529  1
  O  O326  1  0.40266248  0.49066734  0.55163478  1
  O  O327  1  0.40763954  0.42561437  1.07690160  1
  O  O328  1  0.36419827  1.01492341  0.46295751  1
  O  O329  1  0.36646773  1.02694851  1.04568484  1
  O  O330  1  0.87178199  0.48869881  0.55645340  1
  O  O331  1  0.95422319  0.49132851  0.98261990  1
  O  O332  1  0.82953178  0.99929189  0.53138820  1
  O  O333  1  0.83803197  0.97434685  1.03730023  1
  O  O334  1  0.10387745  0.03829565  0.06910472  1
  O  O335  1  0.09986644  -0.04137346  0.53985417  1
  O  O336  1  0.09336597  0.46793559  0.04465020  1
  O  O337  1  0.15800171  0.45765839  0.48357536  1
  O  O338  1  0.67393242  -0.04705013  0.01086094  1
  O  O339  1  0.57131985  -0.00609482  0.57230894  1
  O  O340  1  0.74627146  0.62998112  -0.04302116  1
  O  O341  1  0.59163337  0.48728569  0.55755222  1
  O  O342  1  0.58282006  0.39289961  0.05392299  1
  O  O343  1  0.33175738  0.34795317  0.61310223  1
  O  O344  1  0.30762876  0.84186670  0.11519342  1
  O  O345  1  0.42595822  0.90609924  0.58902313  1
  O  O346  1  0.88825336  0.43310551  0.11144464  1
  O  O347  1  0.84916774  0.35314357  0.62099812  1
  O  O348  1  0.83418787  0.82394251  0.12480989  1
  O  O349  1  0.79763054  0.87585464  0.61550860  1
  O  O350  1  -0.05703318  0.02727758  0.48650510  1
  O  O351  1  0.16268686  0.08500604  0.88727753  1
  O  O352  1  0.06104412  0.55216799  0.35130471  1
  O  O353  1  0.14867595  0.63807588  0.90843472  1
  O  O354  1  0.62127069  0.16467322  0.38058890  1
  O  O355  1  0.68341380  0.13789110  0.90392069  1
  O  O356  1  0.71158900  0.54995514  0.45697497  1
  O  O357  1  0.61110864  0.62174393  0.87206449  1
