# generated using pymatgen
data_V51Zn51O256
_symmetry_space_group_name_H-M   'P 1'
_cell_length_a   17.37962269
_cell_length_b   17.48682621
_cell_length_c   17.58635510
_cell_angle_alpha   89.94180236
_cell_angle_beta   89.44657926
_cell_angle_gamma   90.65484944
_symmetry_Int_Tables_number   1
_chemical_formula_structural   V51Zn51O256
_chemical_formula_sum   'V51 Zn51 O256'
_cell_volume   5344.14551139
_cell_formula_units_Z   1
loop_
 _symmetry_equiv_pos_site_id
 _symmetry_equiv_pos_as_xyz
  1  'x, y, z'
loop_
 _atom_site_type_symbol
 _atom_site_label
 _atom_site_symmetry_multiplicity
 _atom_site_fract_x
 _atom_site_fract_y
 _atom_site_fract_z
 _atom_site_occupancy
  V  V0  1  -0.00626251  0.51496609  0.01054067  1
  V  V1  1  0.25858936  0.01465457  0.24476066  1
  V  V2  1  0.77008993  0.64128214  0.87410288  1
  V  V3  1  0.28508548  0.63678534  0.86664458  1
  V  V4  1  0.22542672  0.10793435  0.40268107  1
  V  V5  1  0.09625568  0.64542875  -0.03772183  1
  V  V6  1  -0.03831051  0.35469782  0.91362155  1
  V  V7  1  0.37671165  0.40414502  0.52210923  1
  V  V8  1  -0.07259340  0.58389800  0.67216552  1
  V  V9  1  0.38584451  0.85923656  0.01372995  1
  V  V10  1  0.63512147  0.73621351  0.93177679  1
  V  V11  1  0.66341595  0.36802614  0.75947305  1
  V  V12  1  0.87036068  0.07640393  0.72532964  1
  V  V13  1  0.14748215  0.49894662  0.66513427  1
  V  V14  1  0.75187666  0.01199580  0.24514407  1
  V  V15  1  0.19689505  0.74180446  0.51577578  1
  V  V16  1  0.64749200  0.58096265  0.46746326  1
  V  V17  1  0.51913920  0.85188457  0.88529498  1
  V  V18  1  0.09664560  0.92102536  0.24064561  1
  V  V19  1  0.27102838  0.32379274  0.07356038  1
  V  V20  1  0.86847788  0.91073789  0.02269388  1
  V  V21  1  0.16892675  0.36553887  0.22124680  1
  V  V22  1  0.28031243  0.70739371  0.02597271  1
  V  V23  1  0.35619780  0.10885194  0.74489904  1
  V  V24  1  0.75237282  0.21714134  0.50083769  1
  V  V25  1  0.70354946  -0.01114774  0.71410989  1
  V  V26  1  0.07079322  0.35359703  0.76724798  1
  V  V27  1  0.73128900  0.85336879  0.15895511  1
  V  V28  1  0.70633309  0.11196380  0.37719452  1
  V  V29  1  0.37516627  0.73640395  0.63972872  1
  V  V30  1  0.54784702  0.34188103  0.89338494  1
  V  V31  1  0.25504195  0.62691235  0.39975632  1
  V  V32  1  0.50768562  0.20753201  0.62515347  1
  V  V33  1  0.47758649  0.40070551  0.36611809  1
  V  V34  1  0.12182561  0.30285917  0.39863804  1
  V  V35  1  -0.02302509  0.22116477  0.70611499  1
  V  V36  1  0.91268015  0.54871113  0.32889712  1
  V  V37  1  0.61760634  0.04175346  0.12308616  1
  V  V38  1  0.50862843  0.51072215  0.02302833  1
  V  V39  1  0.91551399  0.17898159  0.25494364  1
  V  V40  1  0.53396884  0.00008741  -0.01157904  1
  V  V41  1  0.13503050  0.51637951  0.11195357  1
  V  V42  1  0.41000728  0.48356284  0.86270830  1
  V  V43  1  0.71334394  0.74889932  0.52283954  1
  V  V44  1  0.38885878  0.13687757  0.28753966  1
  V  V45  1  0.76909596  0.23920515  -0.02296484  1
  V  V46  1  0.61277742  0.51534679  0.67294031  1
  V  V47  1  0.51144728  0.26448041  0.26120478  1
  V  V48  1  0.39919387  0.22651653  0.08653684  1
  V  V49  1  0.26068285  0.27793404  0.50247427  1
  V  V50  1  0.84317970  0.41716974  0.05080557  1
  Zn  Zn51  1  0.20371627  0.67438402  0.69459667  1
  Zn  Zn52  1  0.57220642  0.83257755  0.06606312  1
  Zn  Zn53  1  0.45752634  0.65578955  0.93530141  1
  Zn  Zn54  1  0.58187533  0.24249130  0.06528169  1
  Zn  Zn55  1  0.74073511  0.86448527  0.87052876  1
  Zn  Zn56  1  0.79594951  0.29648716  0.33669177  1
  Zn  Zn57  1  0.35170535  0.12113868  0.54625321  1
  Zn  Zn58  1  0.92919755  0.22399720  0.40227688  1
  Zn  Zn59  1  0.83697989  0.48207489  0.81127861  1
  Zn  Zn60  1  0.45968223  0.17203730  0.90549640  1
  Zn  Zn61  1  0.51614345  -0.02614454  0.77505699  1
  Zn  Zn62  1  0.00490656  0.71619383  0.58024226  1
  Zn  Zn63  1  0.92395960  0.83228172  0.22187129  1
  Zn  Zn64  1  0.55480131  0.66349097  0.58213906  1
  Zn  Zn65  1  0.94507282  0.91629333  0.65303976  1
  Zn  Zn66  1  1.03689492  0.65018400  0.43591358  1
  Zn  Zn67  1  0.44366562  0.56384244  0.44226547  1
  Zn  Zn68  1  0.47593794  0.40255526  0.69481848  1
  Zn  Zn69  1  0.59243020  0.50580466  0.31147949  1
  Zn  Zn70  1  0.75558521  0.92139989  0.42234587  1
  Zn  Zn71  1  0.90036867  0.15220252  0.91255682  1
  Zn  Zn72  1  0.02955906  0.53300515  0.81404616  1
  Zn  Zn73  1  0.74558931  0.65109953  0.66807280  1
  Zn  Zn74  1  0.18929280  0.79971017  0.92698328  1
  Zn  Zn75  1  0.30101172  0.56972499  0.58273936  1
  Zn  Zn76  1  0.29886632  0.48492714  -0.00068628  1
  Zn  Zn77  1  0.79996502  0.68724802  0.20731500  1
  Zn  Zn78  1  0.44647871  0.22229100  0.44341442  1
  Zn  Zn79  1  0.09592099  0.32630485  0.59811060  1
  Zn  Zn80  1  0.82350665  0.09174182  0.09414314  1
  Zn  Zn81  1  0.74799275  0.57283401  0.06997317  1
  Zn  Zn82  1  0.08635203  0.11053409  0.28690426  1
  Zn  Zn83  1  0.17142938  0.44752966  0.49093580  1
  Zn  Zn84  1  0.23753201  0.26638810  0.70403184  1
  Zn  Zn85  1  0.88386529  0.64920926  0.99652966  1
  Zn  Zn86  1  0.59039308  0.55282457  0.86692928  1
  Zn  Zn87  1  0.78725482  0.04486012  0.56147480  1
  Zn  Zn88  1  0.23186698  0.64165214  0.20689830  1
  Zn  Zn89  1  0.69555886  0.17499458  0.68763135  1
  Zn  Zn90  1  0.46644385  0.38170103  0.14078863  1
  Zn  Zn91  1  0.82024664  0.30646318  0.79625270  1
  Zn  Zn92  1  0.30821279  0.30891865  0.32148941  1
  Zn  Zn93  1  0.04493864  0.81948875  0.05557876  1
  Zn  Zn94  1  0.60192784  0.12866256  0.25794035  1
  Zn  Zn95  1  0.69807082  0.45423005  0.93735369  1
  Zn  Zn96  1  0.11438813  0.54459342  0.28852169  1
  Zn  Zn97  1  0.36257383  0.78000283  0.82688594  1
  Zn  Zn98  1  0.84730157  0.61307869  0.51133861  1
  Zn  Zn99  1  0.40145018  1.02270422  0.12728414  1
  Zn  Zn100  1  0.20627936  0.90499804  0.39671515  1
  Zn  Zn101  1  0.67421479  0.39992689  0.42600063  1
  O  O102  1  0.02116933  0.06123609  -0.01385448  1
  O  O103  1  0.13691137  0.08109333  0.71204096  1
  O  O104  1  0.12850683  0.59962764  0.16173860  1
  O  O105  1  0.12914722  0.59381214  0.65650075  1
  O  O106  1  0.60373364  0.13761382  0.12064792  1
  O  O107  1  0.58969620  0.16212346  0.64650048  1
  O  O108  1  0.54947336  0.63392465  0.19965533  1
  O  O109  1  0.64712973  0.59982691  0.62111869  1
  O  O110  1  0.38055266  0.38722474  0.35303458  1
  O  O111  1  0.45733332  0.39638104  0.88999879  1
  O  O112  1  0.41484853  0.92672565  0.37025968  1
  O  O113  1  0.40837264  0.83864705  0.90881004  1
  O  O114  1  0.87201029  0.47958605  0.27389385  1
  O  O115  1  0.88952792  0.38682914  0.85483658  1
  O  O116  1  0.95666912  0.84211278  0.45841152  1
  O  O117  1  0.81906307  0.89938525  0.93982521  1
  O  O118  1  0.22754814  0.01477324  0.42760731  1
  O  O119  1  0.24405932  -0.03094519  0.77841188  1
  O  O120  1  0.17523600  0.54835029  0.43528986  1
  O  O121  1  0.31592879  0.52899064  0.89550019  1
  O  O122  1  0.73586458  0.00619554  0.35963254  1
  O  O123  1  0.64871035  0.11624265  0.87373361  1
  O  O124  1  0.84594242  0.56465857  0.40693886  1
  O  O125  1  0.76245584  0.53389660  0.87828546  1
  O  O126  1  0.22984264  0.49959972  0.08734959  1
  O  O127  1  0.24494993  0.49634540  0.65171501  1
  O  O128  1  0.26021357  0.99877600  0.15287164  1
  O  O129  1  0.16669274  1.06799431  0.64989655  1
  O  O130  1  0.74374940  0.60463341  0.16987158  1
  O  O131  1  0.81997421  0.47012719  0.53737856  1
  O  O132  1  0.72790914  1.03631100  0.14035182  1
  O  O133  1  0.72874918  0.96850287  0.62042689  1
  O  O134  1  0.01119050  0.25917075  0.09194053  1
  O  O135  1  -0.00544491  0.37659448  0.71888761  1
  O  O136  1  -0.00137917  0.91009393  0.23429892  1
  O  O137  1  0.04272322  0.88013395  0.70834059  1
  O  O138  1  0.48981897  0.36475608  0.24969655  1
  O  O139  1  0.55842633  0.37645531  0.77200982  1
  O  O140  1  0.43261254  0.89212524  0.31206029  1
  O  O141  1  0.50389395  0.85810002  0.79046765  1
  O  O142  1  0.48775219  0.15533624  0.25676183  1
  O  O143  1  0.42617812  0.03407748  0.75126969  1
  O  O144  1  0.44529549  0.72320196  0.29612190  1
  O  O145  1  0.60556564  0.73861912  0.72644086  1
  O  O146  1  1.01439531  0.16790850  0.23579898  1
  O  O147  1  0.97173306  0.12089260  0.71224139  1
  O  O148  1  1.09275876  0.72131140  0.27491525  1
  O  O149  1  0.92462553  0.54082663  0.76795142  1
  O  O150  1  0.43262216  0.22783872  -0.00230991  1
  O  O151  1  0.36250550  0.29215638  0.48090887  1
  O  O152  1  0.36318785  0.66515646  0.00148426  1
  O  O153  1  0.33706716  0.75450710  0.53572486  1
  O  O154  1  0.80709381  0.32554186  0.01437245  1
  O  O155  1  0.84597790  0.24409663  0.47347914  1
  O  O156  1  0.96543356  0.69171369  0.13679852  1
  O  O157  1  0.91065355  0.83498830  0.51277818  1
  O  O158  1  0.15006079  0.29077392  0.50483487  1
  O  O159  1  0.22434836  0.05487986  0.91379771  1
  O  O160  1  0.09686135  0.71499728  0.50526899  1
  O  O161  1  0.10294523  0.75065411  0.98549527  1
  O  O162  1  0.64166635  0.24751930  0.49485327  1
  O  O163  1  0.67913756  0.22558870  1.01397898  1
  O  O164  1  0.61632733  0.74825066  0.53518283  1
  O  O165  1  0.63056826  0.74551969  1.02796629  1
  O  O166  1  0.49202450  0.26443630  0.13648535  1
  O  O167  1  0.51428861  0.30117781  0.63640645  1
  O  O168  1  0.51611068  0.81759201  0.17996376  1
  O  O169  1  0.46680600  0.70390509  0.62966514  1
  O  O170  1  1.03787661  0.19742706  0.07313248  1
  O  O171  1  1.01706365  0.24996303  0.62027342  1
  O  O172  1  0.99246513  0.76733368  0.14753177  1
  O  O173  1  0.97966017  0.66933120  0.67581635  1
  O  O174  1  0.03115369  0.26416230  0.40868884  1
  O  O175  1  -0.05509019  0.25996625  0.91975036  1
  O  O176  1  0.07923872  0.74193026  0.34114304  1
  O  O177  1  -0.01323863  0.78420044  0.82568624  1
  O  O178  1  0.49680244  0.27758245  0.36237056  1
  O  O179  1  0.52448085  0.25181710  0.86236434  1
  O  O180  1  0.51044011  0.80147894  0.41344081  1
  O  O181  1  0.52908648  0.74101531  0.90465265  1
  O  O182  1  0.27093607  0.16022316  0.48154161  1
  O  O183  1  0.23545023  -0.01700709  0.92323948  1
  O  O184  1  0.24610839  0.64143411  0.50920012  1
  O  O185  1  0.21597893  0.64745579  0.96711586  1
  O  O186  1  0.73894264  0.11037652  0.48140404  1
  O  O187  1  0.82827131  0.15995607  1.00176937  1
  O  O188  1  0.73276847  0.64895512  0.48707545  1
  O  O189  1  0.77428867  0.64460422  0.99426653  1
  O  O190  1  0.26686445  0.37335858  -0.00852930  1
  O  O191  1  0.26924467  0.38980504  0.50532647  1
  O  O192  1  0.27945984  0.80994281  0.00467650  1
  O  O193  1  0.20752316  0.83442290  0.47978215  1
  O  O194  1  0.75286165  0.46682411  0.03380454  1
  O  O195  1  0.68921689  0.31130965  0.50184182  1
  O  O196  1  0.80942634  0.83048014  0.07825481  1
  O  O197  1  0.74069018  0.82599343  0.46540073  1
  O  O198  1  0.12718249  0.45901702  0.21215677  1
  O  O199  1  0.10810819  0.47059203  0.75913067  1
  O  O200  1  0.13911407  1.02040679  0.24589487  1
  O  O201  1  0.10292574  0.92900658  0.69327867  1
  O  O202  1  0.59145758  0.57767439  0.20915283  1
  O  O203  1  0.62376616  0.53978901  0.76570427  1
  O  O204  1  0.60091103  1.02011314  0.21773443  1
  O  O205  1  0.60530040  0.99858950  0.71968887  1
  O  O206  1  0.37086659  0.04478041  0.23896153  1
  O  O207  1  0.28228512  0.03412524  0.77483911  1
  O  O208  1  0.40476586  0.55255575  0.23089019  1
  O  O209  1  0.40118726  0.46258957  0.77016311  1
  O  O210  1  0.84469663  0.00984680  0.23897118  1
  O  O211  1  0.88849298  -0.02087373  0.72287634  1
  O  O212  1  0.84936997  0.61100561  0.27769647  1
  O  O213  1  0.80587723  0.43446746  0.59611734  1
  O  O214  1  0.11781648  0.39950307  0.40377935  1
  O  O215  1  0.05703225  0.36370097  0.86970027  1
  O  O216  1  0.11609905  0.88987192  0.32954602  1
  O  O217  1  0.15882662  0.86165131  0.83717364  1
  O  O218  1  0.58904565  0.40395903  0.35786389  1
  O  O219  1  0.65272046  0.37182544  0.87172028  1
  O  O220  1  0.57758325  0.90964446  0.37593852  1
  O  O221  1  0.62445689  0.84264098  0.89901811  1
  O  O222  1  0.39663562  0.13497224  0.11495376  1
  O  O223  1  0.33806261  0.08022173  0.64847146  1
  O  O224  1  0.37140913  0.59261632  0.18405907  1
  O  O225  1  0.31517417  0.65461932  0.65434026  1
  O  O226  1  0.86308197  0.15507610  0.17551114  1
  O  O227  1  0.85392572  0.09902352  0.62921377  1
  O  O228  1  0.89144849  0.68658979  0.11295545  1
  O  O229  1  0.83633829  0.59955253  0.62335647  1
  O  O230  1  0.28965946  0.22897025  0.05638805  1
  O  O231  1  0.26488991  0.25590558  0.59735607  1
  O  O232  1  0.25890952  0.69536146  0.12021602  1
  O  O233  1  0.19903343  0.75315983  0.61156885  1
  O  O234  1  0.70222441  0.38719186  0.21027195  1
  O  O235  1  0.75302245  0.20986105  0.59632925  1
  O  O236  1  0.70910547  0.76372590  0.18374120  1
  O  O237  1  0.75454195  0.74874489  0.61016580  1
  O  O238  1  0.22827962  0.27133608  0.39188388  1
  O  O239  1  0.30703272  0.29793515  0.85133647  1
  O  O240  1  0.23185062  0.71946938  0.39157296  1
  O  O241  1  0.26382503  0.74039081  0.86993615  1
  O  O242  1  0.73493469  0.21081045  0.37970954  1
  O  O243  1  0.77362736  0.24622426  0.88015085  1
  O  O244  1  0.65142193  0.75569111  0.34789922  1
  O  O245  1  0.73225491  0.75182960  0.89201722  1
  O  O246  1  0.01192986  0.11741171  -0.06639034  1
  O  O247  1  -0.09856886  0.01062362  0.44345685  1
  O  O248  1  -0.00401240  0.62718576  -0.00028151  1
  O  O249  1  -0.05378167  0.66250934  0.50013359  1
  O  O250  1  0.49502298  0.08445053  -0.03836974  1
  O  O251  1  0.45566836  0.17332234  0.54310500  1
  O  O252  1  0.51172506  0.60781562  0.02688901  1
  O  O253  1  0.54579784  0.60131257  0.48556147  1
  O  O254  1  0.46919745  0.39750844  0.47071352  1
  O  O255  1  0.55795708  0.32671755  0.98925583  1
  O  O256  1  0.46111559  0.82770571  0.45571335  1
  O  O257  1  0.50288186  0.88735076  1.00046032  1
  O  O258  1  0.95249159  0.38131150  0.53446480  1
  O  O259  1  0.94431812  0.39083655  1.00764587  1
  O  O260  1  1.04210298  0.97318382  0.53479492  1
  O  O261  1  0.96061303  0.87539995  1.01359078  1
  O  O262  1  0.48226201  0.50388076  0.35332486  1
  O  O263  1  0.47793347  0.55749520  0.86907672  1
  O  O264  1  0.54166907  0.96121689  0.40699455  1
  O  O265  1  0.52898117  0.96093923  0.88738920  1
  O  O266  1  0.99983306  0.54449496  0.26986950  1
  O  O267  1  0.99945015  0.49124177  0.91551505  1
  O  O268  1  0.93087857  0.96945950  0.39330925  1
  O  O269  1  1.05189148  1.00259108  0.82917066  1
  O  O270  1  0.08967293  0.04964690  0.00712629  1
  O  O271  1  -0.01280947  -0.00005913  0.58489590  1
  O  O272  1  0.04165608  0.46937471  0.08980124  1
  O  O273  1  -0.02430929  0.52629319  0.61633964  1
  O  O274  1  0.51497256  0.00532960  0.09504883  1
  O  O275  1  0.43062778  -0.02418474  0.53943501  1
  O  O276  1  0.52265319  0.47034828  0.11228155  1
  O  O277  1  0.51894167  0.50100221  0.65197474  1
  O  O278  1  0.25863910  0.38062527  0.25069197  1
  O  O279  1  0.31797954  0.32056837  0.78437271  1
  O  O280  1  0.26422795  0.93169864  0.29440349  1
  O  O281  1  0.17736090  0.82333879  0.77208539  1
  O  O282  1  0.76851209  0.38977679  0.37554017  1
  O  O283  1  0.76285182  0.40267097  0.77255419  1
  O  O284  1  0.72758650  0.90850397  0.24524595  1
  O  O285  1  0.73289171  0.92088835  0.77823886  1
  O  O286  1  0.26513226  0.11086197  0.30614723  1
  O  O287  1  0.27869400  0.17321510  0.74393382  1
  O  O288  1  0.21664156  0.59492306  0.30078581  1
  O  O289  1  0.23450752  0.61525524  0.78939510  1
  O  O290  1  0.72169361  0.11258846  0.27168727  1
  O  O291  1  0.74644849  0.08287852  0.73142036  1
  O  O292  1  0.60433977  0.71696118  0.31298728  1
  O  O293  1  0.75611876  0.65176197  0.77739744  1
  O  O294  1  0.40106992  0.13225128  0.38320025  1
  O  O295  1  0.37617857  0.13364464  0.84076562  1
  O  O296  1  0.35242603  0.61366581  0.39552760  1
  O  O297  1  0.37959531  0.66290976  0.84198272  1
  O  O298  1  0.89931862  0.13069349  0.33996857  1
  O  O299  1  0.86857661  0.10553273  0.82091732  1
  O  O300  1  0.97108057  0.63717257  0.34606909  1
  O  O301  1  0.86728190  0.65813940  0.88330873  1
  O  O302  1  0.18050386  0.32718481  0.12653932  1
  O  O303  1  0.15271074  0.33274660  0.70419059  1
  O  O304  1  0.11152349  0.88871737  0.12590419  1
  O  O305  1  0.14964129  0.91085866  0.64055106  1
  O  O306  1  0.67833713  0.45354839  0.21179348  1
  O  O307  1  0.65786721  0.42407315  0.66831875  1
  O  O308  1  0.65509696  0.89146096  0.11042066  1
  O  O309  1  0.56782172  0.90270361  0.57401048  1
  O  O310  1  0.12481879  0.30441016  0.28592861  1
  O  O311  1  0.04544148  0.24897764  0.77598211  1
  O  O312  1  0.15011307  0.84834134  0.18464610  1
  O  O313  1  0.14515761  0.75458487  0.76771088  1
  O  O314  1  0.60581265  0.24962304  0.24980189  1
  O  O315  1  0.68172518  0.27489556  0.73912259  1
  O  O316  1  0.55320429  0.82738566  0.23914861  1
  O  O317  1  0.63064296  0.80324273  0.71290795  1
  O  O318  1  0.36275942  0.23001983  0.26206287  1
  O  O319  1  0.42519782  0.17559543  0.70980615  1
  O  O320  1  0.39317954  0.73974425  0.25268707  1
  O  O321  1  0.36356325  0.79042367  0.72032566  1
  O  O322  1  0.89207787  0.27292936  0.29010115  1
  O  O323  1  0.88489503  0.25265191  0.72589516  1
  O  O324  1  0.84963344  0.76602475  0.26039498  1
  O  O325  1  0.93770332  0.78649906  0.77646635  1
  O  O326  1  0.37289595  0.50832138  0.51808694  1
  O  O327  1  0.41368316  0.48431031  1.00024523  1
  O  O328  1  0.37242737  1.00429329  0.50978321  1
  O  O329  1  0.36971652  0.94774984  1.05102454  1
  O  O330  1  0.94535103  0.48630528  0.39791367  1
  O  O331  1  0.89635209  0.52174861  1.04039600  1
  O  O332  1  0.83915685  0.97044326  0.48930925  1
  O  O333  1  0.87272808  1.00603901  1.04296578  1
  O  O334  1  0.01617405  -0.04688934  -0.13609472  1
  O  O335  1  0.07293562  0.02313477  0.49208391  1
  O  O336  1  0.11202032  0.55494660  0.00989341  1
  O  O337  1  0.11315015  0.44050986  0.58595003  1
  O  O338  1  0.62908442  0.01529686  0.00997372  1
  O  O339  1  0.57947462  -0.03253082  0.54953879  1
  O  O340  1  0.58758457  0.48568891  -0.04111213  1
  O  O341  1  0.66568494  0.49022996  0.49469664  1
  O  O342  1  0.36223944  0.33828107  0.11719604  1
  O  O343  1  0.39150032  0.38604834  0.61378276  1
  O  O344  1  0.41074113  0.79725407  0.07888527  1
  O  O345  1  0.36090515  0.82078383  0.57001111  1
  O  O346  1  0.84823843  0.40456333  0.14094279  1
  O  O347  1  0.90297357  0.34031220  0.56353436  1
  O  O348  1  0.84122772  0.88510488  0.13650158  1
  O  O349  1  0.94948840  0.82102124  0.59023403  1
  O  O350  1  0.13124269  0.13009174  0.38550102  1
  O  O351  1  0.16818518  0.07745997  0.87216807  1
  O  O352  1  0.10098051  0.56095327  0.40090934  1
  O  O353  1  0.08359022  0.62519057  0.87055132  1
  O  O354  1  0.60995289  0.11180462  0.37778229  1
  O  O355  1  0.60796865  0.12973216  0.81880565  1
  O  O356  1  0.65275139  0.57707409  0.37086848  1
  O  O357  1  0.64788393  0.63890640  0.90629753  1
