# generated using pymatgen
data_V51Zn51O256
_symmetry_space_group_name_H-M   'P 1'
_cell_length_a   17.38216188
_cell_length_b   17.26417524
_cell_length_c   17.45649554
_cell_angle_alpha   90.10525378
_cell_angle_beta   90.66830261
_cell_angle_gamma   89.29677077
_symmetry_Int_Tables_number   1
_chemical_formula_structural   V51Zn51O256
_chemical_formula_sum   'V51 Zn51 O256'
_cell_volume   5237.73845440
_cell_formula_units_Z   1
loop_
 _symmetry_equiv_pos_site_id
 _symmetry_equiv_pos_as_xyz
  1  'x, y, z'
loop_
 _atom_site_type_symbol
 _atom_site_label
 _atom_site_symmetry_multiplicity
 _atom_site_fract_x
 _atom_site_fract_y
 _atom_site_fract_z
 _atom_site_occupancy
  V  V0  1  0.90041449  0.84408523  0.02950105  1
  V  V1  1  0.76680753  0.84093924  0.12693316  1
  V  V2  1  0.12277022  0.13221738  -0.02371753  1
  V  V3  1  0.63185895  0.46447271  0.07519216  1
  V  V4  1  0.37017128  0.00077570  0.34093097  1
  V  V5  1  0.64681722  0.23826994  0.36919425  1
  V  V6  1  0.00870515  0.10466177  0.59333853  1
  V  V7  1  0.47939973  0.64603428  0.09384924  1
  V  V8  1  -0.05557980  0.37288758  0.36062000  1
  V  V9  1  0.61663860  0.39428119  0.25755670  1
  V  V10  1  0.59915388  0.74690629  0.37180107  1
  V  V11  1  0.25222076  0.60814697  0.82227208  1
  V  V12  1  0.47572939  0.00481593  0.02580250  1
  V  V13  1  0.60279640  -0.04021214  0.13797293  1
  V  V14  1  0.34760958  0.13584434  0.22547729  1
  V  V15  1  0.89263666  0.87561577  0.50096059  1
  V  V16  1  0.60244638  0.49584803  0.62398241  1
  V  V17  1  0.35059845  0.76426358  0.10826823  1
  V  V18  1  0.85776694  0.52383454  0.39224451  1
  V  V19  1  0.73500300  0.64002885  0.41184400  1
  V  V20  1  0.13822281  0.54302736  0.20966599  1
  V  V21  1  0.56874155  0.25790126  0.72697283  1
  V  V22  1  0.73490816  -0.03364931  0.25168588  1
  V  V23  1  0.50724326  0.16210311  0.12309814  1
  V  V24  1  0.78486922  -0.04332307  0.76730889  1
  V  V25  1  0.26429073  0.44465025  0.12646796  1
  V  V26  1  0.16123858  0.38366200  0.27540319  1
  V  V27  1  0.61068615  0.19566294  0.89000112  1
  V  V28  1  0.86356170  0.60391211  0.81771779  1
  V  V29  1  0.05302908  0.57008194  0.56198670  1
  V  V30  1  0.72109161  0.47272139  0.76165371  1
  V  V31  1  0.88332821  0.18576680  0.22260552  1
  V  V32  1  0.29298792  0.86872107  0.56536302  1
  V  V33  1  0.49047346  0.78165884  0.77022649  1
  V  V34  1  0.30704338  0.31890217  -0.00101352  1
  V  V35  1  0.62497023  0.64622331  -0.00583543  1
  V  V36  1  0.50653804  0.50122504  -0.04050626  1
  V  V37  1  0.78475331  0.39796093  0.61068982  1
  V  V38  1  0.15115937  0.26673338  0.42220252  1
  V  V39  1  0.00221828  0.30675545  0.20306917  1
  V  V40  1  0.63127667  0.87421159  0.72734258  1
  V  V41  1  0.00942859  0.58692959  0.06736412  1
  V  V42  1  0.62648054  0.10253097  0.49042675  1
  V  V43  1  0.38574912  0.46064345  0.44805484  1
  V  V44  1  0.65524955  0.10283761  0.02762192  1
  V  V45  1  0.62471291  0.79252075  0.89534470  1
  V  V46  1  0.24538599  -0.00208230  0.78009180  1
  V  V47  1  0.74930220  0.50885674  0.19704101  1
  V  V48  1  0.23712836  0.36578961  0.65857362  1
  V  V49  1  -0.00245614  0.79064016  0.86684312  1
  V  V50  1  0.48866684  0.67100030  0.63694735  1
  Zn  Zn51  1  0.18612023  0.44540054  0.46890518  1
  Zn  Zn52  1  0.64414699  -0.00642041  0.86323332  1
  Zn  Zn53  1  0.94771502  0.48959444  0.69770863  1
  Zn  Zn54  1  0.42210399  0.91563708  0.70406533  1
  Zn  Zn55  1  0.57187074  0.07723745  0.30207888  1
  Zn  Zn56  1  0.44911377  0.38100677  0.69035073  1
  Zn  Zn57  1  0.06265422  0.08886431  0.78452424  1
  Zn  Zn58  1  0.95596488  0.50809812  0.22681827  1
  Zn  Zn59  1  0.81342078  0.79870396  0.32235565  1
  Zn  Zn60  1  0.76054821  0.26601243  0.49919731  1
  Zn  Zn61  1  0.80952092  0.06759775  0.53785797  1
  Zn  Zn62  1  0.52588050  0.81488838  0.05619340  1
  Zn  Zn63  1  0.04900311  0.50825040  0.38863873  1
  Zn  Zn64  1  0.68274948  0.45231662  0.44296264  1
  Zn  Zn65  1  0.79030200  0.32835961  0.28651367  1
  Zn  Zn66  1  0.46484999  0.45564227  0.16360191  1
  Zn  Zn67  1  0.28180385  0.79313291  0.73243700  1
  Zn  Zn68  1  0.22694979  0.90942621  0.40335359  1
  Zn  Zn69  1  0.32964836  0.57504354  0.01058334  1
  Zn  Zn70  1  0.32579301  0.12719812  0.03988595  1
  Zn  Zn71  1  0.89936990  0.17627869  0.41372618  1
  Zn  Zn72  1  0.10074170  0.81403827  0.02110225  1
  Zn  Zn73  1  0.55307914  0.59627114  0.47770986  1
  Zn  Zn74  1  0.65499275  0.68588054  0.19330121  1
  Zn  Zn75  1  0.03415323  0.15732386  0.30071809  1
  Zn  Zn76  1  0.74276991  0.27011222  0.71015565  1
  Zn  Zn77  1  0.81505252  0.79628446  0.84040221  1
  Zn  Zn78  1  0.18093577  0.40773716  0.85585774  1
  Zn  Zn79  1  0.50209780  0.32073395  0.00512734  1
  Zn  Zn80  1  0.83103873  0.64650893  0.00929897  1
  Zn  Zn81  1  0.70493199  0.93936358  0.44722105  1
  Zn  Zn82  1  0.42516038  0.50407890  0.80188004  1
  Zn  Zn83  1  0.96800418  0.89399297  0.70187549  1
  Zn  Zn84  1  1.04662319  0.25161945  0.82089576  1
  Zn  Zn85  1  0.42671906  0.93890038  0.18016475  1
  Zn  Zn86  1  0.31707040  0.28036647  0.34087271  1
  Zn  Zn87  1  0.04262134  0.57899840  0.86563246  1
  Zn  Zn88  1  0.10160352  0.91561954  0.54422505  1
  Zn  Zn89  1  0.84617861  1.03204704  0.10618222  1
  Zn  Zn90  1  0.56930716  0.79301785  0.56262002  1
  Zn  Zn91  1  0.57940219  0.60421472  0.80293384  1
  Zn  Zn92  1  0.62555545  0.36864166  0.87411092  1
  Zn  Zn93  1  0.78165248  -0.03970089  -0.02686927  1
  Zn  Zn94  1  0.09355039  0.94691522  0.89093969  1
  Zn  Zn95  1  0.11947346  0.23916332  0.62772490  1
  Zn  Zn96  1  0.87248876  0.66070149  0.50796233  1
  Zn  Zn97  1  0.32687322  0.55239805  0.63064326  1
  Zn  Zn98  1  0.49062837  0.26730878  0.26831284  1
  Zn  Zn99  1  0.68086016  0.18929899  0.20664760  1
  Zn  Zn100  1  0.27528136  0.93434344  0.20433450  1
  Zn  Zn101  1  0.20197401  0.69833052  0.61288018  1
  O  O102  1  0.07505184  0.13249811  0.06093538  1
  O  O103  1  0.11053281  0.12640876  0.59812247  1
  O  O104  1  0.12092948  0.63492295  0.22494427  1
  O  O105  1  0.10995768  0.64014925  0.60074659  1
  O  O106  1  0.63047984  0.13082359  0.12726062  1
  O  O107  1  0.57348937  0.10516366  0.56676825  1
  O  O108  1  0.58722332  0.65964960  0.10403330  1
  O  O109  1  0.54292511  0.57715121  0.63902309  1
  O  O110  1  0.34419006  0.36682605  0.43189172  1
  O  O111  1  0.39654122  0.35492199  1.00998107  1
  O  O112  1  0.28345785  0.94153737  0.31559795  1
  O  O113  1  0.23248698  0.77529650  0.99254759  1
  O  O114  1  0.84966462  0.41428234  0.35585813  1
  O  O115  1  0.90868970  0.36438514  0.90456447  1
  O  O116  1  0.88160259  0.86079522  0.40042969  1
  O  O117  1  0.90786405  0.83331939  0.90393269  1
  O  O118  1  0.21702413  0.08337772  0.44506694  1
  O  O119  1  0.20436435  -0.04908100  0.86571209  1
  O  O120  1  0.28654576  0.49619164  0.44408946  1
  O  O121  1  0.24118023  0.50442365  0.83203023  1
  O  O122  1  0.73548370  -0.02153897  0.34868962  1
  O  O123  1  0.76645527  -0.02218631  0.86571023  1
  O  O124  1  0.74627206  0.53258888  0.38972817  1
  O  O125  1  0.70455961  0.44615310  0.85287550  1
  O  O126  1  0.23274385  0.54432898  0.18025556  1
  O  O127  1  0.23979160  0.46868997  0.66054518  1
  O  O128  1  0.17354557  0.93026134  0.14350958  1
  O  O129  1  0.26406500  1.05935179  0.70528909  1
  O  O130  1  0.73043427  0.50681834  0.09727299  1
  O  O131  1  0.70725657  0.46996619  0.63628914  1
  O  O132  1  0.70597695  0.93122944  0.14081765  1
  O  O133  1  0.77776823  1.01861079  0.65915574  1
  O  O134  1  -0.01074535  0.39771172  0.26775597  1
  O  O135  1  -0.02505700  0.39506732  0.76949101  1
  O  O136  1  0.04310794  0.85794161  0.30809079  1
  O  O137  1  -0.00108410  0.81480937  0.77294586  1
  O  O138  1  0.51415006  0.37724109  0.23528905  1
  O  O139  1  0.48436490  0.27339441  0.67513387  1
  O  O140  1  0.44850083  0.92609359  0.29502857  1
  O  O141  1  0.52411823  0.88780620  0.74433395  1
  O  O142  1  0.52121463  0.15621714  0.22696368  1
  O  O143  1  0.38384606  0.22959334  0.82184301  1
  O  O144  1  0.46107748  0.57694927  0.15833784  1
  O  O145  1  0.50534497  0.67501642  0.74846873  1
  O  O146  1  1.00236431  0.20154504  0.20419597  1
  O  O147  1  1.00833987  0.06061919  0.68538649  1
  O  O148  1  1.08182447  0.64817924  0.36895699  1
  O  O149  1  0.95362247  0.56187575  0.78804954  1
  O  O150  1  0.32611502  0.22044514  -0.01460566  1
  O  O151  1  0.39133712  0.18703968  0.51301805  1
  O  O152  1  0.29929058  0.80050571  0.01054070  1
  O  O153  1  0.35278560  0.70490778  0.46320874  1
  O  O154  1  0.93913377  0.29966749  -0.10041246  1
  O  O155  1  0.82136556  0.16762227  0.48677627  1
  O  O156  1  0.87708682  0.74751926  0.02077632  1
  O  O157  1  0.89046284  0.77533827  0.50961669  1
  O  O158  1  0.12365763  0.26588904  0.51751114  1
  O  O159  1  0.17623836  0.21703383  0.98170607  1
  O  O160  1  0.14526297  0.78777457  0.53884517  1
  O  O161  1  0.11158800  0.70767921  1.05804814  1
  O  O162  1  0.65829830  0.20273615  0.46952783  1
  O  O163  1  0.66867500  0.19468917  0.99833854  1
  O  O164  1  0.63969437  0.79251417  0.47139802  1
  O  O165  1  0.59737958  0.75950867  0.99295122  1
  O  O166  1  0.51828056  0.25616824  0.10066412  1
  O  O167  1  0.39272931  0.18850349  0.76496552  1
  O  O168  1  0.45897622  0.75031625  0.12430464  1
  O  O169  1  0.49547511  0.77486783  0.64903572  1
  O  O170  1  1.00711182  0.33318611  0.11472322  1
  O  O171  1  1.00177578  0.20319175  0.62976497  1
  O  O172  1  1.03932846  0.83464727  0.24170449  1
  O  O173  1  1.05813192  0.90092795  0.64301804  1
  O  O174  1  -0.06622360  0.27745667  0.38304881  1
  O  O175  1  0.11637749  0.32092195  0.85540857  1
  O  O176  1  -0.08950492  0.74771971  0.29211321  1
  O  O177  1  0.01529174  0.69326276  0.87758174  1
  O  O178  1  0.55183270  0.26590838  0.36707942  1
  O  O179  1  0.53559556  0.24101824  0.93151990  1
  O  O180  1  0.50693714  0.74693850  0.38811110  1
  O  O181  1  0.50537062  0.77912177  0.86638839  1
  O  O182  1  0.26760541  0.08080965  0.49416778  1
  O  O183  1  0.21449197  0.09396797  1.00930008  1
  O  O184  1  0.25049775  0.60558338  0.57125661  1
  O  O185  1  0.25487992  0.61243599  0.92449586  1
  O  O186  1  0.70736005  0.03551564  0.50765404  1
  O  O187  1  0.74604698  0.05865285  1.03390660  1
  O  O188  1  0.75255150  0.65416595  0.50608665  1
  O  O189  1  0.71936089  0.64861898  1.01606213  1
  O  O190  1  0.26159290  0.49575038  0.04290593  1
  O  O191  1  0.22262980  0.38353417  0.55777631  1
  O  O192  1  0.17424290  0.89943224  0.07576636  1
  O  O193  1  0.29977015  0.85517435  0.46892852  1
  O  O194  1  0.82078398  0.17133229  -0.17092933  1
  O  O195  1  0.75036421  0.39150453  0.51262224  1
  O  O196  1  0.76421227  0.85841919  0.02735601  1
  O  O197  1  0.78850443  0.88271098  0.51032444  1
  O  O198  1  0.12919997  0.49158082  0.30322386  1
  O  O199  1  0.03407395  0.50691856  0.63483215  1
  O  O200  1  0.13359929  1.01167851  0.29525777  1
  O  O201  1  0.14834255  1.02075270  0.75149372  1
  O  O202  1  0.61576463  0.47042287  0.18117211  1
  O  O203  1  0.57982369  0.34466812  0.77321130  1
  O  O204  1  0.62903607  1.00112522  0.23428898  1
  O  O205  1  0.65759356  0.97108680  0.75287426  1
  O  O206  1  0.34790545  0.02625907  0.20327512  1
  O  O207  1  0.34319714  -0.03691156  0.77962078  1
  O  O208  1  0.39477020  0.48161427  0.35179662  1
  O  O209  1  0.40129467  0.49512312  0.69443513  1
  O  O210  1  0.80156178  0.02507833  0.21268656  1
  O  O211  1  0.88030814  -0.05959855  0.75442125  1
  O  O212  1  0.84708267  0.51343929  0.20658506  1
  O  O213  1  0.79192246  0.54644253  0.76602434  1
  O  O214  1  0.14954423  0.36750970  0.39155396  1
  O  O215  1  0.09495398  0.47671518  0.84355299  1
  O  O216  1  0.18016576  0.80296163  0.32850955  1
  O  O217  1  0.08096061  0.84071785  0.91240924  1
  O  O218  1  0.61852871  0.42659803  0.34984279  1
  O  O219  1  0.67832062  0.26304440  0.86553177  1
  O  O220  1  0.62956599  0.85516342  0.41713292  1
  O  O221  1  0.61331396  0.89063941  0.90056120  1
  O  O222  1  0.40058515  0.15324534  0.12948814  1
  O  O223  1  0.42958373  0.08495132  0.63918146  1
  O  O224  1  0.37399475  0.66610156  0.05319671  1
  O  O225  1  0.39676234  0.64437347  0.62602769  1
  O  O226  1  0.88139412  0.13450019  0.13926790  1
  O  O227  1  0.90762843  0.08907793  0.59874908  1
  O  O228  1  0.96694267  0.65550322  0.22394662  1
  O  O229  1  0.84566683  0.68208024  0.63569124  1
  O  O230  1  0.25725208  0.34570415  0.08389998  1
  O  O231  1  0.23983623  0.26022284  0.64226566  1
  O  O232  1  0.28928103  0.72690812  0.16546996  1
  O  O233  1  0.28483534  0.77762770  0.61545075  1
  O  O234  1  0.82170071  0.24616591  -0.00124154  1
  O  O235  1  0.79615243  0.29385707  0.61144183  1
  O  O236  1  0.73170101  0.75180953  0.14247949  1
  O  O237  1  0.79291219  0.72819884  0.65113047  1
  O  O238  1  0.24592863  0.24065223  0.41436940  1
  O  O239  1  0.25924449  0.36478177  0.92262981  1
  O  O240  1  0.28494565  0.70331083  0.44487132  1
  O  O241  1  0.26218804  0.71047939  0.82522773  1
  O  O242  1  0.73158645  0.29620976  0.38130713  1
  O  O243  1  0.83260620  0.21885551  0.77670902  1
  O  O244  1  0.73951409  0.72915432  0.36333300  1
  O  O245  1  0.72147889  0.77923619  0.89576046  1
  O  O246  1  0.04336363  0.19092635  -0.06118150  1
  O  O247  1  -0.01132515  0.14228812  0.49977018  1
  O  O248  1  0.04081983  0.68810742  0.08444115  1
  O  O249  1  0.11490737  0.75648954  0.47368194  1
  O  O250  1  0.52070420  0.11153048  0.03231225  1
  O  O251  1  0.57164861  0.06840899  0.41511164  1
  O  O252  1  0.50428447  0.61404841  -0.00072625  1
  O  O253  1  0.53031958  0.68478466  0.54211815  1
  O  O254  1  0.45461070  0.21490204  0.52678188  1
  O  O255  1  0.53915003  0.40408859  0.93434224  1
  O  O256  1  0.50179772  0.89485795  0.49657050  1
  O  O257  1  0.47323891  0.90636028  1.01428852  1
  O  O258  1  0.99847126  0.40972735  0.43076753  1
  O  O259  1  1.05064227  0.40054245  0.98326849  1
  O  O260  1  0.99169645  0.88466549  0.48768942  1
  O  O261  1  0.99646320  0.84886086  1.04537749  1
  O  O262  1  0.46457548  0.40156629  0.46633673  1
  O  O263  1  0.51149415  0.53537370  0.86063047  1
  O  O264  1  0.47739002  1.00025124  0.31771437  1
  O  O265  1  0.48576048  1.01866425  0.90466830  1
  O  O266  1  0.95024057  0.53361644  0.33922060  1
  O  O267  1  1.04411288  0.56361233  0.98058343  1
  O  O268  1  1.06690516  1.03783281  0.28533461  1
  O  O269  1  1.02226700  0.99121591  0.82211656  1
  O  O270  1  -0.02982954  -0.01284997  0.17831546  1
  O  O271  1  0.03970090  0.01900066  0.54847001  1
  O  O272  1  0.04278076  0.52605254  0.14972651  1
  O  O273  1  -0.03087250  0.61483276  0.53290496  1
  O  O274  1  0.49923579  0.00761939  0.13433561  1
  O  O275  1  0.46113518  0.04397381  0.68862142  1
  O  O276  1  0.52329136  0.45960107  0.06772931  1
  O  O277  1  0.54259313  0.42174643  0.63528952  1
  O  O278  1  0.25454635  0.35670927  0.28303471  1
  O  O279  1  0.23724746  0.36501043  0.75866717  1
  O  O280  1  0.19349472  0.80610395  0.25915808  1
  O  O281  1  0.23677879  0.90160052  0.73855878  1
  O  O282  1  0.73051163  0.41434415  0.24146784  1
  O  O283  1  0.76377256  0.38102330  0.72824466  1
  O  O284  1  0.77061895  0.86762744  0.24650551  1
  O  O285  1  0.75116784  0.85947287  0.75402542  1
  O  O286  1  0.25891369  0.15704395  0.20365969  1
  O  O287  1  0.27656524  0.06475629  0.84671225  1
  O  O288  1  0.30553050  0.64905441  0.30682377  1
  O  O289  1  0.26329754  0.60523931  0.72108075  1
  O  O290  1  0.78581101  0.21044238  0.24000870  1
  O  O291  1  0.78560955  0.06324563  0.72045128  1
  O  O292  1  0.70992081  0.59329868  0.23195912  1
  O  O293  1  0.63091646  0.52144802  0.74030918  1
  O  O294  1  0.34992905  0.10184859  0.32825866  1
  O  O295  1  0.45437998  0.07868408  0.87738385  1
  O  O296  1  0.44276382  0.54702909  0.45609100  1
  O  O297  1  0.35469447  0.59168109  0.82502601  1
  O  O298  1  0.91838014  0.13594677  0.30969643  1
  O  O299  1  0.98598229  0.16532364  0.80244053  1
  O  O300  1  0.84781763  0.63076847  0.39637950  1
  O  O301  1  0.85392373  0.59233886  0.91253053  1
  O  O302  1  0.16604826  0.42338246  0.17851067  1
  O  O303  1  0.13408313  0.35366095  0.66711015  1
  O  O304  1  0.02965917  0.96941095  0.14475887  1
  O  O305  1  0.21038361  0.92496247  0.57771099  1
  O  O306  1  0.65593561  0.37725806  0.04701398  1
  O  O307  1  0.64777770  0.23795978  0.67004313  1
  O  O308  1  0.56677966  0.87034020  0.14711484  1
  O  O309  1  0.63541044  0.85868226  0.63178043  1
  O  O310  1  0.10377698  0.30530401  0.24996848  1
  O  O311  1  0.11645414  0.20393812  0.73845051  1
  O  O312  1  0.14957338  0.66585381  0.36396588  1
  O  O313  1  0.18107946  0.75025874  0.71153831  1
  O  O314  1  0.64376522  0.29358076  0.25206535  1
  O  O315  1  0.56637248  0.17866358  0.79619451  1
  O  O316  1  0.60904155  0.74788580  0.27395813  1
  O  O317  1  0.61908951  0.78475941  0.78045515  1
  O  O318  1  0.38407279  0.23340982  0.26927063  1
  O  O319  1  0.41428734  0.39693962  0.79451489  1
  O  O320  1  0.37347593  0.66692898  0.30364103  1
  O  O321  1  0.39019439  0.80559233  0.75895553  1
  O  O322  1  0.89441450  0.29474022  0.22012376  1
  O  O323  1  0.98492617  0.32588997  0.74582861  1
  O  O324  1  0.90348242  0.69060530  0.23841855  1
  O  O325  1  0.85399805  0.69999673  0.79666980  1
  O  O326  1  0.37033451  0.47881196  0.54986654  1
  O  O327  1  0.40902251  0.50534690  0.96682505  1
  O  O328  1  0.37215403  0.99171748  0.43374392  1
  O  O329  1  0.38166930  1.03294443  1.02118688  1
  O  O330  1  0.87742791  0.50499917  0.48073401  1
  O  O331  1  0.91295095  0.59138537  1.06782235  1
  O  O332  1  0.87825627  0.97995608  0.49238095  1
  O  O333  1  0.87995407  0.95700095  1.02865030  1
  O  O334  1  0.09104025  0.03145456  -0.03471061  1
  O  O335  1  0.12825982  -0.06904736  0.44149088  1
  O  O336  1  0.11143472  0.39903849  0.01903357  1
  O  O337  1  0.10729987  0.52283641  0.48436427  1
  O  O338  1  0.60613651  -0.00836325  0.04077352  1
  O  O339  1  0.50076256  -0.04301594  0.53142157  1
  O  O340  1  0.61998386  0.53380125  -0.00844274  1
  O  O341  1  0.61181068  0.50681219  0.51921520  1
  O  O342  1  0.35454960  0.44191852  0.16404642  1
  O  O343  1  0.33686406  0.35339643  0.65439587  1
  O  O344  1  0.34972727  0.86598524  0.14551519  1
  O  O345  1  0.37013775  0.91573137  0.60862404  1
  O  O346  1  0.83402006  0.30789945  0.03073955  1
  O  O347  1  0.86938082  0.44317187  0.62948689  1
  O  O348  1  0.86850827  0.84383593  0.13447866  1
  O  O349  1  0.90659180  0.87867607  0.60294163  1
  O  O350  1  0.09675705  0.19869193  0.37638439  1
  O  O351  1  0.13427218  0.11754662  0.87033071  1
  O  O352  1  0.04881351  0.72571554  0.47860761  1
  O  O353  1  0.15172881  0.61533596  0.81411750  1
  O  O354  1  0.65980442  0.15364654  0.31581706  1
  O  O355  1  0.62893694  0.08894285  0.91629666  1
  O  O356  1  0.62487839  0.64299518  0.40368707  1
  O  O357  1  0.62035826  0.65946511  0.89298359  1
