# generated using pymatgen
data_V51Zn51O256
_symmetry_space_group_name_H-M   'P 1'
_cell_length_a   17.25122950
_cell_length_b   17.28894616
_cell_length_c   17.60850711
_cell_angle_alpha   90.92542449
_cell_angle_beta   91.29803490
_cell_angle_gamma   87.10718022
_symmetry_Int_Tables_number   1
_chemical_formula_structural   V51Zn51O256
_chemical_formula_sum   'V51 Zn51 O256'
_cell_volume   5243.20464011
_cell_formula_units_Z   1
loop_
 _symmetry_equiv_pos_site_id
 _symmetry_equiv_pos_as_xyz
  1  'x, y, z'
loop_
 _atom_site_type_symbol
 _atom_site_label
 _atom_site_symmetry_multiplicity
 _atom_site_fract_x
 _atom_site_fract_y
 _atom_site_fract_z
 _atom_site_occupancy
  V  V0  1  0.44905526  0.64122072  0.19265998  1
  V  V1  1  0.15158741  0.61026368  0.50717141  1
  V  V2  1  0.00352377  0.48542533  0.03194602  1
  V  V3  1  0.52081470  0.86355167  0.36799977  1
  V  V4  1  0.00688551  0.19168198  0.61186367  1
  V  V5  1  0.62350496  0.50748282  0.14158247  1
  V  V6  1  0.67419506  0.84971961  0.26168771  1
  V  V7  1  -0.07709087  0.38019349  0.88396807  1
  V  V8  1  -0.04240846  0.37253124  0.36104565  1
  V  V9  1  0.71419123  0.25770861  -0.01233865  1
  V  V10  1  0.33621126  0.88527742  0.51283464  1
  V  V11  1  0.40737586  0.13811312  0.72201237  1
  V  V12  1  0.53052186  -0.01022128  0.49706180  1
  V  V13  1  0.64468865  0.17573828  0.49285874  1
  V  V14  1  0.75072993  0.89411540  0.08937343  1
  V  V15  1  0.47857838  0.41977408  0.85297960  1
  V  V16  1  0.47701708  0.80761692  0.71377661  1
  V  V17  1  0.48312888  0.02978268  -0.03725311  1
  V  V18  1  0.82895588  0.13823986  0.75944777  1
  V  V19  1  0.59265120  0.73557310  0.93677599  1
  V  V20  1  0.38384319  0.93525412  0.03910634  1
  V  V21  1  0.60778074  0.13895919  -0.03467208  1
  V  V22  1  0.72171786  0.61630772  0.86048777  1
  V  V23  1  0.76809519  0.64739119  0.37091961  1
  V  V24  1  0.64459013  0.01365688  0.17439458  1
  V  V25  1  0.73497836  0.36241254  0.15701757  1
  V  V26  1  0.39967175  -0.00701018  0.35548108  1
  V  V27  1  0.13646373  0.22670785  0.86694078  1
  V  V28  1  0.89998952  0.61636824  0.23546173  1
  V  V29  1  0.88303434  0.51346406  0.41048796  1
  V  V30  1  0.85512485  0.12523843  0.26464974  1
  V  V31  1  0.75510546  0.71100425  0.02303577  1
  V  V32  1  0.84857547  0.34297243  0.02390696  1
  V  V33  1  0.22717855  0.46373450  0.26103308  1
  V  V34  1  0.04583797  0.72366179  0.22256733  1
  V  V35  1  0.79544454  0.75404567  0.50641750  1
  V  V36  1  0.01911508  0.87782010  0.40541591  1
  V  V37  1  0.12146581  0.04904845  -0.05709940  1
  V  V38  1  0.58719128  0.37457228  0.25859624  1
  V  V39  1  0.25681385  0.05811771  0.67775517  1
  V  V40  1  0.25098646  0.09889522  0.36282363  1
  V  V41  1  0.35927503  0.65579853  0.73324934  1
  V  V42  1  0.12896576  0.88197367  0.21666313  1
  V  V43  1  0.36180262  0.29396695  0.10081917  1
  V  V44  1  0.87872954  0.00082200  0.42149781  1
  V  V45  1  0.44566832  0.51535544  0.46776397  1
  V  V46  1  0.13385144  0.39184884  0.75728370  1
  V  V47  1  0.63163632  0.44063871  0.78490573  1
  V  V48  1  0.71134080  -0.06626007  0.72761781  1
  V  V49  1  -0.03827746  0.21784506  0.78452993  1
  V  V50  1  0.15118458  0.74448570  0.94374165  1
  Zn  Zn51  1  0.80154283  0.34404055  0.74345580  1
  Zn  Zn52  1  0.66215294  0.45950898  0.97257119  1
  Zn  Zn53  1  0.25808175  0.43661930  0.45653917  1
  Zn  Zn54  1  0.83850932  0.11838881  0.55568209  1
  Zn  Zn55  1  0.48404644  0.92603439  0.19049058  1
  Zn  Zn56  1  0.15397524  0.82512795  0.53438473  1
  Zn  Zn57  1  0.93155233  0.19264317  0.41464101  1
  Zn  Zn58  1  0.74467334  0.73209449  0.69034765  1
  Zn  Zn59  1  0.59725781  0.66109277  0.74480247  1
  Zn  Zn60  1  0.29390095  0.33232631  0.81477544  1
  Zn  Zn61  1  0.64159241  0.92444675  0.92746224  1
  Zn  Zn62  1  0.81648675  0.54147541  0.10360179  1
  Zn  Zn63  1  0.82052836  0.59388975  0.56545522  1
  Zn  Zn64  1  0.15694994  0.05366833  0.15853304  1
  Zn  Zn65  1  0.42543272  0.45836870  0.18553026  1
  Zn  Zn66  1  0.06232116  0.31315062  0.03025192  1
  Zn  Zn67  1  0.15798985  0.40734047  0.92552142  1
  Zn  Zn68  1  0.47558870  0.51973952  0.68041406  1
  Zn  Zn69  1  0.53976314  0.32659393  0.40861687  1
  Zn  Zn70  1  0.30411378  0.93542760  0.20510041  1
  Zn  Zn71  1  0.11657388  0.09644077  0.74426352  1
  Zn  Zn72  1  0.31092427  0.58540657  0.58307149  1
  Zn  Zn73  1  0.22023239  0.90145803  0.36753312  1
  Zn  Zn74  1  0.43957472  0.21795922  0.92471150  1
  Zn  Zn75  1  0.42069560  0.96134675  0.66520439  1
  Zn  Zn76  1  -0.04023399  0.37677839  0.69060552  1
  Zn  Zn77  1  0.57050714  0.07486198  0.64273694  1
  Zn  Zn78  1  0.92822521  0.42007491  0.19032384  1
  Zn  Zn79  1  0.70539407  0.91379924  0.44545975  1
  Zn  Zn80  1  0.49023399  0.15565698  0.40141732  1
  Zn  Zn81  1  0.30406533  0.09431564  0.08084166  1
  Zn  Zn82  1  0.68127561  0.20213174  0.23423675  1
  Zn  Zn83  1  0.59464338  0.71844495  0.13066642  1
  Zn  Zn84  1  0.55806774  0.34672063  0.05571891  1
  Zn  Zn85  1  0.18096766  0.25081560  0.65568779  1
  Zn  Zn86  1  0.06953429  0.01794329  0.32380228  1
  Zn  Zn87  1  0.04600636  0.55171996  0.33669839  1
  Zn  Zn88  1  0.24631665  0.67683588  0.23411412  1
  Zn  Zn89  1  0.36443741  0.08673180  0.52798325  1
  Zn  Zn90  1  0.59823462  0.81526824  0.56072364  1
  Zn  Zn91  1  0.49358206  0.61456191  0.88942043  1
  Zn  Zn92  1  0.88714661  0.79311246  0.33777875  1
  Zn  Zn93  1  0.86384928  0.59215596  0.95636642  1
  Zn  Zn94  1  0.86104143  0.79105582  0.16298519  1
  Zn  Zn95  1  0.35226075  0.29417466  0.32673832  1
  Zn  Zn96  1  0.70363406  0.46882819  0.32447708  1
  Zn  Zn97  1  0.58274130  0.70374478  0.30754736  1
  Zn  Zn98  1  0.29441749  0.79854214  0.65406894  1
  Zn  Zn99  1  0.69821268  0.06687305  0.35720221  1
  Zn  Zn100  1  0.43813389  0.72078938  0.44040894  1
  Zn  Zn101  1  0.75542883  0.11223496  0.09883756  1
  O  O102  1  0.13566530  0.08317184  0.04698241  1
  O  O103  1  0.08958561  0.23705849  0.59100895  1
  O  O104  1  0.22417127  0.70274604  0.10907013  1
  O  O105  1  0.19057895  0.59239781  0.60249812  1
  O  O106  1  0.65360985  0.11533729  0.16544189  1
  O  O107  1  0.60179214  0.15112666  0.57570367  1
  O  O108  1  0.62109044  0.60378448  0.13878153  1
  O  O109  1  0.62466331  0.63831108  0.55221087  1
  O  O110  1  0.45458074  0.26163228  0.37244156  1
  O  O111  1  0.39334611  0.39010418  0.81698732  1
  O  O112  1  0.42101842  0.87258898  0.36027074  1
  O  O113  1  0.34279404  0.79219749  0.91940648  1
  O  O114  1  0.86256915  0.40933720  0.37305569  1
  O  O115  1  0.83161481  0.38833375  0.92873272  1
  O  O116  1  0.90525438  0.89428083  0.39761060  1
  O  O117  1  0.98949123  0.87409352  0.89973799  1
  O  O118  1  0.28615539  -0.00445489  0.35274648  1
  O  O119  1  0.22581464  -0.12988174  0.84009509  1
  O  O120  1  0.25002924  0.49245781  0.36049374  1
  O  O121  1  0.18134303  0.55061304  0.97502325  1
  O  O122  1  0.77210124  -0.01095831  0.40439871  1
  O  O123  1  0.67801058  -0.05942150  0.82231261  1
  O  O124  1  0.77661936  0.53332552  0.37646993  1
  O  O125  1  0.71425213  0.54191316  0.92762110  1
  O  O126  1  0.18517364  0.42668168  0.17966438  1
  O  O127  1  0.25317246  0.39934258  0.57897454  1
  O  O128  1  0.26398537  1.02536923  0.15000824  1
  O  O129  1  0.27326742  1.04312495  0.58428433  1
  O  O130  1  0.72623142  0.48147275  0.13005256  1
  O  O131  1  0.72497886  0.51457231  0.58535093  1
  O  O132  1  0.72851565  1.00084189  0.10589714  1
  O  O133  1  0.75981692  0.92238726  0.64054205  1
  O  O134  1  -0.02548138  0.35533001  0.26778364  1
  O  O135  1  -0.10247124  0.39682160  0.78816220  1
  O  O136  1  0.04503565  0.83050002  0.23046653  1
  O  O137  1  0.08134700  0.72896308  0.87252381  1
  O  O138  1  0.48833277  0.39072457  0.24921710  1
  O  O139  1  0.52552910  0.44423941  0.75593245  1
  O  O140  1  0.54149166  0.86940155  0.26799610  1
  O  O141  1  0.46648184  0.90200578  0.74631782  1
  O  O142  1  0.45994853  0.11689711  0.20426554  1
  O  O143  1  0.50324258  0.11379635  0.72319146  1
  O  O144  1  0.49598890  0.64581245  0.28019901  1
  O  O145  1  0.54543749  0.59947104  0.67399702  1
  O  O146  1  0.93536011  0.04016891  0.24958546  1
  O  O147  1  0.93317379  0.12290262  0.79715642  1
  O  O148  1  1.00799835  0.62112953  0.25709972  1
  O  O149  1  1.06206151  0.61385742  0.82760185  1
  O  O150  1  0.37264426  0.27543449  0.00096117  1
  O  O151  1  0.40963868  0.31815530  0.59877551  1
  O  O152  1  0.32886098  0.73353160  -0.11283634  1
  O  O153  1  0.38242644  0.79817725  0.49674550  1
  O  O154  1  0.82650239  0.24747452  0.01591749  1
  O  O155  1  0.74316211  0.34288680  0.43160059  1
  O  O156  1  0.84929564  0.70296825  -0.00531391  1
  O  O157  1  0.87795178  0.79378902  0.51975949  1
  O  O158  1  0.25492687  0.25132379  0.50000924  1
  O  O159  1  0.11136368  0.23838417  0.95959335  1
  O  O160  1  0.14139431  0.71378108  0.50628610  1
  O  O161  1  0.12344711  0.77114152  1.03513663  1
  O  O162  1  0.61186829  0.27152918  0.47630203  1
  O  O163  1  0.60978056  0.24880095  1.00939392  1
  O  O164  1  0.59660340  0.68744187  0.50781141  1
  O  O165  1  0.63396442  0.74054525  1.03224053  1
  O  O166  1  0.46834851  0.29009586  0.10251791  1
  O  O167  1  0.46381530  0.28302319  0.56655594  1
  O  O168  1  0.48273785  0.71344845  0.13796756  1
  O  O169  1  0.50069662  0.80428242  0.61937317  1
  O  O170  1  1.12631290  0.21723133  0.14383202  1
  O  O171  1  0.95823519  0.25650819  0.68318391  1
  O  O172  1  1.06275025  0.71994359  0.13084591  1
  O  O173  1  1.15141249  0.71516121  0.74979679  1
  O  O174  1  -0.02515364  0.29190378  0.41687399  1
  O  O175  1  -0.04131246  0.27548137  0.86727278  1
  O  O176  1  0.00505182  0.78584703  0.37053487  1
  O  O177  1  0.10246866  0.66005544  0.96859737  1
  O  O178  1  0.49628405  0.16140518  0.24541782  1
  O  O179  1  0.50241560  0.30642264  0.89370873  1
  O  O180  1  0.52550836  0.76085218  0.38885343  1
  O  O181  1  0.49857091  0.71044074  0.95263764  1
  O  O182  1  0.27994022  0.12018095  0.45331619  1
  O  O183  1  0.20538682  0.10272475  1.01075465  1
  O  O184  1  0.25112110  0.63532791  0.48646398  1
  O  O185  1  0.22327381  0.67742131  0.97520761  1
  O  O186  1  0.74469469  0.15892923  0.50253634  1
  O  O187  1  0.71284921  0.14466005  1.00008204  1
  O  O188  1  0.77360980  0.64749105  0.47688754  1
  O  O189  1  0.74537368  0.62234049  1.05740555  1
  O  O190  1  0.26167677  0.39347102  -0.09654256  1
  O  O191  1  0.32670314  0.35851704  0.41637192  1
  O  O192  1  0.30435814  0.90018896  -0.00046960  1
  O  O193  1  0.23912513  0.87376397  0.47447303  1
  O  O194  1  0.72458326  0.36073100  0.02689852  1
  O  O195  1  0.72044254  0.46968948  0.52921646  1
  O  O196  1  0.72846908  0.89133791  -0.00550585  1
  O  O197  1  0.71391517  0.82392318  0.51217121  1
  O  O198  1  0.13168184  0.47912126  0.29557792  1
  O  O199  1  0.16083640  0.47726910  0.78580740  1
  O  O200  1  0.09860386  0.98488112  0.21554755  1
  O  O201  1  0.18658188  1.00178910  0.71119457  1
  O  O202  1  0.61682169  0.48833869  0.24241840  1
  O  O203  1  0.67358162  0.52586477  0.78300726  1
  O  O204  1  0.65959419  0.99566840  0.27002972  1
  O  O205  1  0.62647203  0.89006764  0.68956396  1
  O  O206  1  0.40252830  -0.02101667  0.25772487  1
  O  O207  1  0.35437349  0.04483933  0.72597637  1
  O  O208  1  0.32662508  0.46161244  0.23491740  1
  O  O209  1  0.36574589  0.55939861  0.67995607  1
  O  O210  1  0.86992104  0.00802489  0.27329346  1
  O  O211  1  0.79347750  -0.01347099  0.75790274  1
  O  O212  1  0.88721117  0.51705321  0.23887685  1
  O  O213  1  0.96920569  0.72593932  0.80990417  1
  O  O214  1  0.15545419  0.35981441  0.44682474  1
  O  O215  1  0.10726874  0.33936904  0.84193988  1
  O  O216  1  0.10663579  0.90385273  0.35303779  1
  O  O217  1  0.11029101  0.83659401  0.92604581  1
  O  O218  1  0.61289514  0.40081362  0.35648387  1
  O  O219  1  0.60786438  0.42066699  0.87826542  1
  O  O220  1  0.64845870  0.86431699  0.36006630  1
  O  O221  1  0.59214801  0.82873652  0.90656995  1
  O  O222  1  0.34659783  0.19531638  0.10718398  1
  O  O223  1  0.38284445  0.15512031  0.62915111  1
  O  O224  1  0.34964360  0.65546563  0.20292432  1
  O  O225  1  0.32398709  0.68767085  0.62742348  1
  O  O226  1  0.83781699  0.13498228  0.16789166  1
  O  O227  1  0.82020341  0.11821386  0.66413186  1
  O  O228  1  0.88450105  0.62938114  0.14163089  1
  O  O229  1  0.95797129  0.72731948  0.87792880  1
  O  O230  1  0.26538941  0.32293713  0.08708726  1
  O  O231  1  0.26950916  0.25511575  0.56928206  1
  O  O232  1  0.32196060  0.75444955  0.04911952  1
  O  O233  1  0.18846459  0.81434883  0.63478297  1
  O  O234  1  0.73363431  0.26357542  0.15177918  1
  O  O235  1  0.79099993  0.30112122  0.58858814  1
  O  O236  1  0.76152580  0.77975238  0.10449036  1
  O  O237  1  0.80495382  0.69718514  0.60616585  1
  O  O238  1  0.27659617  0.20342432  0.32279502  1
  O  O239  1  0.23124115  0.23762744  0.85636920  1
  O  O240  1  0.28684086  0.72695366  0.34289706  1
  O  O241  1  0.23035328  0.80221337  0.96858163  1
  O  O242  1  0.76544208  0.28210037  0.40124648  1
  O  O243  1  0.71689212  0.26973471  0.89782512  1
  O  O244  1  0.80371757  0.74716433  0.39504433  1
  O  O245  1  0.71507939  0.70826306  0.92121145  1
  O  O246  1  0.02955529  0.02658441  -0.05359481  1
  O  O247  1  -0.05843618  0.17434095  0.53478066  1
  O  O248  1  0.04066718  0.57151486  0.02582108  1
  O  O249  1  0.06298803  0.61014637  0.55067333  1
  O  O250  1  0.49958317  0.13862325  -0.01582207  1
  O  O251  1  0.47475883  0.08666706  0.49109919  1
  O  O252  1  0.32809103  0.61127988  0.01142088  1
  O  O253  1  0.42395384  0.61981052  0.48620989  1
  O  O254  1  0.47085228  0.41789658  0.45132177  1
  O  O255  1  0.49069603  0.36570518  0.94888390  1
  O  O256  1  0.54203197  0.88047419  0.48183157  1
  O  O257  1  0.47129427  0.92462817  0.98659185  1
  O  O258  1  1.10368626  0.36537995  0.49517591  1
  O  O259  1  0.94826326  0.33895822  1.01055857  1
  O  O260  1  1.05493307  0.86464947  0.49643983  1
  O  O261  1  1.02385996  0.87326490  0.83559130  1
  O  O262  1  0.41285921  0.52375497  0.37588338  1
  O  O263  1  0.46170148  0.50771396  0.89533901  1
  O  O264  1  0.50727675  0.97969747  0.38650110  1
  O  O265  1  0.45716805  1.03305067  0.87434927  1
  O  O266  1  0.99101343  0.46952104  0.38901413  1
  O  O267  1  0.97630743  0.45472277  0.91093534  1
  O  O268  1  0.99295088  0.99386284  0.39959143  1
  O  O269  1  1.08512224  0.91179437  0.82736592  1
  O  O270  1  0.02238705  -0.14907611  0.04512448  1
  O  O271  1  0.03321779  0.11039849  0.66199818  1
  O  O272  1  0.00339262  0.46116602  0.12613970  1
  O  O273  1  -0.14704000  0.39864635  0.65079785  1
  O  O274  1  0.55018533  -0.00070155  0.14488603  1
  O  O275  1  0.50627617  -0.01050396  0.59886435  1
  O  O276  1  0.47228895  0.54552622  0.15533520  1
  O  O277  1  0.46331452  0.49524081  0.56951370  1
  O  O278  1  0.24823289  0.36440124  0.29029867  1
  O  O279  1  0.21602410  0.33302286  0.72288406  1
  O  O280  1  0.22996646  0.87347491  0.25773104  1
  O  O281  1  0.24874487  0.82800061  0.78958019  1
  O  O282  1  0.74550173  0.38382178  0.25070686  1
  O  O283  1  0.69531134  0.36905454  0.74985765  1
  O  O284  1  0.77163299  0.83881017  0.26746527  1
  O  O285  1  0.75167818  0.83881147  0.75026558  1
  O  O286  1  0.27912690  0.14498769  0.26786151  1
  O  O287  1  0.21358678  0.15133482  0.69731631  1
  O  O288  1  0.22999884  0.55840882  0.22749045  1
  O  O289  1  0.27810743  0.66783953  0.78271556  1
  O  O290  1  0.75497224  0.14255504  0.29856689  1
  O  O291  1  0.65869941  0.02016996  0.70043296  1
  O  O292  1  0.80650266  0.65113106  0.27636296  1
  O  O293  1  0.70995833  0.66510256  0.76601301  1
  O  O294  1  0.40070532  0.09127054  0.36030667  1
  O  O295  1  0.38946192  0.17577741  0.83115131  1
  O  O296  1  0.36097170  0.72408872  0.34496166  1
  O  O297  1  0.43225798  0.63680668  0.79887326  1
  O  O298  1  0.87746557  0.09991346  0.39047743  1
  O  O299  1  0.75634101  0.12173160  0.81394922  1
  O  O300  1  0.90875089  0.60131990  0.37977150  1
  O  O301  1  0.82267794  0.61046013  0.85630231  1
  O  O302  1  0.06077329  0.26086468  0.12969422  1
  O  O303  1  0.06229484  0.40271097  0.68551280  1
  O  O304  1  0.14898219  0.85241506  0.12894236  1
  O  O305  1  0.08790169  0.99287472  0.57132525  1
  O  O306  1  0.62311474  0.37372884  0.15458899  1
  O  O307  1  0.65275972  0.38009152  0.58476970  1
  O  O308  1  0.66840522  0.89354792  0.16253466  1
  O  O309  1  0.64515150  0.75547459  0.64394106  1
  O  O310  1  0.12010654  0.16229018  0.19546217  1
  O  O311  1  0.06623620  0.21168520  0.77903122  1
  O  O312  1  0.14204241  0.70509525  0.25741308  1
  O  O313  1  0.20364213  0.74247707  0.86097031  1
  O  O314  1  0.60405099  0.27504936  0.26877605  1
  O  O315  1  0.61523799  0.42460626  0.62679949  1
  O  O316  1  0.64236911  0.75725694  0.23077605  1
  O  O317  1  0.54229827  0.75828383  0.77011663  1
  O  O318  1  0.36035951  0.29191941  0.20240600  1
  O  O319  1  0.37811484  0.23386838  0.77170925  1
  O  O320  1  0.26527969  0.76196032  0.09376263  1
  O  O321  1  0.38146094  0.76579073  0.72565822  1
  O  O322  1  0.91129817  0.19790506  0.29328881  1
  O  O323  1  0.84512574  0.24010674  0.76897565  1
  O  O324  1  0.92401521  0.74193841  0.23828721  1
  O  O325  1  1.03936499  0.59505158  0.88833245  1
  O  O326  1  0.34269962  0.50144943  0.50662139  1
  O  O327  1  0.31369999  0.58891193  0.94700140  1
  O  O328  1  0.38034399  0.96448515  0.47299009  1
  O  O329  1  0.38848667  1.04092861  1.02582704  1
  O  O330  1  0.88207601  0.51785151  0.50840040  1
  O  O331  1  0.89233948  0.51140899  1.02436223  1
  O  O332  1  0.88098735  1.01469685  0.51656979  1
  O  O333  1  1.05957203  0.90104730  1.02241986  1
  O  O334  1  0.15474743  -0.04562947  -0.06201019  1
  O  O335  1  0.09761414  0.03470607  0.51751450  1
  O  O336  1  0.09019400  0.41701987  0.00679954  1
  O  O337  1  0.17055845  0.50777790  0.49141030  1
  O  O338  1  0.59378733  0.02589023  -0.03556881  1
  O  O339  1  0.62779284  -0.00035862  0.49792997  1
  O  O340  1  0.58300369  0.46439958  0.05222596  1
  O  O341  1  0.53771549  0.54525632  0.46134969  1
  O  O342  1  0.37944172  0.39769533  0.09937438  1
  O  O343  1  0.27007286  0.44352856  0.63327148  1
  O  O344  1  0.39093735  0.89753545  0.13233737  1
  O  O345  1  0.33993652  0.89583530  0.61280443  1
  O  O346  1  0.84269706  0.37500278  0.12349751  1
  O  O347  1  0.84030060  0.35147883  0.57985775  1
  O  O348  1  0.84839854  0.89325704  0.11076582  1
  O  O349  1  1.09405645  0.75715366  0.75621530  1
  O  O350  1  0.15319042  0.08875477  0.35426691  1
  O  O351  1  0.13490489  0.11269703  0.85772269  1
  O  O352  1  0.11295014  0.60311644  0.41306349  1
  O  O353  1  0.18915792  0.57464734  1.03863712  1
  O  O354  1  0.60997595  0.12836353  0.40621696  1
  O  O355  1  0.60894429  0.15518412  0.87618138  1
  O  O356  1  0.67162423  0.65392959  0.35746423  1
  O  O357  1  0.60143663  0.64674788  0.86742331  1
