# generated using pymatgen
data_V51Zn51O256
_symmetry_space_group_name_H-M   'P 1'
_cell_length_a   17.29945041
_cell_length_b   17.12023049
_cell_length_c   17.21917299
_cell_angle_alpha   89.55271776
_cell_angle_beta   89.58798246
_cell_angle_gamma   89.89825379
_symmetry_Int_Tables_number   1
_chemical_formula_structural   V51Zn51O256
_chemical_formula_sum   'V51 Zn51 O256'
_cell_volume   5099.51763420
_cell_formula_units_Z   1
loop_
 _symmetry_equiv_pos_site_id
 _symmetry_equiv_pos_as_xyz
  1  'x, y, z'
loop_
 _atom_site_type_symbol
 _atom_site_label
 _atom_site_symmetry_multiplicity
 _atom_site_fract_x
 _atom_site_fract_y
 _atom_site_fract_z
 _atom_site_occupancy
  V  V0  1  0.21470077  0.45661683  0.24058979  1
  V  V1  1  0.36924226  0.12020253  0.23628176  1
  V  V2  1  0.60142430  0.00921886  0.60022656  1
  V  V3  1  0.65824959  0.12926066  -0.04954720  1
  V  V4  1  0.77710622  0.24368975  0.00268622  1
  V  V5  1  0.62497223  0.25828794  0.35471614  1
  V  V6  1  0.23543862  0.53761667  0.72997876  1
  V  V7  1  0.49735600  0.16049458  0.60941948  1
  V  V8  1  0.02142263  0.76373379  0.78292969  1
  V  V9  1  0.00446890  0.23660155  0.74759737  1
  V  V10  1  0.36133027  0.01859668  0.40317247  1
  V  V11  1  0.19583971  0.98180654  0.76758379  1
  V  V12  1  0.62066117  0.74902227  0.36384958  1
  V  V13  1  0.49760456  0.25525609  0.23686367  1
  V  V14  1  0.62582254  0.51284263  0.13369669  1
  V  V15  1  0.67812420  0.83741428  0.68351553  1
  V  V16  1  0.13315252  0.37709744  0.73897102  1
  V  V17  1  0.11259094  0.62004129  0.00930682  1
  V  V18  1  0.65189178  0.33596854  0.74244302  1
  V  V19  1  0.38632566  0.85655546  0.49553557  1
  V  V20  1  0.74703021  0.62425919  0.40103369  1
  V  V21  1  0.35877192  0.54724391  0.88678909  1
  V  V22  1  0.36174360  0.24963072  0.64664614  1
  V  V23  1  0.58833180  0.74750453  0.84293873  1
  V  V24  1  0.63379367  0.13548554  0.47889602  1
  V  V25  1  0.76325576  -0.00226219  0.69997987  1
  V  V26  1  0.34817662  0.36696801  0.49348734  1
  V  V27  1  0.11371157  0.75693179  0.33952995  1
  V  V28  1  0.12456444  0.11745484  0.51552127  1
  V  V29  1  0.59259822  0.49351140  0.64852162  1
  V  V30  1  0.72137530  -0.01423696  0.31682979  1
  V  V31  1  0.76844512  0.48761275  0.73205048  1
  V  V32  1  0.74352633  0.62883326  0.86149459  1
  V  V33  1  0.25188504  0.26598080  -0.00135059  1
  V  V34  1  0.50217325  0.46527655  0.50908415  1
  V  V35  1  0.00005425  -0.00420711  0.52798464  1
  V  V36  1  0.37658991  0.65857490  0.70724762  1
  V  V37  1  -0.01367898  0.24372517  0.24316231  1
  V  V38  1  0.87364344  0.62414846  0.23517700  1
  V  V39  1  0.59719528  0.63891128  0.51774210  1
  V  V40  1  0.75540842  0.84809460  0.06336703  1
  V  V41  1  -0.00483277  0.38062796  0.87167775  1
  V  V42  1  0.40550048  0.05048636  0.90289789  1
  V  V43  1  0.24163473  0.14801040  0.37004229  1
  V  V44  1  0.40769280  0.49221284  0.35642403  1
  V  V45  1  0.86512033  0.48998851  0.89461896  1
  V  V46  1  0.75381162  0.50125075  0.24733635  1
  V  V47  1  0.86848050  0.25653310  0.62616324  1
  V  V48  1  0.25673764  0.62806130  0.37970870  1
  V  V49  1  0.26803999  0.90094471  0.61042982  1
  V  V50  1  0.88641749  0.00893144  0.85360896  1
  Zn  Zn51  1  0.42864428  0.18728291  1.06820133  1
  Zn  Zn52  1  0.92375190  0.65867134  0.92942252  1
  Zn  Zn53  1  0.77627510  0.57603527  0.06282663  1
  Zn  Zn54  1  0.32332499  0.30961448  0.31760630  1
  Zn  Zn55  1  0.41250162  0.92278180  0.28313690  1
  Zn  Zn56  1  0.33392490  0.85051446  0.79732606  1
  Zn  Zn57  1  0.02976711  0.33147377  0.07180678  1
  Zn  Zn58  1  0.28547934  0.06502203  0.06138199  1
  Zn  Zn59  1  0.02620515  0.03467196  0.71952560  1
  Zn  Zn60  1  0.61198012  0.47257429  0.34844000  1
  Zn  Zn61  1  0.07330272  0.58438653  0.28889502  1
  Zn  Zn62  1  0.82562118  0.29371151  0.81621483  1
  Zn  Zn63  1  0.71929194  0.49418757  0.51179240  1
  Zn  Zn64  1  0.08503467  0.07965177  0.26656968  1
  Zn  Zn65  1  0.55947641  0.93614107  0.42374648  1
  Zn  Zn66  1  0.80480566  0.30879590  0.29575237  1
  Zn  Zn67  1  0.00627090  0.80114599  -0.01359750  1
  Zn  Zn68  1  0.21565386  0.73803294  0.70774036  1
  Zn  Zn69  1  0.53034491  0.58890124  0.80347830  1
  Zn  Zn70  1  0.18589848  0.93938881  0.44195544  1
  Zn  Zn71  1  0.30879832  0.44955090  0.06322768  1
  Zn  Zn72  1  0.54225460  0.06653430  0.31587559  1
  Zn  Zn73  1  0.18141635  0.17691961  0.70657960  1
  Zn  Zn74  1  0.55824206  0.81830257  0.01814343  1
  Zn  Zn75  1  0.62420465  0.13293454  0.74644829  1
  Zn  Zn76  1  0.71366717  0.17186963  0.22206436  1
  Zn  Zn77  1  0.99302270  0.20735474  0.45503274  1
  Zn  Zn78  1  0.75734485  0.78502345  0.27054154  1
  Zn  Zn79  1  0.71681446  0.40542193  0.92807386  1
  Zn  Zn80  1  0.85161954  0.93905548  0.19966226  1
  Zn  Zn81  1  0.09308373  0.87807820  0.63183390  1
  Zn  Zn82  1  0.09027862  0.28219653  0.58458340  1
  Zn  Zn83  1  0.61629815  0.23896269  0.09977513  1
  Zn  Zn84  1  0.81351065  0.05175991  0.05216403  1
  Zn  Zn85  1  0.43878936  0.66531459  0.43670234  1
  Zn  Zn86  1  0.40014263  0.74703605  0.92673709  1
  Zn  Zn87  1  0.14400319  0.94470031  0.96752111  1
  Zn  Zn88  1  0.29831329  0.09722815  0.57187360  1
  Zn  Zn89  1  0.17841412  0.45349245  0.90518234  1
  Zn  Zn90  1  0.44552789  0.20116329  0.42808614  1
  Zn  Zn91  1  0.27491866  0.83305225  0.34878578  1
  Zn  Zn92  1  0.20109653  0.25274164  0.20829971  1
  Zn  Zn93  1  0.96459057  0.20750682  0.95124725  1
  Zn  Zn94  1  0.81045408  0.03710591  0.49766596  1
  Zn  Zn95  1  0.91661461  0.42732113  0.19918994  1
  Zn  Zn96  1  0.72466530  0.63942127  0.64059972  1
  Zn  Zn97  1  0.32637524  0.34242834  0.80925583  1
  Zn  Zn98  1  0.46221380  0.44009871  0.16975723  1
  Zn  Zn99  1  0.91104043  0.72758902  0.37089156  1
  Zn  Zn100  1  0.93507080  0.40778272  0.68755709  1
  Zn  Zn101  1  0.31742538  0.54996463  0.55548952  1
  O  O102  1  0.15382410  0.12077376  0.16405602  1
  O  O103  1  0.12525932  0.12420976  0.61305567  1
  O  O104  1  0.05037088  0.58164590  0.08311254  1
  O  O105  1  0.11560575  0.67505492  0.55861961  1
  O  O106  1  0.59047547  0.02318698  0.17637883  1
  O  O107  1  0.61111831  0.12122176  0.59102195  1
  O  O108  1  0.66200445  0.59803533  0.09936531  1
  O  O109  1  0.61738133  0.59741728  0.61944563  1
  O  O110  1  0.37637567  0.39422347  0.37449102  1
  O  O111  1  0.36245270  0.43833887  0.84181468  1
  O  O112  1  0.35847723  0.89679465  0.39425252  1
  O  O113  1  0.36447693  0.97150009  0.84776932  1
  O  O114  1  0.85811826  0.34208856  0.39917737  1
  O  O115  1  0.87731028  0.38414593  0.86344954  1
  O  O116  1  0.89923285  0.80084312  0.46368179  1
  O  O117  1  0.85948030  0.91992862  0.88075085  1
  O  O118  1  0.26092296  0.01170960  0.38288770  1
  O  O119  1  0.31980973  0.09351537  0.86745881  1
  O  O120  1  0.28383514  0.48734679  0.32017455  1
  O  O121  1  0.25261294  0.50869675  0.84492255  1
  O  O122  1  0.76012366  -0.00679380  0.40570073  1
  O  O123  1  0.72452780  -0.00958225  0.89306267  1
  O  O124  1  0.70969260  0.52289439  0.39102516  1
  O  O125  1  0.75923961  0.48349620  0.85415839  1
  O  O126  1  0.24476382  0.48242780  0.14958783  1
  O  O127  1  0.26951622  0.49744693  0.64668492  1
  O  O128  1  0.20643839  1.06842969  0.15700616  1
  O  O129  1  0.25029472  0.99971454  0.60909774  1
  O  O130  1  0.75249920  0.48906248  0.14683603  1
  O  O131  1  0.72566771  0.49043985  0.63845538  1
  O  O132  1  0.74880604  0.95519717  0.08328292  1
  O  O133  1  0.79926882  1.01324163  0.61097770  1
  O  O134  1  -0.01839917  0.34824224  0.26001360  1
  O  O135  1  0.01377097  0.37074830  0.75167075  1
  O  O136  1  -0.03999872  0.87201464  0.21992248  1
  O  O137  1  0.05556595  0.85125936  0.82221095  1
  O  O138  1  0.50948862  0.35290621  0.22766322  1
  O  O139  1  0.57757147  0.36369426  0.81781180  1
  O  O140  1  0.49147818  0.83379576  0.27937198  1
  O  O141  1  0.45287759  0.86529517  0.74423177  1
  O  O142  1  0.47209187  0.12490650  0.24842999  1
  O  O143  1  0.52248331  0.13551371  0.70451682  1
  O  O144  1  0.54539653  0.69581449  0.15376533  1
  O  O145  1  0.47360853  0.65357326  0.72392475  1
  O  O146  1  1.00383979  0.14390656  0.21776369  1
  O  O147  1  1.01269130  0.13964274  0.75996588  1
  O  O148  1  0.97270441  0.61973583  0.25899216  1
  O  O149  1  1.00513622  0.66260822  0.77828507  1
  O  O150  1  0.35050677  0.26463846  0.03474412  1
  O  O151  1  0.36738907  0.27204502  0.46195216  1
  O  O152  1  0.46086449  0.77580566  0.01313715  1
  O  O153  1  0.39353782  0.75971496  0.47932219  1
  O  O154  1  0.87387120  0.23802096  0.01635552  1
  O  O155  1  0.89443729  0.22603963  0.50985071  1
  O  O156  1  0.92438910  0.73336388  0.01196637  1
  O  O157  1  0.94727525  0.68601476  0.56150450  1
  O  O158  1  0.09819879  0.22574971  0.49189958  1
  O  O159  1  0.16507166  0.25455227  0.94923842  1
  O  O160  1  0.09362798  0.73017973  0.51850551  1
  O  O161  1  0.08926467  0.72309006  1.00253898  1
  O  O162  1  0.63584849  0.24072109  0.45923129  1
  O  O163  1  0.62172621  0.21602150  0.98821820  1
  O  O164  1  0.58705611  0.73030555  0.53843267  1
  O  O165  1  0.61427683  0.79132357  0.92588954  1
  O  O166  1  0.50758278  0.23057081  0.12725269  1
  O  O167  1  0.47679617  0.25759029  0.61922989  1
  O  O168  1  0.53712197  0.76648167  0.14373553  1
  O  O169  1  0.47825331  0.83113265  0.68671946  1
  O  O170  1  0.96020140  0.26456076  0.14570246  1
  O  O171  1  0.99612723  0.24826354  0.64253033  1
  O  O172  1  0.99609641  0.84024553  0.16606930  1
  O  O173  1  1.04259848  0.77933706  0.68311048  1
  O  O174  1  0.00262050  0.22923059  0.34571346  1
  O  O175  1  -0.01849554  0.26681664  0.85471197  1
  O  O176  1  0.02021614  0.75121809  0.37183318  1
  O  O177  1  -0.02344386  0.75386470  0.87995618  1
  O  O178  1  0.51363990  0.24523150  0.34808016  1
  O  O179  1  0.50702073  0.33024910  0.96200026  1
  O  O180  1  0.50609989  0.71846489  0.34657819  1
  O  O181  1  0.49095918  0.74220058  0.85048678  1
  O  O182  1  0.22596263  0.12840698  0.48311775  1
  O  O183  1  0.25306784  0.16161828  1.00297092  1
  O  O184  1  0.24628921  0.59605006  0.47269647  1
  O  O185  1  0.17183615  0.64259936  1.08639798  1
  O  O186  1  0.72995424  0.12035030  0.49029100  1
  O  O187  1  0.75336088  0.12598967  0.99836558  1
  O  O188  1  0.71701698  0.61600444  0.50995353  1
  O  O189  1  0.73545424  0.60983556  0.96015195  1
  O  O190  1  0.24152931  0.37191561  -0.00106586  1
  O  O191  1  0.25673778  0.38359388  0.48102942  1
  O  O192  1  0.22050954  0.83331473  0.07591940  1
  O  O193  1  0.26355195  0.88193441  0.50722722  1
  O  O194  1  0.74906356  0.34223219  0.01194566  1
  O  O195  1  0.80071152  0.36681395  0.44677742  1
  O  O196  1  0.78775944  0.87973233  -0.02672354  1
  O  O197  1  0.82515177  0.81581538  0.48543555  1
  O  O198  1  0.12124588  0.48688602  0.25930129  1
  O  O199  1  0.14517997  0.48315783  0.74279248  1
  O  O200  1  0.08153128  0.97903489  0.19612633  1
  O  O201  1  0.20331320  1.08131547  0.76147847  1
  O  O202  1  0.64088435  0.50951566  0.24176485  1
  O  O203  1  0.59060480  0.51115078  0.74519730  1
  O  O204  1  0.62008728  0.97241508  0.32372845  1
  O  O205  1  0.66645291  1.03245743  0.69846493  1
  O  O206  1  0.35590265  0.02123783  0.25322424  1
  O  O207  1  0.45706665  0.11158973  0.84134399  1
  O  O208  1  0.42802275  0.50031778  0.26255440  1
  O  O209  1  0.33861024  0.57822554  0.76104846  1
  O  O210  1  0.77560413  -0.09709436  0.27445713  1
  O  O211  1  0.81941905  0.03908527  0.77361101  1
  O  O212  1  0.86596420  0.51111997  0.24967413  1
  O  O213  1  0.86471927  0.49105117  0.71832309  1
  O  O214  1  0.12155823  0.47147415  0.51706491  1
  O  O215  1  0.10249937  0.38937630  0.85955430  1
  O  O216  1  0.16573254  0.84258227  0.37659190  1
  O  O217  1  0.17750076  0.95396719  0.86129475  1
  O  O218  1  0.62346753  0.35666744  0.35408573  1
  O  O219  1  0.64351127  0.33766430  0.85800488  1
  O  O220  1  0.60761242  0.83282063  0.41210102  1
  O  O221  1  0.61746989  0.81384265  0.76310571  1
  O  O222  1  0.35946038  0.12049268  0.13172101  1
  O  O223  1  0.39295620  0.14240554  0.61574929  1
  O  O224  1  0.36973679  0.62730884  0.16011524  1
  O  O225  1  0.35667303  0.64052030  0.61162774  1
  O  O226  1  0.87450262  0.02564708  0.13746566  1
  O  O227  1  0.88427724  0.16181793  0.55920171  1
  O  O228  1  0.85291762  0.62664048  0.13873087  1
  O  O229  1  0.89049141  0.64450967  0.58492084  1
  O  O230  1  0.21592707  0.26505377  0.09447607  1
  O  O231  1  0.26797965  0.20650087  0.63828211  1
  O  O232  1  0.33672622  0.78487104  0.19764871  1
  O  O233  1  0.19392578  0.82622516  0.63844722  1
  O  O234  1  0.72447827  0.21916797  0.11797788  1
  O  O235  1  0.77542044  0.24227079  0.62536791  1
  O  O236  1  0.76105903  0.75862247  0.01850359  1
  O  O237  1  0.83648187  0.68290412  0.62537889  1
  O  O238  1  0.24004501  0.24555859  0.37801876  1
  O  O239  1  0.30226690  0.27602817  0.90662717  1
  O  O240  1  0.28601291  0.72088672  0.36814375  1
  O  O241  1  0.32532186  0.82428352  0.90215637  1
  O  O242  1  0.72479384  0.23594453  0.31936039  1
  O  O243  1  0.76968667  0.24378660  0.89897627  1
  O  O244  1  0.72983043  0.72845190  0.37989510  1
  O  O245  1  0.76491371  0.72090991  0.85095607  1
  O  O246  1  0.04309987  0.22790153  0.02975175  1
  O  O247  1  0.02304101  0.10005642  0.47962243  1
  O  O248  1  0.02552663  0.61395859  -0.05103223  1
  O  O249  1  0.00563258  0.57539375  0.46918959  1
  O  O250  1  0.58378524  0.07717593  0.12940952  1
  O  O251  1  0.51037591  0.14746531  0.50107985  1
  O  O252  1  0.38870837  0.64325397  0.09302187  1
  O  O253  1  0.50192227  0.60146435  0.50619285  1
  O  O254  1  0.49327016  0.37062797  0.50385476  1
  O  O255  1  0.47826648  0.39522088  0.95177453  1
  O  O256  1  0.47631755  0.89131293  0.49353545  1
  O  O257  1  0.50587863  0.92235592  1.07205763  1
  O  O258  1  1.00464369  0.43336546  0.50570959  1
  O  O259  1  0.99914028  0.36809219  0.96902326  1
  O  O260  1  1.03174128  0.89837115  0.54465960  1
  O  O261  1  1.05069147  0.89525408  0.99656724  1
  O  O262  1  0.50643568  0.48917227  0.39609893  1
  O  O263  1  0.45931999  0.54329330  0.87479334  1
  O  O264  1  0.46388468  0.99501370  0.36366926  1
  O  O265  1  0.48327013  0.98556983  0.90172362  1
  O  O266  1  1.03221937  0.52994709  0.42104332  1
  O  O267  1  0.96767856  0.48673963  0.86917606  1
  O  O268  1  0.99822762  1.00921575  0.32515556  1
  O  O269  1  0.97321912  0.99298469  0.81151684  1
  O  O270  1  0.06128528  -0.01016302  0.12719189  1
  O  O271  1  -0.01983331  0.02678165  0.61974612  1
  O  O272  1  -0.02018259  0.42284219  0.11312849  1
  O  O273  1  -0.01701771  0.48250245  0.55273495  1
  O  O274  1  0.49054246  -0.07722166  0.14281198  1
  O  O275  1  0.51023873  0.00213067  0.62118781  1
  O  O276  1  0.52763652  0.52197233  0.13123204  1
  O  O277  1  0.49673106  0.48657750  0.61882823  1
  O  O278  1  0.23426611  0.35393022  0.25230859  1
  O  O279  1  0.22443038  0.35077551  0.76499361  1
  O  O280  1  0.31998994  0.85775651  0.24384015  1
  O  O281  1  0.27279409  0.91879406  0.73269508  1
  O  O282  1  0.75522322  0.41198918  0.29148412  1
  O  O283  1  0.74935394  0.37621781  0.74818723  1
  O  O284  1  0.73795992  0.79886450  0.15441922  1
  O  O285  1  0.75971859  0.89403373  0.71747264  1
  O  O286  1  0.26874178  0.16232425  0.25987329  1
  O  O287  1  0.06401408  0.09885757  0.92337802  1
  O  O288  1  0.25756918  0.56161329  0.28952166  1
  O  O289  1  0.19932606  0.62702127  0.70488649  1
  O  O290  1  0.73718548  0.06628020  0.25774198  1
  O  O291  1  0.69559732  -0.06893085  0.86673100  1
  O  O292  1  0.76766126  0.60608385  0.28247227  1
  O  O293  1  0.74553533  0.58948287  0.75066856  1
  O  O294  1  0.35875212  0.12503901  0.37580347  1
  O  O295  1  0.43632555  0.12270403  0.97712731  1
  O  O296  1  0.36982076  0.59106581  0.38171831  1
  O  O297  1  0.35103777  0.64801909  0.90235513  1
  O  O298  1  0.92868222  0.01189050  0.30387113  1
  O  O299  1  0.90618586  0.10903553  0.91042138  1
  O  O300  1  0.84360963  0.63062875  0.41618511  1
  O  O301  1  0.85780972  0.59742740  0.86782557  1
  O  O302  1  0.12131088  0.36621637  0.11838787  1
  O  O303  1  0.12872675  0.36768930  0.63827013  1
  O  O304  1  0.18459239  0.85549843  0.13340670  1
  O  O305  1  0.11220464  0.95910512  0.71157881  1
  O  O306  1  0.62489791  0.40047645  0.09300292  1
  O  O307  1  0.61426217  0.38633807  0.66136475  1
  O  O308  1  0.65363362  0.86115920  0.06105671  1
  O  O309  1  0.63557371  0.90291336  0.61792091  1
  O  O310  1  0.08870181  0.25627366  0.22784114  1
  O  O311  1  0.10953399  0.25557888  0.74818066  1
  O  O312  1  0.11281352  0.76565414  0.24542802  1
  O  O313  1  0.12296204  0.73689334  0.79272068  1
  O  O314  1  0.60389218  0.22316189  0.24372441  1
  O  O315  1  0.65322381  0.24119090  0.72372301  1
  O  O316  1  0.63885857  0.76668282  0.26890988  1
  O  O317  1  0.70841748  0.75386316  0.64398223  1
  O  O318  1  0.39211804  0.24640645  0.24965511  1
  O  O319  1  0.37248311  0.26692080  0.74269500  1
  O  O320  1  0.46069212  0.76496939  0.29464694  1
  O  O321  1  0.32526875  0.74734774  0.73748533  1
  O  O322  1  0.88817739  0.22297227  0.27201476  1
  O  O323  1  0.88760510  0.24875027  0.73463624  1
  O  O324  1  0.85689088  0.72680634  0.27151864  1
  O  O325  1  0.93191733  0.79777312  0.74892448  1
  O  O326  1  0.38858957  0.47645468  0.50090333  1
  O  O327  1  0.33667647  0.51489433  0.98080861  1
  O  O328  1  0.36987383  1.02574663  0.49861636  1
  O  O329  1  0.36764012  1.01680183  0.99728483  1
  O  O330  1  0.81670287  0.43127456  0.48559269  1
  O  O331  1  0.85266475  0.49637380  0.99096433  1
  O  O332  1  0.91273892  0.99135979  0.48089205  1
  O  O333  1  0.89811960  1.04250625  0.96004120  1
  O  O334  1  0.21847869  -0.01460709  0.03266962  1
  O  O335  1  0.11894745  0.00864780  0.49869717  1
  O  O336  1  0.14171151  0.51954200  -0.01146543  1
  O  O337  1  0.10284194  0.51713132  0.56752110  1
  O  O338  1  0.61056836  0.05468861  -0.01162576  1
  O  O339  1  0.61130862  0.01037095  0.49717264  1
  O  O340  1  0.63361157  0.45161855  0.03292138  1
  O  O341  1  0.60638148  0.47860970  0.52246985  1
  O  O342  1  0.38139784  0.39305684  0.11740666  1
  O  O343  1  0.34977996  0.34102176  0.59951249  1
  O  O344  1  0.36939764  0.79885418  0.13435487  1
  O  O345  1  0.36520749  0.87107570  0.60328493  1
  O  O346  1  0.84225773  0.34279708  0.19371004  1
  O  O347  1  0.88157669  0.35649512  0.60751877  1
  O  O348  1  0.84906754  0.85564148  0.11140729  1
  O  O349  1  0.81735543  0.85838984  0.54464483  1
  O  O350  1  0.14798836  0.11591416  0.34670485  1
  O  O351  1  0.07415340  0.05832829  0.98270523  1
  O  O352  1  0.14990131  0.65054394  0.35034918  1
  O  O353  1  0.18394889  0.63122751  0.93402899  1
  O  O354  1  0.61424819  0.12416505  0.37801835  1
  O  O355  1  0.65281269  0.12359181  0.85055828  1
  O  O356  1  0.61350315  0.64775131  0.40754108  1
  O  O357  1  0.62548344  0.64911588  0.83991809  1
