# generated using pymatgen
data_V51Zn51O256
_symmetry_space_group_name_H-M   'P 1'
_cell_length_a   17.53343259
_cell_length_b   17.55725506
_cell_length_c   17.43116648
_cell_angle_alpha   90.92679039
_cell_angle_beta   90.37679228
_cell_angle_gamma   89.74873978
_symmetry_Int_Tables_number   1
_chemical_formula_structural   V51Zn51O256
_chemical_formula_sum   'V51 Zn51 O256'
_cell_volume   5365.12482076
_cell_formula_units_Z   1
loop_
 _symmetry_equiv_pos_site_id
 _symmetry_equiv_pos_as_xyz
  1  'x, y, z'
loop_
 _atom_site_type_symbol
 _atom_site_label
 _atom_site_symmetry_multiplicity
 _atom_site_fract_x
 _atom_site_fract_y
 _atom_site_fract_z
 _atom_site_occupancy
  V  V0  1  0.88654934  -0.02329536  0.85182423  1
  V  V1  1  0.17712862  0.64749834  0.02594575  1
  V  V2  1  0.10750290  0.74081842  0.34438950  1
  V  V3  1  0.86998750  0.14038943  0.22328652  1
  V  V4  1  0.88932348  0.02574711  0.36422799  1
  V  V5  1  -0.01039688  0.50471809  0.47312587  1
  V  V6  1  0.34295117  0.73725633  0.60567282  1
  V  V7  1  0.23460589  0.11504656  0.86979734  1
  V  V8  1  0.15544584  0.51236734  0.13363878  1
  V  V9  1  0.20011529  0.36850650  0.63656125  1
  V  V10  1  0.02638075  0.24440738  0.24019504  1
  V  V11  1  0.11586367  0.07725334  0.03816070  1
  V  V12  1  0.01263758  0.85929535  0.84181142  1
  V  V13  1  0.76076686  0.88789626  0.12943769  1
  V  V14  1  0.23836965  0.26580756  -0.00454852  1
  V  V15  1  0.12091210  0.88972779  0.21759883  1
  V  V16  1  0.24755256  0.00177489  0.24169955  1
  V  V17  1  0.85741053  0.74457926  0.16094902  1
  V  V18  1  0.08207755  0.23802037  0.88411165  1
  V  V19  1  0.11653095  0.62030815  0.49387006  1
  V  V20  1  0.87110507  0.33409314  0.50666332  1
  V  V21  1  0.91256861  0.63059105  0.79734082  1
  V  V22  1  0.22478017  0.74145973  0.48072615  1
  V  V23  1  0.37926774  0.46116400  0.43407290  1
  V  V24  1  0.45742916  0.12968115  0.59715802  1
  V  V25  1  0.75038132  0.49026272  0.75612835  1
  V  V26  1  0.21455214  0.87451107  0.63176457  1
  V  V27  1  0.59216679  -0.02049444  0.06962417  1
  V  V28  1  0.02537032  0.35028273  0.37799680  1
  V  V29  1  0.89439541  0.88154718  0.48774135  1
  V  V30  1  0.34660981  0.24675153  0.66801990  1
  V  V31  1  0.00418246  0.58118548  0.00693603  1
  V  V32  1  0.32659871  0.91660364  0.45996556  1
  V  V33  1  0.74465695  0.76848091  -0.00267787  1
  V  V34  1  0.37014925  0.10501540  0.18451812  1
  V  V35  1  0.61286596  0.12315837  0.50724798  1
  V  V36  1  0.51853474  0.51936842  0.02030895  1
  V  V37  1  0.08001771  0.40508241  0.79610174  1
  V  V38  1  0.01762468  0.90157295  0.35991852  1
  V  V39  1  0.33968973  0.58366350  0.73757291  1
  V  V40  1  0.75397235  0.11692037  0.87487483  1
  V  V41  1  0.40990064  0.59579397  0.29035957  1
  V  V42  1  0.48799032  0.25256120  0.20970097  1
  V  V43  1  0.22713590  0.49319333  0.81252924  1
  V  V44  1  0.89832568  0.69593125  0.64809526  1
  V  V45  1  0.62788431  0.64351948  -0.01862650  1
  V  V46  1  0.74469585  0.01496976  0.24886929  1
  V  V47  1  0.73782835  -0.04134535  0.74780830  1
  V  V48  1  0.16003524  0.75113892  0.85600618  1
  V  V49  1  0.37040610  0.75774178  0.13528190  1
  V  V50  1  0.60354045  0.13323192  -0.01638006  1
  Zn  Zn51  1  0.19007465  0.72437585  0.17075332  1
  Zn  Zn52  1  0.86370894  -0.02232188  0.63779080  1
  Zn  Zn53  1  0.39747325  0.93858125  0.10880166  1
  Zn  Zn54  1  0.05260522  0.06322453  0.25452866  1
  Zn  Zn55  1  0.30278813  0.06200073  0.57697449  1
  Zn  Zn56  1  0.92903184  0.94140366  0.18955229  1
  Zn  Zn57  1  0.28013682  0.81929789  0.29844207  1
  Zn  Zn58  1  0.72378073  0.96311356  0.95218436  1
  Zn  Zn59  1  0.72571685  0.66592928  0.65081387  1
  Zn  Zn60  1  0.24060170  0.28758625  0.79668106  1
  Zn  Zn61  1  0.54981369  0.08855907  0.27851537  1
  Zn  Zn62  1  0.71316538  0.29627317  0.80627420  1
  Zn  Zn63  1  0.40097201  0.15706347  0.98359667  1
  Zn  Zn64  1  0.82297667  0.06149049  0.06004063  1
  Zn  Zn65  1  0.18111701  0.43281285  0.45515552  1
  Zn  Zn66  1  0.87855058  0.50138227  0.60575601  1
  Zn  Zn67  1  0.73317987  0.98103723  0.45458314  1
  Zn  Zn68  1  0.48417326  0.36110277  0.34098559  1
  Zn  Zn69  1  0.38327470  0.92930344  0.63260695  1
  Zn  Zn70  1  0.18464291  0.65700475  0.67991426  1
  Zn  Zn71  1  0.66007627  0.44741805  0.93189853  1
  Zn  Zn72  1  0.09302574  0.53252931  0.32625525  1
  Zn  Zn73  1  0.18802158  0.18133291  0.16934709  1
  Zn  Zn74  1  0.51334348  0.64175504  0.15246497  1
  Zn  Zn75  1  0.46903725  0.19787685  0.41234331  1
  Zn  Zn76  1  1.00701448  0.40226665  0.63677000  1
  Zn  Zn77  1  0.92943532  0.73663817  0.95950890  1
  Zn  Zn78  1  0.17681085  0.92947760  0.93184839  1
  Zn  Zn79  1  0.69467184  0.27829102  0.59462834  1
  Zn  Zn80  1  0.33849530  0.56815433  0.11159937  1
  Zn  Zn81  1  1.10061303  0.31685896  0.08504507  1
  Zn  Zn82  1  0.15083168  0.43616842  0.97005259  1
  Zn  Zn83  1  0.93997363  0.18841162  0.42071174  1
  Zn  Zn84  1  0.70248126  0.67868298  0.16782612  1
  Zn  Zn85  1  0.36156274  0.44062127  0.62897768  1
  Zn  Zn86  1  0.82658581  0.61441948  0.04719573  1
  Zn  Zn87  1  0.12792600  0.91369535  0.48192221  1
  Zn  Zn88  1  0.82414849  0.85326369  0.30528448  1
  Zn  Zn89  1  0.82201773  0.80816998  0.81357438  1
  Zn  Zn90  1  0.58535637  0.30743292  0.05477324  1
  Zn  Zn91  1  0.39827168  0.76032962  0.40421958  1
  Zn  Zn92  1  0.09180179  0.58555359  0.85458835  1
  Zn  Zn93  1  0.95031704  0.13327682  0.92780756  1
  Zn  Zn94  1  0.07628671  0.04216976  0.83921980  1
  Zn  Zn95  1  0.73062195  0.38094945  0.43543278  1
  Zn  Zn96  1  0.28337807  0.05507214  0.02312722  1
  Zn  Zn97  1  0.87259640  0.33034800  0.30242269  1
  Zn  Zn98  1  0.48570946  0.45814775  0.17840985  1
  Zn  Zn99  1  0.66279193  0.14856393  0.17030010  1
  Zn  Zn100  1  0.01920927  0.85019965  0.62954871  1
  Zn  Zn101  1  0.59691328  0.79660843  0.11600646  1
  O  O102  1  0.10796695  0.10578831  0.13309761  1
  O  O103  1  0.13953266  0.09031784  0.61897079  1
  O  O104  1  0.16380268  0.62061698  0.13766117  1
  O  O105  1  0.12569551  0.61875541  0.58968678  1
  O  O106  1  0.62146544  0.08204443  0.08143799  1
  O  O107  1  0.55877353  0.10654500  0.59389202  1
  O  O108  1  0.60099015  0.70336371  0.17663187  1
  O  O109  1  0.64760710  0.63740965  0.57493770  1
  O  O110  1  0.32226712  0.37802482  0.39894559  1
  O  O111  1  0.46951273  0.40284995  0.79451747  1
  O  O112  1  0.35529029  0.86060126  0.37294383  1
  O  O113  1  0.42451646  0.92994635  0.78830750  1
  O  O114  1  0.83552920  0.35515297  0.40219445  1
  O  O115  1  0.89802457  0.38620508  0.96471152  1
  O  O116  1  0.89641499  0.90574614  0.36661259  1
  O  O117  1  0.90433242  0.87083594  0.86394160  1
  O  O118  1  0.27699771  0.00957562  0.32920344  1
  O  O119  1  0.18464945  0.02157006  0.86847608  1
  O  O120  1  0.27674248  0.44587823  0.38835145  1
  O  O121  1  0.19951092  0.51647746  0.90536315  1
  O  O122  1  0.77399517  0.01093285  0.34891148  1
  O  O123  1  0.78394457  -0.04797592  0.86046278  1
  O  O124  1  0.69289738  0.46924529  0.25796506  1
  O  O125  1  0.72421740  0.50347099  0.85307824  1
  O  O126  1  0.25018402  0.49599947  0.12472768  1
  O  O127  1  0.25364476  0.44508433  0.66522331  1
  O  O128  1  0.31650768  0.94625751  0.02666305  1
  O  O129  1  0.26468546  0.96429844  0.62386700  1
  O  O130  1  0.77162160  0.47711098  0.06899603  1
  O  O131  1  0.78238079  0.47368852  0.65976342  1
  O  O132  1  0.76286003  0.99255342  0.13053309  1
  O  O133  1  0.75931233  0.99527445  0.65609216  1
  O  O134  1  -0.01472342  0.34435024  0.27751889  1
  O  O135  1  -0.00834140  0.40844795  0.75317689  1
  O  O136  1  0.01767575  0.90066780  0.24478925  1
  O  O137  1  0.01756876  0.85569007  0.74567815  1
  O  O138  1  0.48848850  0.36210341  0.23159444  1
  O  O139  1  0.50621785  0.36750943  0.74611944  1
  O  O140  1  0.51397117  0.89657059  0.29921171  1
  O  O141  1  0.49541589  0.78594211  0.78055061  1
  O  O142  1  0.44738662  0.07048476  0.23682108  1
  O  O143  1  0.44886766  0.19749201  0.66902878  1
  O  O144  1  0.55231353  0.70167676  0.44621286  1
  O  O145  1  0.40062726  0.53073368  0.68004608  1
  O  O146  1  0.98529410  0.14781842  0.23908395  1
  O  O147  1  1.01917040  0.09623638  0.74347781  1
  O  O148  1  0.86733660  0.60334954  0.32960220  1
  O  O149  1  1.00663686  0.63075642  0.78900288  1
  O  O150  1  0.33240234  0.24026934  0.00748977  1
  O  O151  1  0.54863478  0.41141277  0.58530320  1
  O  O152  1  0.33051982  0.78193242  0.05495692  1
  O  O153  1  0.33278905  0.74183328  0.49594917  1
  O  O154  1  0.84885957  0.33653351  -0.03324780  1
  O  O155  1  0.89281964  0.24018397  0.50847433  1
  O  O156  1  0.84454209  0.74385178  0.03367535  1
  O  O157  1  0.89793700  0.78997257  0.47746674  1
  O  O158  1  0.14353197  0.20864743  0.52033555  1
  O  O159  1  0.11166556  0.27221557  0.97553839  1
  O  O160  1  0.11176565  0.72181752  0.45906726  1
  O  O161  1  0.17531906  0.73954808  1.05624511  1
  O  O162  1  0.63772225  0.21835596  0.51859522  1
  O  O163  1  0.63265390  0.22355134  1.00464808  1
  O  O164  1  0.61608220  0.82059842  0.54568894  1
  O  O165  1  0.63996690  0.75636438  1.01313049  1
  O  O166  1  0.50258682  0.27061846  0.11490038  1
  O  O167  1  0.61799233  0.39953774  0.57915413  1
  O  O168  1  0.47464280  0.80010855  0.12125054  1
  O  O169  1  0.43411757  0.72701372  0.61782423  1
  O  O170  1  1.02119937  0.27289873  0.14729259  1
  O  O171  1  0.99508277  0.05424880  0.68399959  1
  O  O172  1  0.94707543  0.72298054  0.15778443  1
  O  O173  1  0.97472611  0.74688514  0.61986661  1
  O  O174  1  0.01756477  0.24565023  0.37023134  1
  O  O175  1  -0.01526260  0.22853989  0.89006742  1
  O  O176  1  0.02142663  0.79223409  0.35250162  1
  O  O177  1  -0.00035315  0.77021784  0.88011889  1
  O  O178  1  0.47651674  0.25232422  0.32455231  1
  O  O179  1  0.48935958  0.28574195  0.88660390  1
  O  O180  1  0.50595690  0.75171559  0.46745023  1
  O  O181  1  0.51398931  0.71930954  0.78350724  1
  O  O182  1  0.19501801  0.20945333  0.47311863  1
  O  O183  1  0.19790768  0.12816155  1.00574355  1
  O  O184  1  0.22714070  0.64416234  0.48128805  1
  O  O185  1  0.26862550  0.61790933  1.02583975  1
  O  O186  1  0.69381882  0.07114343  0.50485910  1
  O  O187  1  0.75299616  0.07460029  0.97624308  1
  O  O188  1  0.71184337  0.54927516  0.46167674  1
  O  O189  1  0.73240217  0.65254579  1.00142932  1
  O  O190  1  0.23866348  0.35971611  -0.02286765  1
  O  O191  1  0.19888074  0.36763232  0.53806162  1
  O  O192  1  0.29354129  0.90135626  -0.09667034  1
  O  O193  1  0.23727239  0.87463927  0.48433698  1
  O  O194  1  0.74391830  0.42400712  0.02930709  1
  O  O195  1  0.76827770  0.33601626  0.53186946  1
  O  O196  1  0.75399655  0.87632094  0.02132134  1
  O  O197  1  0.79708185  0.90165570  0.49127602  1
  O  O198  1  0.12388721  0.49937887  0.22550089  1
  O  O199  1  0.11423834  0.50146426  0.77888284  1
  O  O200  1  0.13905075  1.00083399  0.23494984  1
  O  O201  1  0.15415032  1.07116299  0.68479009  1
  O  O202  1  0.66449130  0.53344558  0.26425888  1
  O  O203  1  0.65701593  0.46771951  0.72832004  1
  O  O204  1  0.64700718  1.03325236  0.25184229  1
  O  O205  1  0.64559466  0.95212248  0.75689469  1
  O  O206  1  0.33154422  -0.00609160  0.18014245  1
  O  O207  1  0.45978805  -0.08389912  0.71781995  1
  O  O208  1  0.49114387  0.56228377  0.23500037  1
  O  O209  1  0.32664213  0.50151801  0.81045492  1
  O  O210  1  0.87101285  0.02309559  0.24308318  1
  O  O211  1  0.88677992  -0.01827285  0.75704126  1
  O  O212  1  0.81013784  0.57010941  0.30677085  1
  O  O213  1  0.84389451  0.52709998  0.78280106  1
  O  O214  1  0.12037000  0.36423955  0.38638859  1
  O  O215  1  0.06805727  0.41031154  0.89360044  1
  O  O216  1  0.11572499  0.90936614  0.36488999  1
  O  O217  1  0.11882582  0.85134989  0.87753720  1
  O  O218  1  0.65955592  0.31881465  0.35526847  1
  O  O219  1  0.65819041  0.35501109  0.88125293  1
  O  O220  1  0.63793732  0.92035110  0.42454113  1
  O  O221  1  0.42623679  0.79714448  0.91126013  1
  O  O222  1  0.37547372  0.09878055  0.08434022  1
  O  O223  1  0.31653405  0.16573641  0.61050982  1
  O  O224  1  0.40438530  0.66256522  0.12789769  1
  O  O225  1  0.58279244  0.60890269  0.61354796  1
  O  O226  1  0.87701649  0.13221729  0.12539344  1
  O  O227  1  0.93229269  0.07916436  0.64921255  1
  O  O228  1  0.80446932  0.65011002  0.15396432  1
  O  O229  1  0.91203930  0.59700000  0.66037594  1
  O  O230  1  0.20124970  0.26095262  0.09520182  1
  O  O231  1  0.23628561  0.28077596  0.67301490  1
  O  O232  1  0.29432918  0.75398346  0.20610314  1
  O  O233  1  0.20716490  0.76698292  0.57898730  1
  O  O234  1  0.71816661  0.25281487  0.14351197  1
  O  O235  1  0.86643677  0.22904901  0.68481461  1
  O  O236  1  0.73521928  0.78733899  0.13133738  1
  O  O237  1  0.81194586  0.70956420  0.60215784  1
  O  O238  1  0.28070313  0.24049291  0.33609805  1
  O  O239  1  0.23005169  0.22541849  0.89181900  1
  O  O240  1  0.21223576  0.76411332  0.37363892  1
  O  O241  1  0.25091933  0.76474082  0.86495521  1
  O  O242  1  0.68888460  0.29929889  0.29179293  1
  O  O243  1  0.76365850  0.21203788  0.85999417  1
  O  O244  1  0.65934345  0.86476087  0.37215294  1
  O  O245  1  0.75997329  0.77495747  0.90270515  1
  O  O246  1  0.03277395  0.09417570  -0.01282831  1
  O  O247  1  0.01174482  0.13471219  0.51117768  1
  O  O248  1  0.00725582  0.67766138  0.01159443  1
  O  O249  1  0.01539836  0.60437225  0.47458432  1
  O  O250  1  0.50675144  0.13635406  -0.02828724  1
  O  O251  1  0.43946604  0.17108074  0.50839945  1
  O  O252  1  0.53622038  0.62524753  0.03720533  1
  O  O253  1  0.52914194  0.58516027  0.57117759  1
  O  O254  1  0.62939238  0.44466693  0.42562204  1
  O  O255  1  0.56467335  0.41522909  1.03654948  1
  O  O256  1  0.39566730  0.89242283  0.52388637  1
  O  O257  1  0.42759527  0.72999224  0.92770005  1
  O  O258  1  0.97164549  0.36203479  0.46172463  1
  O  O259  1  0.94957042  0.45787351  1.15819450  1
  O  O260  1  1.00640545  0.90732237  0.46085351  1
  O  O261  1  0.94631428  0.94687008  1.03022977  1
  O  O262  1  0.46493010  0.40938211  0.43322496  1
  O  O263  1  0.48533549  0.50533474  0.93450720  1
  O  O264  1  0.51728539  0.95298058  0.34219860  1
  O  O265  1  0.46880081  0.93101426  0.84539224  1
  O  O266  1  1.00846391  0.47108766  0.37411946  1
  O  O267  1  1.00285181  0.55022429  0.91471182  1
  O  O268  1  0.99369395  1.01136612  0.34221102  1
  O  O269  1  1.00061985  0.96814558  0.86621337  1
  O  O270  1  -0.02731407  -0.01562710  0.09366911  1
  O  O271  1  0.02525424  0.06531611  0.51702891  1
  O  O272  1  -0.08604057  0.49403704  0.20703381  1
  O  O273  1  0.03856963  0.47032701  0.55023720  1
  O  O274  1  0.49668933  -0.02819743  0.07732960  1
  O  O275  1  0.41339504  0.04189801  0.61398489  1
  O  O276  1  0.58092837  0.45930264  0.10769260  1
  O  O277  1  0.61950321  0.51173559  0.45188512  1
  O  O278  1  0.29575180  0.38376929  0.24505415  1
  O  O279  1  0.20649551  0.39367085  0.80431076  1
  O  O280  1  0.22922576  0.89703295  0.23527207  1
  O  O281  1  0.19072033  0.86735830  0.72057514  1
  O  O282  1  0.81758327  0.38240630  0.20057648  1
  O  O283  1  0.77550469  0.39495543  0.77617589  1
  O  O284  1  0.74845905  0.90725925  0.23962459  1
  O  O285  1  0.77190830  0.86308127  0.73598856  1
  O  O286  1  0.26711426  0.11318430  0.21231797  1
  O  O287  1  0.26231237  0.12101153  0.78152111  1
  O  O288  1  0.33376322  0.57572824  0.23600160  1
  O  O289  1  0.22965380  0.58029096  0.75102002  1
  O  O290  1  0.76169190  0.11869449  0.22401792  1
  O  O291  1  0.74370444  0.07259009  0.78940676  1
  O  O292  1  0.70491991  0.67892349  0.37713663  1
  O  O293  1  0.72594331  0.58764009  0.73162744  1
  O  O294  1  0.31360131  0.19072012  0.37271138  1
  O  O295  1  0.32210244  0.09473508  0.92238699  1
  O  O296  1  0.40363623  0.54237269  0.37672981  1
  O  O297  1  0.38710003  0.64688526  0.78729333  1
  O  O298  1  0.88249935  0.12647145  0.34827616  1
  O  O299  1  0.86903902  0.08075433  0.87966037  1
  O  O300  1  0.75759972  0.70470891  0.41621841  1
  O  O301  1  0.88282733  0.65385850  0.88617639  1
  O  O302  1  0.11884844  0.42579844  0.07966015  1
  O  O303  1  0.10765505  0.37545471  0.67286245  1
  O  O304  1  0.11511488  0.87920885  0.12653679  1
  O  O305  1  0.11660385  0.89163406  0.59017182  1
  O  O306  1  0.68089988  0.31500989  0.13263873  1
  O  O307  1  0.69331274  0.28035616  0.70072155  1
  O  O308  1  0.63340530  0.90416946  0.12308195  1
  O  O309  1  0.62131524  0.79971038  0.68880408  1
  O  O310  1  0.12074780  0.22751054  0.25170924  1
  O  O311  1  0.10213002  0.29346239  0.80404182  1
  O  O312  1  0.13044774  0.78335203  0.24789368  1
  O  O313  1  0.14230009  0.71798857  0.76440397  1
  O  O314  1  0.56818422  0.18645983  0.22081835  1
  O  O315  1  0.52967006  0.25466707  0.83805123  1
  O  O316  1  0.61188739  0.81153098  0.35822402  1
  O  O317  1  0.65781822  0.74518205  0.71596770  1
  O  O318  1  0.39769995  0.20548864  0.19867538  1
  O  O319  1  0.34604837  0.25547171  0.76601844  1
  O  O320  1  0.41513196  0.69119678  0.31961419  1
  O  O321  1  0.29978758  0.66075827  0.65601085  1
  O  O322  1  0.86325554  0.23609311  0.24432519  1
  O  O323  1  0.91819928  0.24411174  0.73015372  1
  O  O324  1  0.83462993  0.75815849  0.25825636  1
  O  O325  1  0.87560460  0.71893022  0.75086544  1
  O  O326  1  0.36235873  0.48514958  0.52531823  1
  O  O327  1  0.43735540  0.50809897  1.08658891  1
  O  O328  1  0.31587597  1.01299719  0.47285084  1
  O  O329  1  0.34619609  0.92632291  0.94771489  1
  O  O330  1  0.89490695  0.50971756  0.49699540  1
  O  O331  1  0.91641224  0.55549991  1.04575161  1
  O  O332  1  0.88572686  1.02547090  0.45986927  1
  O  O333  1  0.89051918  0.98895323  0.99320201  1
  O  O334  1  0.14858454  -0.01605574  0.02575776  1
  O  O335  1  0.15022721  0.04374267  0.46928740  1
  O  O336  1  0.10528627  0.55719523  0.03399034  1
  O  O337  1  0.14109048  0.53464616  0.43663752  1
  O  O338  1  0.61421886  -0.03425856  -0.02454447  1
  O  O339  1  0.54456184  0.06598277  0.44506271  1
  O  O340  1  0.62966045  0.53730964  -0.01661340  1
  O  O341  1  0.75521196  0.49980510  0.43220555  1
  O  O342  1  0.29753717  0.35013396  0.18289263  1
  O  O343  1  0.37693087  0.33069036  0.62762245  1
  O  O344  1  0.42692954  0.84765883  0.17213795  1
  O  O345  1  0.32124362  0.82861902  0.64712596  1
  O  O346  1  0.84976828  0.36184486  0.13981257  1
  O  O347  1  0.90470959  0.38259689  0.59382092  1
  O  O348  1  0.86019385  0.86210475  0.14329519  1
  O  O349  1  0.92693473  0.90461501  0.58727020  1
  O  O350  1  0.15002724  0.07809074  0.40723414  1
  O  O351  1  0.11540524  0.14585587  0.85725950  1
  O  O352  1  0.09344460  0.64871558  0.32034037  1
  O  O353  1  0.14333500  0.66745572  0.91923522  1
  O  O354  1  0.56742525  0.12795094  0.39317683  1
  O  O355  1  0.64368378  0.11530040  0.89408997  1
  O  O356  1  0.65876185  0.77453842  0.51455682  1
  O  O357  1  0.60980367  0.66002088  0.89212236  1
