# generated using pymatgen
data_V51Zn51O256
_symmetry_space_group_name_H-M   'P 1'
_cell_length_a   17.53627515
_cell_length_b   17.32779130
_cell_length_c   17.49862352
_cell_angle_alpha   89.81227224
_cell_angle_beta   90.17299738
_cell_angle_gamma   91.24785290
_symmetry_Int_Tables_number   1
_chemical_formula_structural   V51Zn51O256
_chemical_formula_sum   'V51 Zn51 O256'
_cell_volume   5315.90510629
_cell_formula_units_Z   1
loop_
 _symmetry_equiv_pos_site_id
 _symmetry_equiv_pos_as_xyz
  1  'x, y, z'
loop_
 _atom_site_type_symbol
 _atom_site_label
 _atom_site_symmetry_multiplicity
 _atom_site_fract_x
 _atom_site_fract_y
 _atom_site_fract_z
 _atom_site_occupancy
  V  V0  1  0.38578396  0.37100481  0.48140734  1
  V  V1  1  0.14632793  0.60196658  0.52422734  1
  V  V2  1  0.62030424  0.25521916  0.87638405  1
  V  V3  1  -0.01997479  0.23187413  0.25512997  1
  V  V4  1  0.59789840  -0.00571669  0.13605226  1
  V  V5  1  0.12921344  0.73418363  0.37789049  1
  V  V6  1  0.51757372  0.71144369  0.73970003  1
  V  V7  1  0.73511839  0.59283707  0.86994495  1
  V  V8  1  0.57020449  0.37122626  0.72814652  1
  V  V9  1  0.13763914  0.87712377  0.24843422  1
  V  V10  1  0.76948747  -0.01257488  0.70198522  1
  V  V11  1  0.35844069  0.16531984  0.24615271  1
  V  V12  1  0.72537033  0.75309154  0.01873119  1
  V  V13  1  0.83741477  0.89899147  -0.01467335  1
  V  V14  1  0.80459299  0.66549004  0.37794324  1
  V  V15  1  0.15859414  0.42925447  0.18212858  1
  V  V16  1  0.26765664  0.00132225  0.26923165  1
  V  V17  1  0.00312284  0.87783329  0.38747105  1
  V  V18  1  0.27296588  0.62447710  0.31140701  1
  V  V19  1  0.40123216  -0.03367941  0.37792415  1
  V  V20  1  0.17428518  0.12879769  -0.00767938  1
  V  V21  1  0.13520127  0.04654401  0.64177549  1
  V  V22  1  -0.00174802  0.65857706  0.10099219  1
  V  V23  1  0.00043340  -0.00383964  0.50387137  1
  V  V24  1  0.64417299  0.60314916  0.48553037  1
  V  V25  1  0.00866945  0.48221158  0.47784515  1
  V  V26  1  0.25210465  0.44581491  0.73793478  1
  V  V27  1  0.24310315  0.24133882  0.46347735  1
  V  V28  1  0.63386733  0.24366425  0.37686795  1
  V  V29  1  -0.07493104  0.57056427  0.61808303  1
  V  V30  1  0.62348112  0.59780245  0.00557794  1
  V  V31  1  0.80021702  0.49649166  0.27952388  1
  V  V32  1  0.12451477  0.88299164  0.74746576  1
  V  V33  1  0.62253362  0.77868688  0.87776135  1
  V  V34  1  0.49244550  0.38170559  0.93007016  1
  V  V35  1  0.03085099  0.02849923  0.03621887  1
  V  V36  1  0.62001347  0.86153102  0.70829019  1
  V  V37  1  -0.02212841  0.34599419  0.38876843  1
  V  V38  1  0.08290313  0.44316257  0.63653595  1
  V  V39  1  0.40258558  0.49602949  0.32831928  1
  V  V40  1  0.61333801  0.49074048  0.14008138  1
  V  V41  1  0.22314089  0.69966143  0.86762386  1
  V  V42  1  0.73624862  0.12416099  0.89348968  1
  V  V43  1  0.63575185  0.75351633  0.37687844  1
  V  V44  1  0.13166296  0.11720881  0.47244698  1
  V  V45  1  0.24710772  0.87672873  0.62720821  1
  V  V46  1  0.56762171  0.02986466  0.62422524  1
  V  V47  1  0.51689904  0.64495494  0.13673737  1
  V  V48  1  0.89758834  0.39799643  0.03177778  1
  V  V49  1  0.28119595  0.88539058  0.12344060  1
  V  V50  1  0.77101130  0.01189476  0.33294673  1
  Zn  Zn51  1  0.67299768  0.44019309  0.40297795  1
  Zn  Zn52  1  0.82546653  0.83232165  0.30408163  1
  Zn  Zn53  1  0.62130279  0.73053146  0.58411474  1
  Zn  Zn54  1  0.09996075  0.53707158  0.32613000  1
  Zn  Zn55  1  0.18304861  0.72027698  0.18302388  1
  Zn  Zn56  1  0.43353208  0.19906692  0.42378810  1
  Zn  Zn57  1  0.08411116  0.02073829  0.84462464  1
  Zn  Zn58  1  0.95780142  0.95147057  0.67534921  1
  Zn  Zn59  1  0.61361361  0.78847205  0.17801472  1
  Zn  Zn60  1  0.61864144  0.31238162  0.05850834  1
  Zn  Zn61  1  0.60310173  0.94864502  0.43774866  1
  Zn  Zn62  1  0.79389583  -0.03735970  0.50780653  1
  Zn  Zn63  1  0.66575148  0.93970560  0.95599303  1
  Zn  Zn64  1  0.19549388  0.93415375  0.45374035  1
  Zn  Zn65  1  0.55673972  0.60681745  0.33436152  1
  Zn  Zn66  1  0.69163535  0.16157938  0.19965485  1
  Zn  Zn67  1  0.65973586  0.18222001  0.71718326  1
  Zn  Zn68  1  0.24563635  0.45943351  0.55009869  1
  Zn  Zn69  1  0.09987032  0.53336719  0.82499029  1
  Zn  Zn70  1  0.17369470  0.71465378  0.68245834  1
  Zn  Zn71  1  0.91265456  0.06108632  0.92436582  1
  Zn  Zn72  1  0.33715020  0.06724937  0.08716432  1
  Zn  Zn73  1  0.97993547  0.43429105  0.22986338  1
  Zn  Zn74  1  0.74913121  0.70176129  0.22155948  1
  Zn  Zn75  1  0.77912444  0.83718993  0.82230074  1
  Zn  Zn76  1  0.16967642  0.88582493  0.94763624  1
  Zn  Zn77  1  0.38614973  0.32420096  0.79950627  1
  Zn  Zn78  1  0.64212465  0.57027094  0.69374117  1
  Zn  Zn79  1  0.27968869  0.82861903  0.34938643  1
  Zn  Zn80  1  0.81696200  0.31494151  0.29706817  1
  Zn  Zn81  1  0.63471893  0.03527828  0.79604717  1
  Zn  Zn82  1  0.07335049  0.04831234  0.30516161  1
  Zn  Zn83  1  0.29496518  0.05019380  0.54538541  1
  Zn  Zn84  1  0.89001936  0.67804743  0.95801566  1
  Zn  Zn85  1  0.91213500  0.56162756  0.81481726  1
  Zn  Zn86  1  0.80326340  0.51889867  0.49110003  1
  Zn  Zn87  1  0.55656401  0.53158821  0.83293771  1
  Zn  Zn88  1  0.40464709  0.43821582  0.66298255  1
  Zn  Zn89  1  0.77640672  0.31636086  0.92284681  1
  Zn  Zn90  1  0.05983283  0.28488575  0.08129264  1
  Zn  Zn91  1  0.78302060  0.07270345  0.06869282  1
  Zn  Zn92  1  0.43668056  0.91249015  0.67220237  1
  Zn  Zn93  1  0.33258522  0.78901043  0.74518657  1
  Zn  Zn94  1  0.46743171  0.68697606  0.93867087  1
  Zn  Zn95  1  0.47374573  0.13464539  0.95736053  1
  Zn  Zn96  1  0.40172885  0.51246148  0.13866279  1
  Zn  Zn97  1  0.11596262  0.25433280  0.58961174  1
  Zn  Zn98  1  0.97861007  0.67391843  0.46021565  1
  Zn  Zn99  1  0.01612307  0.87431593  0.08714979  1
  Zn  Zn100  1  0.33633774  0.69446816  0.13589907  1
  Zn  Zn101  1  0.95915295  0.13646377  0.39620452  1
  O  O102  1  0.18574272  0.23714985  -0.00959032  1
  O  O103  1  0.11642509  0.14075560  0.60215465  1
  O  O104  1  0.09483818  0.68503112  0.12238761  1
  O  O105  1  0.13753389  0.63201795  0.61705025  1
  O  O106  1  0.60080440  0.09468445  0.15504948  1
  O  O107  1  0.59648192  0.12291900  0.64377622  1
  O  O108  1  0.61684059  0.61444635  0.11561766  1
  O  O109  1  0.65052969  0.61851598  0.59360613  1
  O  O110  1  0.36507073  0.39790587  0.37363931  1
  O  O111  1  0.40402159  0.34059000  0.90661818  1
  O  O112  1  0.37345083  0.87153189  0.39340038  1
  O  O113  1  0.38725090  0.87268540  0.81255242  1
  O  O114  1  0.88433561  0.36187753  0.37757176  1
  O  O115  1  0.85890417  0.39161965  0.93487271  1
  O  O116  1  0.90954725  0.86449213  0.37354044  1
  O  O117  1  0.85097191  0.88759483  0.88783574  1
  O  O118  1  0.26904136  -0.01832755  0.37150289  1
  O  O119  1  0.34181959  -0.07365067  0.84667620  1
  O  O120  1  0.21214577  0.55212532  0.33760768  1
  O  O121  1  0.19798285  0.48422813  0.80944896  1
  O  O122  1  0.72757835  -0.01126399  0.42282272  1
  O  O123  1  0.69288213  0.02383382  0.89006346  1
  O  O124  1  0.77749980  0.47886561  0.37569320  1
  O  O125  1  0.73882276  0.50081859  0.88819278  1
  O  O126  1  0.19515557  0.54553173  0.00812824  1
  O  O127  1  0.19436699  0.44331133  0.65121722  1
  O  O128  1  0.28344841  0.99331556  0.16075311  1
  O  O129  1  0.23284651  1.04850903  0.64174149  1
  O  O130  1  0.70593825  0.52512904  0.20449655  1
  O  O131  1  0.74458192  0.35722926  0.57892749  1
  O  O132  1  0.70060219  1.00280349  0.11934997  1
  O  O133  1  0.75548089  0.98845789  0.60604737  1
  O  O134  1  0.00747016  0.33492692  0.28127627  1
  O  O135  1  -0.05068907  0.29289157  0.83347380  1
  O  O136  1  0.04399058  0.87977222  0.29227098  1
  O  O137  1  0.02966062  0.91213348  0.74469845  1
  O  O138  1  0.48821486  0.35022907  0.22717254  1
  O  O139  1  0.46478969  0.37629011  0.72928372  1
  O  O140  1  0.50021642  0.82287859  0.26314349  1
  O  O141  1  0.51990497  0.85709878  0.71760590  1
  O  O142  1  0.46235105  0.14304638  0.26846833  1
  O  O143  1  0.43889665  0.15708299  0.79959478  1
  O  O144  1  0.51744125  0.63503101  0.23262554  1
  O  O145  1  0.54353162  0.61361128  0.75288190  1
  O  O146  1  1.00694772  0.13741131  0.29173578  1
  O  O147  1  0.96736592  0.12785273  0.76227001  1
  O  O148  1  0.96378871  0.64620459  0.19183400  1
  O  O149  1  0.93156255  0.59622546  0.71207842  1
  O  O150  1  0.34965191  0.30231561  0.08054172  1
  O  O151  1  0.35991152  0.26628806  0.47114894  1
  O  O152  1  0.45615196  0.80997772  -0.00148110  1
  O  O153  1  0.34930623  0.69858924  0.52752656  1
  O  O154  1  0.82327246  0.31999772  0.03800240  1
  O  O155  1  0.84609316  0.23750410  0.52745909  1
  O  O156  1  0.82174053  0.75477771  -0.00451506  1
  O  O157  1  0.88219293  0.82597889  0.55730713  1
  O  O158  1  0.13337775  0.22595952  0.47919190  1
  O  O159  1  0.10618912  0.22555178  0.99876789  1
  O  O160  1  0.15685777  0.69147194  0.46967055  1
  O  O161  1  0.00545112  0.78314225  0.86872993  1
  O  O162  1  0.65271387  0.26129881  0.47326754  1
  O  O163  1  0.66735215  0.31028868  0.95405293  1
  O  O164  1  0.65192094  0.71871282  0.48046077  1
  O  O165  1  0.62458017  0.76170006  0.97923929  1
  O  O166  1  0.49103927  0.30055292  0.17782486  1
  O  O167  1  0.44396201  0.22587129  0.76629825  1
  O  O168  1  0.52689038  0.74189396  0.12456896  1
  O  O169  1  0.52853607  0.71826544  0.64269631  1
  O  O170  1  1.01408150  0.22935609  0.16454820  1
  O  O171  1  0.87657998  0.26279499  0.68756591  1
  O  O172  1  0.99084500  0.76264162  0.10887007  1
  O  O173  1  0.94506702  0.65250690  0.56399737  1
  O  O174  1  -0.02089989  0.24732370  0.39646746  1
  O  O175  1  -0.01361946  0.09026475  0.83279239  1
  O  O176  1  0.03735787  0.77067729  0.40728295  1
  O  O177  1  -0.05387566  0.74365834  0.86179164  1
  O  O178  1  0.53461952  0.23761869  0.38048859  1
  O  O179  1  0.55387588  0.20562405  0.93196947  1
  O  O180  1  0.54364302  0.72190981  0.36715369  1
  O  O181  1  0.53022920  0.73243669  0.85820866  1
  O  O182  1  0.24466332  0.13754019  0.48880400  1
  O  O183  1  0.26590524  0.10670900  1.01105194  1
  O  O184  1  0.23562589  0.56392374  0.51153139  1
  O  O185  1  0.29892969  0.66655315  0.94119509  1
  O  O186  1  0.84258193  0.16690079  0.53518538  1
  O  O187  1  0.73292721  0.13666939  0.98943157  1
  O  O188  1  0.77986071  0.62715992  0.46532224  1
  O  O189  1  0.71904120  0.64458063  0.99693450  1
  O  O190  1  0.33606969  0.51565612  -0.10986014  1
  O  O191  1  0.23011975  0.34782957  0.50181297  1
  O  O192  1  0.23378145  0.90036783  0.03884685  1
  O  O193  1  0.26826514  0.93563751  0.54229118  1
  O  O194  1  0.83992593  0.47220427  0.06249055  1
  O  O195  1  0.78787113  0.38037986  0.52831564  1
  O  O196  1  0.73664893  0.86862079  0.00652715  1
  O  O197  1  0.81895576  0.84403037  0.51919340  1
  O  O198  1  0.08152902  0.48383700  0.22724259  1
  O  O199  1  0.06706576  0.47914700  0.72406883  1
  O  O200  1  0.15568180  0.98596894  0.26513524  1
  O  O201  1  0.11144397  1.05340320  0.73468119  1
  O  O202  1  0.63902968  0.50901168  0.24601571  1
  O  O203  1  0.60425201  0.46862172  0.74895781  1
  O  O204  1  0.60496321  0.97253640  0.23287996  1
  O  O205  1  0.61037133  0.97550218  0.70474417  1
  O  O206  1  0.37676690  -0.01448603  0.28089776  1
  O  O207  1  0.47298981  -0.01136949  0.86434327  1
  O  O208  1  0.37669637  0.47066845  0.23823024  1
  O  O209  1  0.33025373  0.50255122  0.71521741  1
  O  O210  1  0.87227789  0.03576703  0.31500368  1
  O  O211  1  0.86519086  -0.01559452  0.71955673  1
  O  O212  1  0.89724182  0.49625017  0.26668062  1
  O  O213  1  0.80320392  0.42701109  0.77861944  1
  O  O214  1  0.19242331  0.38601793  0.28153499  1
  O  O215  1  0.21025436  0.37243658  0.92162467  1
  O  O216  1  0.17382892  0.84376886  0.39084723  1
  O  O217  1  0.14368680  0.92197901  0.84226855  1
  O  O218  1  0.62792266  0.34898035  0.36359988  1
  O  O219  1  0.55727751  0.34431921  0.86120729  1
  O  O220  1  0.62817289  0.84987823  0.39721104  1
  O  O221  1  0.61501108  0.87731180  0.87555430  1
  O  O222  1  0.36417995  0.15762197  0.14957990  1
  O  O223  1  0.36601517  0.13302939  0.60655196  1
  O  O224  1  0.41071918  0.62375699  0.11534901  1
  O  O225  1  0.44585408  0.59113888  0.58367389  1
  O  O226  1  0.78598512  0.13818185  0.15360972  1
  O  O227  1  0.82075585  0.21625597  0.69673978  1
  O  O228  1  0.89940815  0.63763863  0.07275893  1
  O  O229  1  0.83538530  0.53466400  0.59933736  1
  O  O230  1  0.33826643  0.36985423  0.10295919  1
  O  O231  1  0.23113131  0.29655510  0.56768152  1
  O  O232  1  0.26689717  0.77394849  0.13125543  1
  O  O233  1  0.21396530  0.78857471  0.60124470  1
  O  O234  1  0.66312076  0.23425019  0.11958580  1
  O  O235  1  0.75109851  0.24595313  0.68108735  1
  O  O236  1  0.70965191  0.74962196  0.11598941  1
  O  O237  1  0.80794680  0.71700195  0.68394032  1
  O  O238  1  0.23858009  0.25185010  0.37203196  1
  O  O239  1  0.25501063  0.37861846  0.97485057  1
  O  O240  1  0.25396933  0.71261802  0.35569918  1
  O  O241  1  0.19094078  0.78040396  0.90935233  1
  O  O242  1  0.73635918  0.26145355  0.35592489  1
  O  O243  1  0.73364450  0.23125735  0.86566348  1
  O  O244  1  0.76468747  0.75772989  0.37190101  1
  O  O245  1  0.72026385  0.75206164  0.86890752  1
  O  O246  1  -0.02974199  0.10369273  0.01527454  1
  O  O247  1  0.02245470  0.10259845  0.47941654  1
  O  O248  1  0.00139061  0.67577271  -0.00388650  1
  O  O249  1  0.05370955  0.58525107  0.46826077  1
  O  O250  1  0.42863239  0.06601910  0.02428904  1
  O  O251  1  0.44289842  0.09637035  0.48005453  1
  O  O252  1  0.52375175  0.62681878  0.00971944  1
  O  O253  1  0.55224485  0.58492512  0.47114905  1
  O  O254  1  0.47751203  0.37382036  0.48691714  1
  O  O255  1  0.52357911  0.35379515  1.01857710  1
  O  O256  1  0.40168947  0.74611394  0.52512861  1
  O  O257  1  0.46692512  0.87392453  0.96907160  1
  O  O258  1  0.99914727  0.37549533  0.48703911  1
  O  O259  1  0.96696428  0.32287584  1.02804264  1
  O  O260  1  1.01995871  0.89414522  0.49166068  1
  O  O261  1  1.07861318  0.92369115  1.00375552  1
  O  O262  1  0.49808275  0.50467725  0.33637428  1
  O  O263  1  0.49462720  0.47990996  0.90846991  1
  O  O264  1  0.49795280  0.96897382  0.38844327  1
  O  O265  1  0.52564374  1.03650491  0.87862682  1
  O  O266  1  1.03794954  0.45683729  0.38078836  1
  O  O267  1  1.00320914  0.54369759  0.86926671  1
  O  O268  1  1.01805563  0.98520092  0.38807178  1
  O  O269  1  1.00736603  0.99207193  0.93309630  1
  O  O270  1  -0.00433126  -0.01553967  0.11609921  1
  O  O271  1  0.02281190  0.00751990  0.60360460  1
  O  O272  1  0.03282613  0.56663686  0.09228800  1
  O  O273  1  -0.01029098  0.48818144  0.59596659  1
  O  O274  1  0.50040118  -0.00192100  0.12924895  1
  O  O275  1  0.47097488  0.01240372  0.64163137  1
  O  O276  1  0.51596823  0.50208254  0.14070304  1
  O  O277  1  0.47883374  0.53566908  0.61236017  1
  O  O278  1  0.22477596  0.48688571  0.14610826  1
  O  O279  1  0.28804161  0.35626119  0.76199075  1
  O  O280  1  0.25038140  0.88164509  0.24420271  1
  O  O281  1  0.23881632  0.87731602  0.73171229  1
  O  O282  1  0.77732030  0.40345998  0.24468328  1
  O  O283  1  0.78505452  0.35792447  0.80262851  1
  O  O284  1  0.77319365  0.92809248  0.28267751  1
  O  O285  1  0.72499287  0.89675040  0.74599019  1
  O  O286  1  0.27238775  0.10282762  0.27052001  1
  O  O287  1  0.33511508  0.14165384  0.67620926  1
  O  O288  1  0.26037097  0.64038783  0.21281605  1
  O  O289  1  0.25142577  0.71267953  0.76915728  1
  O  O290  1  0.71999675  0.07816190  0.28197234  1
  O  O291  1  0.73580730  0.07291804  0.73798157  1
  O  O292  1  0.78952893  0.61273257  0.28584512  1
  O  O293  1  0.71790174  0.59867230  0.77320343  1
  O  O294  1  0.42219213  0.12440441  0.33388736  1
  O  O295  1  0.40037034  0.15231763  0.86624817  1
  O  O296  1  0.36753395  0.59421212  0.33448771  1
  O  O297  1  0.36124522  0.69981134  0.90383704  1
  O  O298  1  0.85544941  0.08997763  0.37148918  1
  O  O299  1  0.82984180  0.10957033  0.87177451  1
  O  O300  1  0.90122605  0.67894459  0.38314890  1
  O  O301  1  0.84074945  0.61731880  0.88108683  1
  O  O302  1  0.11598988  0.37574401  0.10940643  1
  O  O303  1  0.07056967  0.34415835  0.63407949  1
  O  O304  1  0.11443676  0.86823722  0.15547352  1
  O  O305  1  0.14535531  0.92555375  0.64722699  1
  O  O306  1  0.63051945  0.39626359  0.13694275  1
  O  O307  1  0.58836926  0.36392585  0.63788291  1
  O  O308  1  0.59725044  0.89067628  0.12940098  1
  O  O309  1  0.64222226  0.83774785  0.61825881  1
  O  O310  1  0.21961182  0.34515978  0.22423850  1
  O  O311  1  0.00853053  0.18491317  0.74443857  1
  O  O312  1  0.14179168  0.77191333  0.27052443  1
  O  O313  1  0.11119568  0.78496219  0.74163407  1
  O  O314  1  0.63605815  0.22274711  0.27341551  1
  O  O315  1  0.62005454  0.28255692  0.76382726  1
  O  O316  1  0.65919462  0.75111786  0.26823239  1
  O  O317  1  0.62403153  0.76905332  0.75823837  1
  O  O318  1  0.35450059  0.25667619  0.26762394  1
  O  O319  1  0.30660243  0.20629395  0.69189449  1
  O  O320  1  0.43611808  0.82168107  0.23419737  1
  O  O321  1  0.42217787  0.72086600  0.75102865  1
  O  O322  1  0.88232974  0.23841082  0.25189406  1
  O  O323  1  0.90409879  0.24692835  0.86476310  1
  O  O324  1  0.83775853  0.76872773  0.21761760  1
  O  O325  1  0.84512383  0.75241711  0.73311144  1
  O  O326  1  0.35295410  0.46522419  0.42606698  1
  O  O327  1  0.33766469  0.52380357  0.95943563  1
  O  O328  1  0.38470453  1.04406629  0.46321669  1
  O  O329  1  0.31823015  0.90933132  0.91300028  1
  O  O330  1  0.91803705  0.50990073  0.46506874  1
  O  O331  1  0.96497845  0.45795827  0.98887425  1
  O  O332  1  0.90366051  0.99530674  0.50519529  1
  O  O333  1  0.83425606  1.00014569  1.00215035  1
  O  O334  1  0.11869176  0.07763903  0.06370259  1
  O  O335  1  0.13862165  0.01811915  0.50866875  1
  O  O336  1  0.15143314  0.50313102  -0.02818951  1
  O  O337  1  0.11490347  0.48457244  0.53963831  1
  O  O338  1  0.60079271  -0.00437194  0.03146391  1
  O  O339  1  0.59233903  -0.00527607  0.53668274  1
  O  O340  1  0.63730212  0.50304427  0.03043875  1
  O  O341  1  0.68351323  0.50536175  0.48831637  1
  O  O342  1  0.37895420  0.42821681  0.06425970  1
  O  O343  1  0.35268580  0.41631876  0.56797238  1
  O  O344  1  0.37125165  0.88467634  0.10186361  1
  O  O345  1  0.34968313  0.85226956  0.64809998  1
  O  O346  1  0.92747611  0.40008081  0.13008466  1
  O  O347  1  0.87651026  0.44847569  0.77888312  1
  O  O348  1  0.91329137  0.87003605  0.03695939  1
  O  O349  1  0.89053599  0.85425069  0.62665166  1
  O  O350  1  0.13975680  0.10735598  0.37855909  1
  O  O351  1  0.14986528  0.09271839  0.90591739  1
  O  O352  1  0.09566710  0.65128273  0.33490859  1
  O  O353  1  0.15445918  0.63062681  0.86559170  1
  O  O354  1  0.64551534  0.14670312  0.39799521  1
  O  O355  1  0.63577546  0.14796356  0.82747999  1
  O  O356  1  0.66031973  0.62651284  0.37688755  1
  O  O357  1  0.62620283  0.59659447  0.89981484  1
