# generated using pymatgen
data_V51Zn51O256
_symmetry_space_group_name_H-M   'P 1'
_cell_length_a   17.91481246
_cell_length_b   17.86617552
_cell_length_c   17.45714741
_cell_angle_alpha   88.54091580
_cell_angle_beta   89.46675273
_cell_angle_gamma   88.57607853
_symmetry_Int_Tables_number   1
_chemical_formula_structural   V51Zn51O256
_chemical_formula_sum   'V51 Zn51 O256'
_cell_volume   5583.74806890
_cell_formula_units_Z   1
loop_
 _symmetry_equiv_pos_site_id
 _symmetry_equiv_pos_as_xyz
  1  'x, y, z'
loop_
 _atom_site_type_symbol
 _atom_site_label
 _atom_site_symmetry_multiplicity
 _atom_site_fract_x
 _atom_site_fract_y
 _atom_site_fract_z
 _atom_site_occupancy
  V  V0  1  0.77900740  0.87144818  0.10695583  1
  V  V1  1  0.90184827  0.86496466  -0.01196003  1
  V  V2  1  0.64224207  -0.03534099  0.05925986  1
  V  V3  1  0.44898918  0.24026689  0.71322920  1
  V  V4  1  0.50960889  0.55444399  0.50886555  1
  V  V5  1  0.63862012  0.86459345  0.23663616  1
  V  V6  1  0.39513394  0.01377081  0.89700391  1
  V  V7  1  -0.02265212  0.45858911  0.45751671  1
  V  V8  1  0.54445929  0.49396076  0.00103840  1
  V  V9  1  0.23997255  0.52534737  0.78470867  1
  V  V10  1  0.75978629  0.48425025  0.72889564  1
  V  V11  1  0.62702791  0.50772036  0.62535324  1
  V  V12  1  0.75057857  0.01054601  0.26945063  1
  V  V13  1  -0.00957853  0.02038487  0.03131576  1
  V  V14  1  0.36236295  0.91799384  0.04094149  1
  V  V15  1  0.21717363  0.09990822  0.40297177  1
  V  V16  1  0.16064132  0.58075055  0.50385153  1
  V  V17  1  0.73445657  0.10958131  0.84652398  1
  V  V18  1  0.49660426  0.86111013  0.36430012  1
  V  V19  1  0.94905842  0.63238575  0.23348138  1
  V  V20  1  0.89926738  0.11674418  0.73901999  1
  V  V21  1  0.75733251  0.63885723  0.86308935  1
  V  V22  1  0.38640220  0.74324261  0.11257994  1
  V  V23  1  0.67544550  0.64128444  0.50857521  1
  V  V24  1  0.73774119  0.87175493  0.58808802  1
  V  V25  1  0.46672981  0.83592238  0.90683690  1
  V  V26  1  0.19452850  -0.01562370  0.75728123  1
  V  V27  1  0.16291960  0.48929022  0.11360861  1
  V  V28  1  0.61834211  0.85438189  0.79057761  1
  V  V29  1  0.70171287  0.24308100  -0.04181312  1
  V  V30  1  0.55427439  0.23639119  0.42851282  1
  V  V31  1  0.88697417  0.27123461  0.62707479  1
  V  V32  1  0.00022050  0.74680561  0.72644069  1
  V  V33  1  -0.01789919  0.60561118  0.56998375  1
  V  V34  1  0.15099830  0.90288851  0.25046779  1
  V  V35  1  0.10810541  0.48604432  0.63199397  1
  V  V36  1  0.11100023  0.38947470  0.79320861  1
  V  V37  1  0.11364922  0.13177502  0.03394542  1
  V  V38  1  0.64633157  0.08517606  0.51830728  1
  V  V39  1  -0.01436961  -0.01634322  0.49006248  1
  V  V40  1  0.12603411  0.23994616  0.88360307  1
  V  V41  1  0.90631545  0.00748405  0.86869156  1
  V  V42  1  0.73976884  0.74649545  0.00158045  1
  V  V43  1  -0.02992036  0.28271911  0.77740480  1
  V  V44  1  0.63354570  0.62198849  0.02435692  1
  V  V45  1  0.47261686  0.07288510  0.61792306  1
  V  V46  1  0.61270942  0.26205185  0.80933767  1
  V  V47  1  0.36672546  0.32478834  -0.03771478  1
  V  V48  1  0.70117004  0.75239137  0.35309555  1
  V  V49  1  -0.06797124  0.47544910  -0.02493734  1
  V  V50  1  0.77381446  0.14966241  0.38342225  1
  Zn  Zn51  1  0.92769609  0.45019504  0.68599477  1
  Zn  Zn52  1  0.49914975  0.38080708  0.59730449  1
  Zn  Zn53  1  0.33983038  0.89240076  0.79257180  1
  Zn  Zn54  1  0.77648356  0.41287114  0.88060137  1
  Zn  Zn55  1  0.14564986  0.64731900  0.69081575  1
  Zn  Zn56  1  0.19480496  0.30644326  0.40084542  1
  Zn  Zn57  1  0.93639843  0.17464313  0.45829243  1
  Zn  Zn58  1  0.43686815  0.65392893  0.98859748  1
  Zn  Zn59  1  0.49976646  0.74370490  0.48851442  1
  Zn  Zn60  1  0.90629181  0.95200700  0.18759805  1
  Zn  Zn61  1  0.62381063  0.48496337  0.40518616  1
  Zn  Zn62  1  0.38540044  0.16550581  0.48173726  1
  Zn  Zn63  1  0.06897221  0.86173314  0.07510316  1
  Zn  Zn64  1  0.31176679  0.08321191  0.03499295  1
  Zn  Zn65  1  0.07396772  0.06229415  0.81039178  1
  Zn  Zn66  1  0.04263710  0.33074837  0.60422174  1
  Zn  Zn67  1  0.93506839  0.93273673  0.68844465  1
  Zn  Zn68  1  0.20527681  0.08309030  0.19401636  1
  Zn  Zn69  1  0.08591707  0.76212357  0.56150475  1
  Zn  Zn70  1  0.07364444  0.41138530  0.28111946  1
  Zn  Zn71  1  0.81008134  0.52080720  0.53267964  1
  Zn  Zn72  1  0.11035671  0.72369527  0.22342300  1
  Zn  Zn73  1  0.96891727  0.46160298  0.12747607  1
  Zn  Zn74  1  0.67405442  0.31989834  0.35563145  1
  Zn  Zn75  1  0.68549457  0.66064627  0.21027968  1
  Zn  Zn76  1  0.27809222  0.08758212  0.60381604  1
  Zn  Zn77  1  0.76456377  0.28169371  0.74801666  1
  Zn  Zn78  1  0.71556653  0.16433148  0.67141693  1
  Zn  Zn79  1  0.55914710  0.65460926  0.36906303  1
  Zn  Zn80  1  1.03147076  0.69221410  0.40741504  1
  Zn  Zn81  1  0.21450205  0.41881129  0.91944896  1
  Zn  Zn82  1  0.47123375  0.39095496  0.09377183  1
  Zn  Zn83  1  0.35419501  0.86791632  0.23682221  1
  Zn  Zn84  1  0.19476552  0.99935118  0.95682595  1
  Zn  Zn85  1  0.96650459  0.16174751  0.91800192  1
  Zn  Zn86  1  0.81171821  0.06099164  0.56832218  1
  Zn  Zn87  1  0.63005386  0.53275892  0.84006710  1
  Zn  Zn88  1  0.70140464  0.92701148  0.41758620  1
  Zn  Zn89  1  0.36114308  0.53986765  0.10181131  1
  Zn  Zn90  1  0.55546317  0.81383275  0.06304927  1
  Zn  Zn91  1  0.32569441  0.18406448  0.85459355  1
  Zn  Zn92  1  0.69795725  0.72116603  0.68944647  1
  Zn  Zn93  1  0.95316478  0.63008391  0.87287761  1
  Zn  Zn94  1  0.55257719  0.02933557  0.79613446  1
  Zn  Zn95  1  0.81556725  0.58541438  0.09657572  1
  Zn  Zn96  1  0.89232802  0.79857711  0.31636470  1
  Zn  Zn97  1  0.17112403  0.91463910  0.46030120  1
  Zn  Zn98  1  0.08333861  0.34528157  0.01303752  1
  Zn  Zn99  1  0.55428659  0.92128862  0.53495909  1
  Zn  Zn100  1  0.78877294  0.05042474  0.00094006  1
  Zn  Zn101  1  0.73352878  0.91833164  0.90500254  1
  O  O102  1  0.12688456  0.13223574  0.13007481  1
  O  O103  1  0.18781527  0.21442063  0.66719336  1
  O  O104  1  0.17310507  0.58283745  0.09845499  1
  O  O105  1  0.10636647  0.60292777  0.59524486  1
  O  O106  1  0.59358741  0.03867914  0.08277443  1
  O  O107  1  0.70625044  0.08682795  0.60081366  1
  O  O108  1  0.62656799  0.64809736  0.11708347  1
  O  O109  1  0.68340665  0.65217491  0.60370722  1
  O  O110  1  0.35130434  0.32047109  0.45538271  1
  O  O111  1  0.39531663  0.37534729  0.86368421  1
  O  O112  1  0.40678729  0.87745138  0.33031500  1
  O  O113  1  0.37795829  0.90917678  0.92198503  1
  O  O114  1  0.74760581  0.36767566  0.50969460  1
  O  O115  1  0.88541691  0.28863005  1.07598707  1
  O  O116  1  0.92691160  0.88365772  0.26806380  1
  O  O117  1  0.89138161  0.90757072  0.89319397  1
  O  O118  1  0.22821576  -0.00075821  0.42179469  1
  O  O119  1  0.18403477  0.02567433  0.84975959  1
  O  O120  1  0.24561980  0.54143649  0.35744324  1
  O  O121  1  0.25039023  0.51321074  0.88437596  1
  O  O122  1  0.78090717  -0.03736861  0.34812257  1
  O  O123  1  0.77996793  0.01757829  0.88586755  1
  O  O124  1  0.69251343  0.41820244  0.37033047  1
  O  O125  1  0.74052071  0.51075691  0.83448923  1
  O  O126  1  0.26352083  0.48657741  0.12526309  1
  O  O127  1  0.17715369  0.51249195  0.68964323  1
  O  O128  1  0.29344978  1.08745497  0.14227415  1
  O  O129  1  0.23840113  1.04032080  0.68894095  1
  O  O130  1  0.76013123  0.58702916  0.18833418  1
  O  O131  1  0.74131378  0.49080469  0.62325644  1
  O  O132  1  0.74444490  0.97425167  0.07252104  1
  O  O133  1  0.78064578  0.96373154  0.63093639  1
  O  O134  1  0.00946690  0.39260655  0.19969070  1
  O  O135  1  -0.05183567  0.37452275  0.77031611  1
  O  O136  1  0.05653122  0.89008482  0.26443984  1
  O  O137  1  -0.02448384  0.83910996  0.72601681  1
  O  O138  1  0.44824216  0.38523652  0.20813668  1
  O  O139  1  0.44329294  0.33075343  0.67470793  1
  O  O140  1  0.54692526  0.85720597  0.25218170  1
  O  O141  1  0.43087603  0.84222708  0.81056679  1
  O  O142  1  0.49610639  0.20355658  0.21005879  1
  O  O143  1  0.48045282  0.05945704  0.71333073  1
  O  O144  1  0.36288760  0.59403011  0.26259616  1
  O  O145  1  0.35933311  0.62141429  0.90899854  1
  O  O146  1  0.84952790  0.18121058  0.19977182  1
  O  O147  1  0.99379237  0.12064714  0.74455073  1
  O  O148  1  1.04534824  0.64227288  0.19913850  1
  O  O149  1  0.96851662  0.64832137  0.67695747  1
  O  O150  1  0.38411294  0.23695588  -0.07031140  1
  O  O151  1  0.33335401  0.26633560  0.50861995  1
  O  O152  1  0.34711688  0.80747139  0.04645508  1
  O  O153  1  0.41681140  0.73410623  0.56884612  1
  O  O154  1  0.94475043  0.26294334  0.10099217  1
  O  O155  1  0.90874214  0.23941493  0.53777598  1
  O  O156  1  0.92824466  0.77807311  -0.01867993  1
  O  O157  1  0.94581811  0.75699552  0.39879810  1
  O  O158  1  0.11974352  0.26462968  0.54338452  1
  O  O159  1  0.10949904  0.23516361  0.99356265  1
  O  O160  1  0.12428010  0.64400414  0.43707001  1
  O  O161  1  0.14430839  0.83259406  0.98995391  1
  O  O162  1  0.54762214  0.29353434  0.52564851  1
  O  O163  1  0.61018973  0.24231917  0.91587026  1
  O  O164  1  0.69022724  0.73223084  0.45286628  1
  O  O165  1  0.64409923  0.75263412  1.00552165  1
  O  O166  1  0.54664855  0.23952766  0.18057630  1
  O  O167  1  0.47382053  0.18711224  0.63637656  1
  O  O168  1  0.48206422  0.75117871  0.11202999  1
  O  O169  1  0.47327317  0.71828546  0.73387409  1
  O  O170  1  1.00734033  0.19051371  0.22978071  1
  O  O171  1  0.98776524  0.26286283  0.66751069  1
  O  O172  1  1.06597859  0.77530721  0.13679916  1
  O  O173  1  1.00638159  0.69577078  0.52867011  1
  O  O174  1  0.00047585  0.25497942  0.39252355  1
  O  O175  1  -0.04416389  0.26035234  0.87325301  1
  O  O176  1  0.07399588  0.75065823  0.32269907  1
  O  O177  1  0.00245654  0.70660585  0.81764132  1
  O  O178  1  0.46852704  0.19838497  0.42219475  1
  O  O179  1  0.51883371  0.23399745  0.78746365  1
  O  O180  1  0.51209909  0.75351749  0.36943413  1
  O  O181  1  0.45110234  0.74524916  0.92975107  1
  O  O182  1  0.21744299  0.09648311  0.50818898  1
  O  O183  1  0.20178818  0.10828166  0.99962879  1
  O  O184  1  0.24439689  0.60618899  0.52304324  1
  O  O185  1  0.15340055  0.67950235  1.03218343  1
  O  O186  1  0.75511570  0.09787547  0.46902638  1
  O  O187  1  0.74723535  0.14204245  0.95190347  1
  O  O188  1  0.75410829  0.59756587  0.47370404  1
  O  O189  1  0.75074827  0.64694284  1.02630621  1
  O  O190  1  0.27274685  0.34189025  -0.03229247  1
  O  O191  1  0.29700152  0.35009983  0.41189448  1
  O  O192  1  0.26847327  0.94897489  0.02556231  1
  O  O193  1  0.34825134  0.91281356  0.51008433  1
  O  O194  1  0.74644690  0.32688146  -0.06367072  1
  O  O195  1  0.70782369  0.32883737  0.55050781  1
  O  O196  1  0.78605985  0.85231540  -0.01365244  1
  O  O197  1  0.76441726  0.87647340  0.49402605  1
  O  O198  1  0.14937926  0.47532678  0.21434635  1
  O  O199  1  0.06148151  0.46389879  0.81342151  1
  O  O200  1  0.14305928  1.00398435  0.24004462  1
  O  O201  1  0.10077722  0.98340510  0.73400068  1
  O  O202  1  0.50861797  0.41042846  0.24711606  1
  O  O203  1  0.65256020  0.52678036  0.72565517  1
  O  O204  1  0.66493218  0.96672266  0.24102645  1
  O  O205  1  0.58630725  0.93771066  0.75019187  1
  O  O206  1  0.47580983  0.02667936  0.22701965  1
  O  O207  1  0.36092283  0.00064747  0.80711800  1
  O  O208  1  0.37767914  0.53537641  0.22739696  1
  O  O209  1  0.32371751  0.52627027  0.74829414  1
  O  O210  1  0.82382933  0.02041773  0.20702519  1
  O  O211  1  0.90136047  0.00522497  0.76389543  1
  O  O212  1  0.94768694  0.53512921  0.21202193  1
  O  O213  1  0.84781195  0.51727907  0.72208146  1
  O  O214  1  0.17039103  0.30768578  0.51505666  1
  O  O215  1  0.12230182  0.35086294  0.90260495  1
  O  O216  1  0.15472341  0.89628770  0.35209884  1
  O  O217  1  0.15496175  0.87791238  0.93425924  1
  O  O218  1  0.56429237  0.33661953  0.45776472  1
  O  O219  1  0.61625446  0.35328962  0.80714782  1
  O  O220  1  0.66306169  0.84987063  0.34709282  1
  O  O221  1  0.56324873  0.83644896  0.87665771  1
  O  O222  1  0.46337532  0.16169253  0.06035230  1
  O  O223  1  0.37957528  0.10002524  0.57291740  1
  O  O224  1  0.37001267  0.64717289  0.07960705  1
  O  O225  1  0.48470832  0.65150098  0.72650792  1
  O  O226  1  0.84419603  0.24521343  0.22301927  1
  O  O227  1  0.87909897  0.10710736  0.64291612  1
  O  O228  1  0.90653406  0.64183119  0.14093339  1
  O  O229  1  0.89014331  0.59454771  0.56495647  1
  O  O230  1  0.28351168  0.25047944  0.21570999  1
  O  O231  1  0.30269476  0.42539982  0.58483994  1
  O  O232  1  0.21735712  0.68667448  0.05337004  1
  O  O233  1  0.34777252  0.80435492  0.64795331  1
  O  O234  1  0.68691459  0.24175213  0.05097796  1
  O  O235  1  0.79077136  0.24610518  0.64136273  1
  O  O236  1  0.77013186  0.77115016  0.09866383  1
  O  O237  1  0.75754824  0.78422084  0.62510689  1
  O  O238  1  0.20648876  0.19813160  0.40440196  1
  O  O239  1  0.21489587  0.22316279  0.86070400  1
  O  O240  1  0.29794174  0.78079243  0.41956816  1
  O  O241  1  0.18891072  0.77590258  0.84189930  1
  O  O242  1  0.74526374  0.24108543  0.38264448  1
  O  O243  1  0.72323892  0.21880005  0.83698160  1
  O  O244  1  0.79269458  0.76303912  0.33476836  1
  O  O245  1  0.76511913  0.73275671  0.90341209  1
  O  O246  1  0.00195832  0.12561706  0.01732017  1
  O  O247  1  -0.00662745  0.08557715  0.49695992  1
  O  O248  1  -0.01712096  0.54973732  -0.06017254  1
  O  O249  1  0.01141202  0.54869945  0.48763466  1
  O  O250  1  0.52150627  0.18823644  0.03744256  1
  O  O251  1  0.56474717  0.09430028  0.57228072  1
  O  O252  1  0.53844291  0.61527779  -0.00277498  1
  O  O253  1  0.57108174  0.65821593  0.49103147  1
  O  O254  1  0.48262057  0.46182017  0.52306891  1
  O  O255  1  0.56052877  0.40293524  1.02909074  1
  O  O256  1  0.49870407  0.85255049  0.47399747  1
  O  O257  1  0.48286300  0.87483274  1.00280916  1
  O  O258  1  1.01261480  0.38856348  0.51650458  1
  O  O259  1  0.99170213  0.40545526  1.01970278  1
  O  O260  1  0.97103104  0.88814950  0.48166095  1
  O  O261  1  0.99356906  0.91029868  1.01371982  1
  O  O262  1  0.53877298  0.54936633  0.39992942  1
  O  O263  1  0.54938897  0.49700658  0.90265683  1
  O  O264  1  0.53737329  0.94387823  0.36569460  1
  O  O265  1  0.48698500  1.03426267  0.88383548  1
  O  O266  1  1.01156249  0.44520221  0.36530208  1
  O  O267  1  0.87439426  0.43983018  0.91108331  1
  O  O268  1  0.98189624  0.99090987  0.39158750  1
  O  O269  1  1.00049763  1.01048363  0.88313085  1
  O  O270  1  -0.02345944  0.01167381  0.12685436  1
  O  O271  1  -0.01480812  -0.03270551  0.59407888  1
  O  O272  1  0.06474356  0.51429121  0.10664703  1
  O  O273  1  0.00767535  0.51352563  0.64154467  1
  O  O274  1  0.44458086  0.06355344  0.17654484  1
  O  O275  1  0.47825560  -0.01594405  0.58221076  1
  O  O276  1  0.45168443  0.50138737  0.05145300  1
  O  O277  1  0.54322360  0.56152327  0.61621276  1
  O  O278  1  0.14889214  0.34667382  0.31657409  1
  O  O279  1  0.20393044  0.41481575  0.79145982  1
  O  O280  1  0.25260865  0.91625693  0.25284222  1
  O  O281  1  0.23957337  0.89593829  0.76222926  1
  O  O282  1  0.83875571  0.40261906  0.26600025  1
  O  O283  1  0.77067347  0.38945122  0.75721305  1
  O  O284  1  0.76803761  0.87678467  0.20135935  1
  O  O285  1  0.70986480  0.86441626  0.81637019  1
  O  O286  1  0.23684882  0.09219517  0.30434331  1
  O  O287  1  0.24929198  0.20536773  0.63410941  1
  O  O288  1  0.19096775  0.65934419  0.22823142  1
  O  O289  1  0.20063121  0.61873981  0.77599064  1
  O  O290  1  0.73251782  0.10455900  0.30357017  1
  O  O291  1  0.78049660  0.11139320  0.75629781  1
  O  O292  1  0.86995178  0.62454612  0.29197492  1
  O  O293  1  0.74357254  0.65864406  0.76899652  1
  O  O294  1  0.31766639  0.11753483  0.41117280  1
  O  O295  1  0.33438248  0.09349777  0.92134392  1
  O  O296  1  0.25651765  0.73085593  0.40041093  1
  O  O297  1  0.37779457  0.64483496  0.83730743  1
  O  O298  1  0.86959018  0.14950203  0.37806257  1
  O  O299  1  0.88923370  0.11112174  0.85744159  1
  O  O300  1  0.99733482  0.61952864  0.32399483  1
  O  O301  1  0.84799778  0.61012461  0.87926204  1
  O  O302  1  0.14504083  0.38781611  0.09762823  1
  O  O303  1  0.09782546  0.39253746  0.67778420  1
  O  O304  1  0.13777554  0.90912554  0.14754360  1
  O  O305  1  0.14973665  0.82741485  0.51154047  1
  O  O306  1  0.56277756  0.43225517  0.20456565  1
  O  O307  1  0.59889921  0.41862671  0.62854809  1
  O  O308  1  0.62999709  0.87658510  0.11856127  1
  O  O309  1  0.64248318  0.88753130  0.59041229  1
  O  O310  1  0.06298479  0.22920898  0.23253022  1
  O  O311  1  0.07841476  0.28398199  0.79027318  1
  O  O312  1  0.18098398  0.80829805  0.23353097  1
  O  O313  1  0.08867038  0.74232021  0.67405456  1
  O  O314  1  0.58519456  0.26103919  0.33772911  1
  O  O315  1  0.65456143  0.24015167  0.71643505  1
  O  O316  1  0.67241125  0.77133258  0.23142394  1
  O  O317  1  0.61532275  0.78030574  0.72911529  1
  O  O318  1  0.33908025  0.25577029  0.25683393  1
  O  O319  1  0.36595014  0.21074037  0.75436489  1
  O  O320  1  0.35120080  0.76446299  0.20135033  1
  O  O321  1  0.33469597  0.69233213  0.80472967  1
  O  O322  1  0.96679307  0.29228754  0.34125357  1
  O  O323  1  0.88379965  0.22826162  0.74520583  1
  O  O324  1  0.93483332  0.73270213  0.23158821  1
  O  O325  1  0.91983545  0.71237195  0.67474201  1
  O  O326  1  0.43382127  0.60750395  0.50398905  1
  O  O327  1  0.41053499  0.41810680  0.92301482  1
  O  O328  1  0.28744538  0.90862863  0.54428163  1
  O  O329  1  0.40068941  1.00869774  1.01761697  1
  O  O330  1  0.88204433  0.46606332  0.46735363  1
  O  O331  1  0.88318682  0.50559956  1.06159902  1
  O  O332  1  0.88843323  1.00533249  0.50404121  1
  O  O333  1  0.89579478  1.02372691  0.98888050  1
  O  O334  1  0.09409131  0.02268158  0.01883242  1
  O  O335  1  0.08476503  -0.02342600  0.49497316  1
  O  O336  1  0.17151339  0.47407793  0.01073053  1
  O  O337  1  0.14581701  0.47540726  0.54061720  1
  O  O338  1  0.63951032  -0.05063597  -0.03662436  1
  O  O339  1  0.63658667  -0.00156403  0.47668735  1
  O  O340  1  0.63966414  0.52352315  0.03527884  1
  O  O341  1  0.63788877  0.53173052  0.51730670  1
  O  O342  1  0.40043064  0.32599709  0.05552209  1
  O  O343  1  0.28449807  0.37370175  0.62755069  1
  O  O344  1  0.37651361  0.91788107  0.13887149  1
  O  O345  1  0.40940808  0.79731044  0.61283169  1
  O  O346  1  0.84799430  0.40230407  0.19587721  1
  O  O347  1  0.88303095  0.36722944  0.62519449  1
  O  O348  1  0.87702336  0.88315069  0.09702583  1
  O  O349  1  0.83418231  0.90608021  0.64158264  1
  O  O350  1  0.12239846  0.10036779  0.39061791  1
  O  O351  1  0.07926677  0.15431849  0.87405135  1
  O  O352  1  0.20099760  0.51030765  0.40245558  1
  O  O353  1  0.19498079  0.72480940  0.88899458  1
  O  O354  1  0.62214405  0.16561080  0.45760411  1
  O  O355  1  0.64610383  0.08523390  0.82830337  1
  O  O356  1  0.66191881  0.66297173  0.32319634  1
  O  O357  1  0.66737450  0.61720993  0.91016621  1
