# generated using pymatgen
data_V51Zn51O256
_symmetry_space_group_name_H-M   'P 1'
_cell_length_a   17.95717281
_cell_length_b   17.75761504
_cell_length_c   17.52471600
_cell_angle_alpha   88.05145090
_cell_angle_beta   89.44923347
_cell_angle_gamma   91.90780122
_symmetry_Int_Tables_number   1
_chemical_formula_structural   V51Zn51O256
_chemical_formula_sum   'V51 Zn51 O256'
_cell_volume   5581.57112791
_cell_formula_units_Z   1
loop_
 _symmetry_equiv_pos_site_id
 _symmetry_equiv_pos_as_xyz
  1  'x, y, z'
loop_
 _atom_site_type_symbol
 _atom_site_label
 _atom_site_symmetry_multiplicity
 _atom_site_fract_x
 _atom_site_fract_y
 _atom_site_fract_z
 _atom_site_occupancy
  V  V0  1  0.04497236  0.01701861  0.00140939  1
  V  V1  1  0.89016333  0.75223774  0.07244758  1
  V  V2  1  0.71782426  0.75925930  0.01372268  1
  V  V3  1  0.12738283  0.36133326  0.72044239  1
  V  V4  1  0.61796883  0.71786943  0.88968880  1
  V  V5  1  0.03545734  0.77392218  0.25838421  1
  V  V6  1  0.82620034  0.42401944  -0.00536767  1
  V  V7  1  0.50020658  0.63892457  0.62752151  1
  V  V8  1  0.65001644  0.20621749  0.88721768  1
  V  V9  1  0.25559847  0.40269681  0.18507395  1
  V  V10  1  0.63633835  0.66278448  0.47881042  1
  V  V11  1  0.85421755  0.86499506  0.54368142  1
  V  V12  1  0.12595368  0.19380027  0.31048367  1
  V  V13  1  0.28425520  0.64074860  0.33636136  1
  V  V14  1  0.66003048  0.51267606  0.63349786  1
  V  V15  1  0.40219901  -0.00324119  0.83164245  1
  V  V16  1  0.29791064  0.40283037  0.49896298  1
  V  V17  1  0.51035858  0.73595053  0.75302029  1
  V  V18  1  0.70800695  0.33816896  0.12318871  1
  V  V19  1  0.92246661  0.51277717  0.85456915  1
  V  V20  1  0.09953674  -0.00968500  0.67597757  1
  V  V21  1  0.40070278  0.87895641  -0.02866220  1
  V  V22  1  0.58498488  0.17326779  0.62190045  1
  V  V23  1  0.01699591  0.84587285  0.41740156  1
  V  V24  1  0.24172622  0.51915144  0.72721637  1
  V  V25  1  0.28759387  0.17800401  -0.01478075  1
  V  V26  1  0.49325938  0.62745011  0.16545379  1
  V  V27  1  0.20677361  -0.02909614  0.22416480  1
  V  V28  1  0.53336776  0.87926239  0.84039867  1
  V  V29  1  0.93815801  0.24000172  0.10929973  1
  V  V30  1  0.46260508  0.48612482  0.52206575  1
  V  V31  1  0.72201893  0.50058605  0.21688516  1
  V  V32  1  0.81023806  0.28635553  0.42520241  1
  V  V33  1  0.37591354  0.46332451  0.85415921  1
  V  V34  1  0.66095840  0.80635705  0.35002614  1
  V  V35  1  0.82061500  0.76737833  0.69662562  1
  V  V36  1  0.75030711  0.01493862  0.71646719  1
  V  V37  1  0.72393279  0.14916466  0.37774730  1
  V  V38  1  0.54049268  -0.03325677  0.02837663  1
  V  V39  1  0.80668929  0.09263208  0.92620534  1
  V  V40  1  -0.05477723  0.40404781  0.34244210  1
  V  V41  1  -0.00404380  0.25583277  0.74506861  1
  V  V42  1  0.75731993  0.89314367  0.12388245  1
  V  V43  1  0.84354066  0.54094743  0.40849282  1
  V  V44  1  0.28642594  -0.03155169  0.71966768  1
  V  V45  1  0.24393919  0.81420106  -0.05261855  1
  V  V46  1  0.00875798  0.59319994  0.54000348  1
  V  V47  1  0.92767803  -0.01035370  0.44588964  1
  V  V48  1  0.87626843  0.15634050  0.69264833  1
  V  V49  1  0.86000388  0.59577391  0.18867492  1
  V  V50  1  0.30492135  0.24634666  0.62180186  1
  Zn  Zn51  1  0.74541811  0.96476394  0.42715989  1
  Zn  Zn52  1  0.00048395  0.25468876  0.44047729  1
  Zn  Zn53  1  0.10899789  0.19495306  0.60962179  1
  Zn  Zn54  1  0.56093519  0.53745748  0.34226833  1
  Zn  Zn55  1  0.55847222  0.52185792  0.89406449  1
  Zn  Zn56  1  0.65302926  0.37789073  0.95742318  1
  Zn  Zn57  1  0.47402657  0.13359706  0.93539837  1
  Zn  Zn58  1  0.75965419  0.57468415  0.05409154  1
  Zn  Zn59  1  0.37257035  0.05027390  0.02859861  1
  Zn  Zn60  1  0.94856290  0.19400723  0.93004382  1
  Zn  Zn61  1  0.56825050  0.45760686  0.08192428  1
  Zn  Zn62  1  0.25583363  0.45942838  0.99848029  1
  Zn  Zn63  1  0.42234045  0.92887642  0.16122990  1
  Zn  Zn64  1  0.89441458  0.70528191  0.46200078  1
  Zn  Zn65  1  0.75217595  0.12484776  0.55298805  1
  Zn  Zn66  1  0.79334717  0.22703453  0.23429921  1
  Zn  Zn67  1  0.45501115  0.43312471  0.20766588  1
  Zn  Zn68  1  0.33985378  0.81838709  0.79431479  1
  Zn  Zn69  1  0.56046730  0.36860638  0.62182050  1
  Zn  Zn70  1  0.07804506  0.80419340  0.05566909  1
  Zn  Zn71  1  0.11910639  0.48911774  0.86189460  1
  Zn  Zn72  1  0.65938152  0.69390356  0.64509305  1
  Zn  Zn73  1  0.22201239  1.00288336  0.90818633  1
  Zn  Zn74  1  0.83818681  0.78096684  0.24179871  1
  Zn  Zn75  1  0.15541503  0.69892630  0.21868125  1
  Zn  Zn76  1  0.69589877  0.68593188  0.17101711  1
  Zn  Zn77  1  0.36736185  0.15985240  0.47393756  1
  Zn  Zn78  1  0.91767668  0.97616229  0.65907847  1
  Zn  Zn79  1  0.87625819  0.39906357  0.18720647  1
  Zn  Zn80  1  0.02255205  0.01298014  0.28307214  1
  Zn  Zn81  1  0.70019915  0.93273243  0.93737543  1
  Zn  Zn82  1  0.29493514  0.59921428  0.14316723  1
  Zn  Zn83  1  -0.00731611  0.60475989  0.34001096  1
  Zn  Zn84  1  0.30466472  0.80588113  0.26383697  1
  Zn  Zn85  1  0.73261815  0.45407932  0.48004687  1
  Zn  Zn86  1  0.88915741  0.04766417  0.11804547  1
  Zn  Zn87  1  0.57929512  0.06986582  0.79358530  1
  Zn  Zn88  1  0.96665663  0.44708961  0.67852351  1
  Zn  Zn89  1  0.14786974  0.83634247  0.57495312  1
  Zn  Zn90  1  0.72040352  0.23979310  0.71062816  1
  Zn  Zn91  1  0.21955658  0.68366115  0.62627151  1
  Zn  Zn92  1  0.14190467  0.25220451  0.11085442  1
  Zn  Zn93  1  0.22914634  0.09087375  0.57272796  1
  Zn  Zn94  1  0.81337245  0.59963222  0.59034811  1
  Zn  Zn95  1  0.28991298  0.29139810  0.81011376  1
  Zn  Zn96  1  0.82645165  0.68915454  0.88455931  1
  Zn  Zn97  1  0.16772088  0.89172393  0.38328125  1
  Zn  Zn98  1  0.54796557  0.15483602  0.43550504  1
  Zn  Zn99  1  0.66529074  0.83908796  0.75246524  1
  Zn  Zn100  1  -0.03191841  0.05703329  0.80981215  1
  Zn  Zn101  1  0.85444231  0.95433023  0.27204151  1
  O  O102  1  0.22584042  0.20782806  0.05748968  1
  O  O103  1  0.12104688  0.07413819  0.62379884  1
  O  O104  1  0.13039062  0.62518044  0.13316792  1
  O  O105  1  0.10453621  0.63008954  0.58479221  1
  O  O106  1  0.58999245  0.08546965  0.22442952  1
  O  O107  1  0.68433282  0.18591887  0.62329528  1
  O  O108  1  0.58523273  0.66619304  0.16759068  1
  O  O109  1  0.61325237  0.59382960  0.66268227  1
  O  O110  1  0.32494914  0.35547193  0.42339797  1
  O  O111  1  0.36394305  0.37332770  0.82393431  1
  O  O112  1  0.32292660  0.84398166  0.38977918  1
  O  O113  1  0.41777618  0.88168725  0.85009901  1
  O  O114  1  0.86048810  0.35624134  0.34764557  1
  O  O115  1  0.88238664  0.42883510  0.90972024  1
  O  O116  1  0.93951154  0.87278711  0.47862930  1
  O  O117  1  0.96097445  0.85799929  0.83036925  1
  O  O118  1  0.18974956  -0.00980194  0.32742369  1
  O  O119  1  0.29335272  -0.00506087  0.82395067  1
  O  O120  1  0.33123431  0.56016475  0.32688962  1
  O  O121  1  0.35034118  0.46379808  0.94907059  1
  O  O122  1  0.73196929  0.06912729  0.44446029  1
  O  O123  1  0.77787943  0.00364117  0.90427751  1
  O  O124  1  0.76632898  0.50076980  0.37028430  1
  O  O125  1  0.69522969  0.40352391  0.84676969  1
  O  O126  1  0.24715990  0.50074835  0.13768897  1
  O  O127  1  0.27705848  0.47849280  0.65465857  1
  O  O128  1  0.21366244  0.92001526  0.14338772  1
  O  O129  1  0.27887471  1.01565983  0.63388364  1
  O  O130  1  0.68540416  0.51061742  0.12619387  1
  O  O131  1  0.75257359  0.52640974  0.65501543  1
  O  O132  1  0.80919044  0.97634944  0.10736529  1
  O  O133  1  0.73150437  1.03295882  0.62263885  1
  O  O134  1  -0.02969508  0.40964831  0.24793494  1
  O  O135  1  0.02119021  0.36630630  0.73186637  1
  O  O136  1  -0.05507269  0.79400756  0.25489249  1
  O  O137  1  0.08454065  0.73963662  0.84896123  1
  O  O138  1  0.48664068  0.32633997  0.23757468  1
  O  O139  1  0.50384791  0.30387915  0.78358060  1
  O  O140  1  0.50603885  0.97117779  0.32301468  1
  O  O141  1  0.54860157  0.85872345  0.74549119  1
  O  O142  1  0.48309616  0.12389537  0.27164320  1
  O  O143  1  0.55189511  0.12280753  0.70130873  1
  O  O144  1  0.50550827  0.61818135  0.26788462  1
  O  O145  1  0.49459335  0.63931450  0.74124479  1
  O  O146  1  0.93519159  0.01059830  0.22449821  1
  O  O147  1  0.97231655  0.14587998  0.73533373  1
  O  O148  1  0.94040320  0.59996270  0.24027567  1
  O  O149  1  1.00493502  0.66377509  0.72636455  1
  O  O150  1  0.38622249  0.16654026  -0.00004197  1
  O  O151  1  0.30027833  0.33882918  0.58344902  1
  O  O152  1  0.34277936  0.79368440  -0.03570425  1
  O  O153  1  0.43062281  0.79362870  0.51437328  1
  O  O154  1  0.91345215  0.24855925  0.01447009  1
  O  O155  1  0.89384298  0.25377902  0.45451160  1
  O  O156  1  0.82989784  0.73108239  -0.00703503  1
  O  O157  1  0.83813087  0.77330225  0.51991551  1
  O  O158  1  0.15329631  0.20155882  0.40483752  1
  O  O159  1  0.12853216  0.32149763  0.99039729  1
  O  O160  1  0.05341595  0.68620340  0.57833848  1
  O  O161  1  0.16596128  0.77909936  1.00032200  1
  O  O162  1  0.50314882  0.33265729  0.40020866  1
  O  O163  1  0.48960551  0.35469391  0.96620191  1
  O  O164  1  0.64680475  0.75780570  0.44184614  1
  O  O165  1  0.62307396  0.76746499  0.98456019  1
  O  O166  1  0.47131504  0.20490092  0.11826238  1
  O  O167  1  0.55064484  0.26270732  0.62404549  1
  O  O168  1  0.45375144  0.71442037  0.16356112  1
  O  O169  1  0.55215935  0.73792591  0.65569200  1
  O  O170  1  1.03453419  0.26255049  0.10662806  1
  O  O171  1  1.05480877  0.21525158  0.52089914  1
  O  O172  1  0.98358879  0.75055621  0.04831108  1
  O  O173  1  1.08450776  0.78365207  0.79349501  1
  O  O174  1  0.02783509  0.20578883  0.33905905  1
  O  O175  1  -0.00956030  0.25146680  0.84235103  1
  O  O176  1  -0.01780647  0.75501730  0.41230708  1
  O  O177  1  -0.04737052  0.82649389  0.89388978  1
  O  O178  1  0.41251183  0.25521145  0.31888097  1
  O  O179  1  0.45082091  0.29758168  0.95786487  1
  O  O180  1  0.57774356  0.81172116  0.31277621  1
  O  O181  1  0.52140023  0.77002844  0.86277362  1
  O  O182  1  0.27714861  0.10578376  0.47592879  1
  O  O183  1  0.26993192  0.08032682  0.97329831  1
  O  O184  1  0.32519618  0.66820008  0.41925850  1
  O  O185  1  0.28218085  0.70990034  1.11437856  1
  O  O186  1  0.75334054  0.20365460  0.46683027  1
  O  O187  1  0.83294355  0.09522663  1.01733096  1
  O  O188  1  0.70981581  0.65203575  0.54473560  1
  O  O189  1  0.70499505  0.66235499  1.05780962  1
  O  O190  1  0.28743759  0.39103972  0.08494412  1
  O  O191  1  0.21502448  0.43248200  0.47327853  1
  O  O192  1  0.24733367  0.90755023  -0.03698032  1
  O  O193  1  0.26377067  0.84998768  0.42930154  1
  O  O194  1  0.74876745  0.35538859  0.02334077  1
  O  O195  1  0.77343579  0.35736340  0.47735409  1
  O  O196  1  0.74578823  0.86044943  0.00827578  1
  O  O197  1  0.77322326  0.90393739  0.51984654  1
  O  O198  1  0.08727654  0.57169905  0.15673534  1
  O  O199  1  0.15173412  0.46755122  0.75726212  1
  O  O200  1  0.10742287  0.96754980  0.22455491  1
  O  O201  1  0.17432995  0.97649682  0.73668054  1
  O  O202  1  0.64652484  0.49628512  0.27695773  1
  O  O203  1  0.65538656  0.52111504  0.82001837  1
  O  O204  1  0.51890964  1.08609847  0.22275083  1
  O  O205  1  0.68576817  1.05682330  0.77293903  1
  O  O206  1  0.30206925  -0.01311820  0.24254722  1
  O  O207  1  0.39129086  -0.01313322  0.73196746  1
  O  O208  1  0.47611032  0.47406829  0.30067116  1
  O  O209  1  0.30759848  0.52045955  0.80361956  1
  O  O210  1  0.85114261  -0.02759128  0.38282017  1
  O  O211  1  0.85479095  0.04110095  0.72151732  1
  O  O212  1  0.83081587  0.49695709  0.21952912  1
  O  O213  1  0.91334818  0.49556265  0.76038757  1
  O  O214  1  0.12663372  0.29072697  0.29142998  1
  O  O215  1  0.18534685  0.34825868  0.95682759  1
  O  O216  1  0.07358773  0.83964753  0.32420743  1
  O  O217  1  0.13419023  0.95163916  0.86891741  1
  O  O218  1  0.56377947  0.36184638  0.38352592  1
  O  O219  1  0.62752691  0.27280761  0.95080099  1
  O  O220  1  0.69177092  0.89764185  0.36425241  1
  O  O221  1  0.62832463  0.88526442  0.86567117  1
  O  O222  1  0.38569206  0.02540983  0.13356581  1
  O  O223  1  0.37261710  0.19823449  0.57634459  1
  O  O224  1  0.39848680  0.58854522  0.16739386  1
  O  O225  1  0.41871195  0.67060691  0.60793500  1
  O  O226  1  0.92629364  0.14808698  0.13844163  1
  O  O227  1  0.85499040  0.14704759  0.59990327  1
  O  O228  1  0.86833379  0.58280068  0.09319822  1
  O  O229  1  0.84116342  0.68393651  0.66153544  1
  O  O230  1  0.28576618  0.31965192  0.22457736  1
  O  O231  1  0.21890150  0.19633630  0.60588009  1
  O  O232  1  0.25224983  0.75840775  0.15986864  1
  O  O233  1  0.21676054  0.76515676  0.56499146  1
  O  O234  1  0.71561744  0.24793475  0.15590762  1
  O  O235  1  0.75972644  0.33968129  0.65525721  1
  O  O236  1  0.72431803  0.78170778  0.11797556  1
  O  O237  1  0.72439372  0.77511631  0.67705156  1
  O  O238  1  0.21828955  0.16897953  0.30062009  1
  O  O239  1  0.27418386  0.22929301  0.90405269  1
  O  O240  1  0.22443929  0.72647771  0.31550876  1
  O  O241  1  0.24438591  0.79917552  0.85082073  1
  O  O242  1  0.76342629  0.25288092  0.33897218  1
  O  O243  1  0.73270413  0.16066932  0.91338594  1
  O  O244  1  0.75836528  0.74460084  0.32017643  1
  O  O245  1  0.71944704  0.71606659  0.90649159  1
  O  O246  1  0.01858352  0.11178170  -0.02673255  1
  O  O247  1  0.13612517  0.02195499  0.48002287  1
  O  O248  1  0.05771558  0.63231573  -0.02141946  1
  O  O249  1  -0.08137820  0.63054004  0.54405592  1
  O  O250  1  0.49285741  0.05079144  0.01278700  1
  O  O251  1  0.56477637  0.12604147  0.53908710  1
  O  O252  1  0.50199820  0.62396603  0.06541038  1
  O  O253  1  0.55349525  0.65985381  0.53259342  1
  O  O254  1  0.49067726  0.39721301  0.54485747  1
  O  O255  1  0.46342469  0.42215602  1.10238836  1
  O  O256  1  0.45599349  0.81486122  0.44763214  1
  O  O257  1  0.50470621  0.88739436  0.96795571  1
  O  O258  1  1.00883853  0.35903976  0.39814724  1
  O  O259  1  1.03209365  0.42293282  1.08107871  1
  O  O260  1  1.10068411  0.84845512  0.46752684  1
  O  O261  1  1.06518647  0.92021344  1.01886560  1
  O  O262  1  0.50710074  0.51874121  0.44133478  1
  O  O263  1  0.46806286  0.49327032  0.84736322  1
  O  O264  1  0.49590947  0.90704326  0.34845997  1
  O  O265  1  0.51425551  0.98231096  0.82997957  1
  O  O266  1  0.92972295  0.50003519  0.37541518  1
  O  O267  1  1.01660417  0.51525335  0.87399994  1
  O  O268  1  1.00405468  0.95221601  0.38031627  1
  O  O269  1  1.01272790  1.00783399  0.90379533  1
  O  O270  1  0.06289883  0.05533404  0.09010920  1
  O  O271  1  0.00892268  -0.00763739  0.72273598  1
  O  O272  1  0.05540137  0.47569429  0.03989054  1
  O  O273  1  0.00085696  0.50930485  0.59255590  1
  O  O274  1  0.52567994  -0.06019511  0.12180326  1
  O  O275  1  0.39506292  -0.04435300  0.45981743  1
  O  O276  1  0.52556138  0.52765451  0.16432061  1
  O  O277  1  0.48423248  0.54046980  0.60400443  1
  O  O278  1  0.19967315  0.43665773  0.25419564  1
  O  O279  1  0.19037312  0.32351036  0.78288738  1
  O  O280  1  0.21842710  0.87296674  0.27133618  1
  O  O281  1  0.28901641  0.87431613  0.70830384  1
  O  O282  1  0.74600349  0.39263972  0.19626355  1
  O  O283  1  0.82098697  0.37337891  0.68248272  1
  O  O284  1  0.79655846  0.87793802  0.22482759  1
  O  O285  1  0.73860760  0.91958030  0.73541320  1
  O  O286  1  0.21048628  0.05762321  0.17984159  1
  O  O287  1  0.18414726  0.11454277  0.83087807  1
  O  O288  1  0.24242434  0.61651068  0.24135673  1
  O  O289  1  0.22436001  0.61293800  0.70176431  1
  O  O290  1  0.76484965  0.12375678  0.29308128  1
  O  O291  1  0.80097315  0.17728100  0.74607689  1
  O  O292  1  0.75536713  0.60499222  0.21797296  1
  O  O293  1  0.71068188  0.47561170  0.82632307  1
  O  O294  1  0.44949228  0.17031409  0.41115291  1
  O  O295  1  0.41910569  0.08941377  0.84802837  1
  O  O296  1  0.35326094  0.70616270  0.28906671  1
  O  O297  1  0.32243721  0.63977511  0.97942102  1
  O  O298  1  0.95078025  0.07883126  0.44127641  1
  O  O299  1  0.89253056  0.11418494  0.87445572  1
  O  O300  1  0.85850178  0.63632308  0.38533239  1
  O  O301  1  0.88104522  0.59674192  0.87495750  1
  O  O302  1  0.17584839  0.35657373  0.14350644  1
  O  O303  1  0.15595037  0.37336160  0.63334018  1
  O  O304  1  0.08694974  0.78156930  0.17096700  1
  O  O305  1  0.09652001  0.91470035  0.61681285  1
  O  O306  1  0.61726717  0.36148064  0.11557805  1
  O  O307  1  0.62195106  0.43130874  0.68068863  1
  O  O308  1  0.67480377  0.92092302  0.14394497  1
  O  O309  1  0.51359529  0.94838951  0.57192092  1
  O  O310  1  0.12108608  0.19103623  0.20634194  1
  O  O311  1  0.08724145  0.24851910  0.70349016  1
  O  O312  1  0.06285706  0.68273315  0.28842716  1
  O  O313  1  0.06129500  0.62846406  0.73947806  1
  O  O314  1  0.53490433  0.23072307  0.12239300  1
  O  O315  1  0.66215790  0.25265558  0.80061870  1
  O  O316  1  0.69323106  0.74009222  0.27386875  1
  O  O317  1  0.62757240  0.73250472  0.78747377  1
  O  O318  1  0.43285113  0.27033400  0.25042609  1
  O  O319  1  0.47109021  0.24266886  0.78093450  1
  O  O320  1  0.39039130  0.86134562  0.23985520  1
  O  O321  1  0.42136319  0.76515741  0.74731550  1
  O  O322  1  0.87799214  0.28564248  0.17674458  1
  O  O323  1  0.91512012  0.26032536  0.69002818  1
  O  O324  1  0.85670813  0.70535624  0.16453293  1
  O  O325  1  0.83525630  0.75972603  0.79249310  1
  O  O326  1  0.36549428  0.48317376  0.50465392  1
  O  O327  1  0.29140596  0.59176192  1.02527375  1
  O  O328  1  0.40816697  1.02023487  0.43495210  1
  O  O329  1  0.37838450  0.97469153  0.94406354  1
  O  O330  1  0.82335157  0.52429802  0.50533760  1
  O  O331  1  0.77699876  0.50302936  0.98041471  1
  O  O332  1  0.90202889  0.97625932  0.54992574  1
  O  O333  1  0.95607859  0.98603487  1.03954089  1
  O  O334  1  0.13968888  0.03262758  -0.01964589  1
  O  O335  1  0.18685223  -0.02442039  0.47641126  1
  O  O336  1  0.17401432  0.49762433  -0.04833802  1
  O  O337  1  0.02884382  0.58978259  0.44449169  1
  O  O338  1  0.63062255  -0.01628627  0.00339391  1
  O  O339  1  0.54611392  -0.07225525  0.51506107  1
  O  O340  1  0.59982150  0.46566262  -0.02163149  1
  O  O341  1  0.65264136  0.49281881  0.53633877  1
  O  O342  1  0.34520574  0.43436454  0.21732928  1
  O  O343  1  0.32384861  0.24601350  0.71736232  1
  O  O344  1  0.38918405  0.88279093  0.06618096  1
  O  O345  1  0.38496949  0.83519655  0.54846948  1
  O  O346  1  0.87879565  0.42624810  0.07339319  1
  O  O347  1  0.86565189  0.40427283  0.62933900  1
  O  O348  1  0.87489303  0.84049585  0.09200083  1
  O  O349  1  0.87037816  0.85342031  0.64835075  1
  O  O350  1  0.08499392  0.09851619  0.31415826  1
  O  O351  1  0.12082263  0.13911138  0.82153311  1
  O  O352  1  0.20839206  0.60536626  0.38813345  1
  O  O353  1  0.12452642  0.62768130  0.96731722  1
  O  O354  1  0.62917945  0.15914734  0.36668269  1
  O  O355  1  0.57125787  0.14214942  0.88192295  1
  O  O356  1  0.62904346  0.60658890  0.40229060  1
  O  O357  1  0.58306964  0.63018318  0.90577964  1
