# generated using pymatgen
data_V51Zn51O256
_symmetry_space_group_name_H-M   'P 1'
_cell_length_a   17.57444577
_cell_length_b   17.67747168
_cell_length_c   17.42396730
_cell_angle_alpha   89.20794309
_cell_angle_beta   90.53816866
_cell_angle_gamma   90.56395318
_symmetry_Int_Tables_number   1
_chemical_formula_structural   V51Zn51O256
_chemical_formula_sum   'V51 Zn51 O256'
_cell_volume   5412.12335092
_cell_formula_units_Z   1
loop_
 _symmetry_equiv_pos_site_id
 _symmetry_equiv_pos_as_xyz
  1  'x, y, z'
loop_
 _atom_site_type_symbol
 _atom_site_label
 _atom_site_symmetry_multiplicity
 _atom_site_fract_x
 _atom_site_fract_y
 _atom_site_fract_z
 _atom_site_occupancy
  V  V0  1  0.20470702  0.68890260  0.44770190  1
  V  V1  1  0.60448415  0.53297179  0.61440109  1
  V  V2  1  0.76182000  0.59580838  0.82172306  1
  V  V3  1  0.75080834  0.74137690  0.49815211  1
  V  V4  1  0.02060983  0.77706388  0.74258530  1
  V  V5  1  0.89147669  0.79421466  0.63474533  1
  V  V6  1  0.76720951  0.25448080  -0.01301294  1
  V  V7  1  -0.02494264  0.14769913  0.17533438  1
  V  V8  1  0.47780088  0.39465340  0.35080036  1
  V  V9  1  0.39262128  0.84827833  0.51168716  1
  V  V10  1  0.23888326  0.49561640  0.24506302  1
  V  V11  1  0.88112235  0.00635658  0.85458220  1
  V  V12  1  0.46018994  0.61289909  0.09936947  1
  V  V13  1  0.50756163  0.73806166  0.74222088  1
  V  V14  1  0.11916040  0.75054376  0.87913590  1
  V  V15  1  0.50163317  0.44284190  0.86540394  1
  V  V16  1  0.24702333  0.84382471  0.60597396  1
  V  V17  1  0.39476387  0.00771113  0.41733406  1
  V  V18  1  0.02500208  0.23591395  0.30062857  1
  V  V19  1  0.74779022  0.26995299  0.50485895  1
  V  V20  1  0.61989474  0.38126065  0.24794822  1
  V  V21  1  0.64664714  0.73047606  0.87642060  1
  V  V22  1  0.26366982  -0.00733868  0.77090980  1
  V  V23  1  0.15876922  0.52135423  0.60861426  1
  V  V24  1  0.36774189  0.66144676  0.72037978  1
  V  V25  1  0.65896299  0.48241005  0.09564167  1
  V  V26  1  -0.00927324  0.57280902  0.62584636  1
  V  V27  1  -0.01028812  0.73208061  0.30617286  1
  V  V28  1  0.27089769  0.51993009  0.75480631  1
  V  V29  1  0.72946414  0.86833709  0.62617787  1
  V  V30  1  0.36154150  0.10417178  0.29139705  1
  V  V31  1  0.37519946  0.39556080  -0.02196144  1
  V  V32  1  0.53771476  0.11136241  0.46345264  1
  V  V33  1  0.60901152  0.42493712  0.73648133  1
  V  V34  1  0.42436793  0.25027859  0.04185339  1
  V  V35  1  0.26529766  0.64696345  0.88107771  1
  V  V36  1  0.39245004  0.40864815  0.50068755  1
  V  V37  1  0.18180882  0.24715944  0.41913767  1
  V  V38  1  0.74228679  -0.00020268  0.73238451  1
  V  V39  1  0.14320702  0.00543669  0.11436186  1
  V  V40  1  0.38685601  0.26331688  0.62322574  1
  V  V41  1  0.60159294  0.63346034  0.48249129  1
  V  V42  1  -0.01635651  0.07395844  0.54074492  1
  V  V43  1  0.10450136  0.59465180  -0.05217622  1
  V  V44  1  0.74181966  0.80215646  0.12944533  1
  V  V45  1  0.26486128  0.38817601  0.62251285  1
  V  V46  1  0.07622739  0.89658573  0.37319206  1
  V  V47  1  -0.02271781  0.40823093  0.36543339  1
  V  V48  1  0.51005491  0.22906887  0.73844509  1
  V  V49  1  0.61865606  0.86931773  0.77294878  1
  V  V50  1  0.71863965  0.12270763  0.87021461  1
  Zn  Zn51  1  0.41316561  0.87738356  0.70913082  1
  Zn  Zn52  1  0.96431997  0.26417233  0.49767611  1
  Zn  Zn53  1  0.35275609  0.34706716  0.79016663  1
  Zn  Zn54  1  0.52557660  0.28443505  0.93011601  1
  Zn  Zn55  1  0.56055263  0.05854327  0.78093959  1
  Zn  Zn56  1  0.26255920  0.85482109  0.39567024  1
  Zn  Zn57  1  0.36855773  0.06149034  0.60866623  1
  Zn  Zn58  1  0.79324291  0.70958309  0.30089979  1
  Zn  Zn59  1  0.12910989  0.63490458  0.74140588  1
  Zn  Zn60  1  0.18505104  0.17442502  0.20965224  1
  Zn  Zn61  1  1.09409581  0.35614481  0.20555088  1
  Zn  Zn62  1  0.78013748  0.39483098  0.33530997  1
  Zn  Zn63  1  0.43768263  0.47046298  0.67828298  1
  Zn  Zn64  1  0.06352987  0.56225209  0.44429141  1
  Zn  Zn65  1  0.51665133  0.22302259  0.30021022  1
  Zn  Zn66  1  0.55268946  0.33487789  0.56395512  1
  Zn  Zn67  1  0.07026941  -0.05836306  0.83466529  1
  Zn  Zn68  1  0.33428797  0.32290928  0.31968226  1
  Zn  Zn69  1  0.59262987  0.23450469  0.12713127  1
  Zn  Zn70  1  0.26414745  0.12859634  0.04660530  1
  Zn  Zn71  1  0.47961245  0.41944573  0.14450978  1
  Zn  Zn72  1  0.93747606  0.15580681  0.98530662  1
  Zn  Zn73  1  0.80341638  0.79890337  0.78451531  1
  Zn  Zn74  1  0.09603635  0.21838466  0.59717400  1
  Zn  Zn75  1  0.71258097  0.47093240  0.49562661  1
  Zn  Zn76  1  0.44837926  0.55338718  0.27318364  1
  Zn  Zn77  1  0.07885585  0.80440014  0.55597804  1
  Zn  Zn78  1  0.94322708  0.65677611  0.88197033  1
  Zn  Zn79  1  0.70547012  0.42804856  0.90293531  1
  Zn  Zn80  1  0.94701961  0.96873770  0.69839430  1
  Zn  Zn81  1  0.38700061  0.21816032  0.43516508  1
  Zn  Zn82  1  0.66750764  0.26213356  0.78019381  1
  Zn  Zn83  1  0.20197518  0.42792899  0.44340639  1
  Zn  Zn84  1  0.56758804  0.79768522  0.55872036  1
  Zn  Zn85  1  0.68503627  0.54893760  0.32593000  1
  Zn  Zn86  1  0.06236934  0.08264293  0.36798695  1
  Zn  Zn87  1  0.09025466  0.96303391  0.54778299  1
  Zn  Zn88  1  0.78992220  0.57380309  0.62459410  1
  Zn  Zn89  1  1.05976642  0.40106169  0.54703316  1
  Zn  Zn90  1  0.60951549  0.68744149  0.07780483  1
  Zn  Zn91  1  0.65098756  0.14451827  0.62460383  1
  Zn  Zn92  1  0.33003713  0.57964334  0.55694877  1
  Zn  Zn93  1  0.17156236  0.68267745  0.29372038  1
  Zn  Zn94  1  0.68546952  0.69490211  0.68283942  1
  Zn  Zn95  1  0.09771594  0.24399897  0.06558762  1
  Zn  Zn96  1  0.74389427  0.59523723  0.16175548  1
  Zn  Zn97  1  0.25080261  0.17721679  0.68690897  1
  Zn  Zn98  1  0.40277819  0.66588955  0.42318309  1
  Zn  Zn99  1  0.93489407  0.68684289  0.48941574  1
  Zn  Zn100  1  0.47353899  0.64132871  0.90215591  1
  Zn  Zn101  1  0.29836509  0.56433409  0.04961291  1
  O  O102  1  0.15893693  0.07666391  0.03670698  1
  O  O103  1  0.15099075  0.15320134  0.66106448  1
  O  O104  1  0.09546248  0.60719415  0.08595462  1
  O  O105  1  0.15490951  0.61099402  0.58596632  1
  O  O106  1  0.62649661  0.12755049  0.16150548  1
  O  O107  1  0.60767658  0.10258684  0.53443799  1
  O  O108  1  0.63421806  0.57863983  0.10343795  1
  O  O109  1  0.62870713  0.63165706  0.60705797  1
  O  O110  1  0.37061933  0.39984262  0.39930988  1
  O  O111  1  0.39401169  0.40825588  0.87036710  1
  O  O112  1  0.37042520  0.90194996  0.41785366  1
  O  O113  1  0.41962679  0.82730349  0.92940488  1
  O  O114  1  0.88610495  0.40846076  0.33023336  1
  O  O115  1  0.91513549  0.30843647  0.82758943  1
  O  O116  1  0.81327451  0.94805990  0.31353370  1
  O  O117  1  0.92128806  0.80944810  0.97989874  1
  O  O118  1  0.20735423  0.00965324  0.51114150  1
  O  O119  1  0.26889073  -0.01785250  0.86841494  1
  O  O120  1  0.22507126  0.48890647  0.34650191  1
  O  O121  1  0.26637751  0.52953684  0.85031392  1
  O  O122  1  0.67714038  0.03524649  0.35753421  1
  O  O123  1  0.76422256  0.03585641  0.84506900  1
  O  O124  1  0.73182219  0.47276742  0.39249247  1
  O  O125  1  0.76469567  0.50144629  0.84242823  1
  O  O126  1  0.25056137  0.50543700  0.14349675  1
  O  O127  1  0.26183836  0.50586017  0.60896190  1
  O  O128  1  0.24610571  1.01429511  0.11779511  1
  O  O129  1  0.27996067  1.02129427  0.66771094  1
  O  O130  1  0.74748062  0.48684150  0.13893632  1
  O  O131  1  0.71642804  0.49902048  0.59810627  1
  O  O132  1  0.75706334  0.88585830  0.17416261  1
  O  O133  1  0.74846321  0.96595879  0.63032234  1
  O  O134  1  0.02874467  0.34822054  0.29854124  1
  O  O135  1  -0.02360944  0.31693293  0.79550522  1
  O  O136  1  0.03657719  0.82450140  0.31393162  1
  O  O137  1  0.02967540  0.87215353  0.75262769  1
  O  O138  1  0.45030109  0.39313894  0.25355852  1
  O  O139  1  0.50063160  0.41755070  0.75854758  1
  O  O140  1  0.60029842  0.92883792  0.24202976  1
  O  O141  1  0.51660034  0.85571997  0.75016475  1
  O  O142  1  0.44211690  0.14482028  0.25559793  1
  O  O143  1  0.48563091  0.13742256  0.75674014  1
  O  O144  1  0.54465038  0.72079125  0.29277996  1
  O  O145  1  0.46771431  0.64212632  0.74731929  1
  O  O146  1  1.02347841  0.12944936  0.26872751  1
  O  O147  1  0.88674246  0.23255331  0.68979633  1
  O  O148  1  0.99153416  0.69788442  0.39815730  1
  O  O149  1  1.02264971  0.63191519  0.69739090  1
  O  O150  1  0.40763524  0.26459839  -0.05403951  1
  O  O151  1  0.37625112  0.28289867  0.52599517  1
  O  O152  1  0.35491864  0.82468273  0.07222817  1
  O  O153  1  0.39581876  0.75869689  0.48238617  1
  O  O154  1  0.86283854  0.23877072  -0.01252914  1
  O  O155  1  0.84597683  0.25766904  0.51453295  1
  O  O156  1  0.92013007  0.63534389  0.11536311  1
  O  O157  1  0.87210676  0.75479134  0.54113203  1
  O  O158  1  0.17919129  0.22529248  0.51394313  1
  O  O159  1  0.19411665  0.19814131  1.09832906  1
  O  O160  1  0.14718139  0.73815240  0.50572240  1
  O  O161  1  0.10286604  0.70880319  0.96789040  1
  O  O162  1  0.64695569  0.29279193  0.51110244  1
  O  O163  1  0.68208672  0.26598284  1.06050833  1
  O  O164  1  0.64308666  0.73734078  0.50007428  1
  O  O165  1  0.62824090  0.71755311  0.97074296  1
  O  O166  1  0.52460485  0.22939270  0.03710335  1
  O  O167  1  0.49133104  0.26224996  0.62821110  1
  O  O168  1  0.51405513  0.68775230  0.13432120  1
  O  O169  1  0.52574282  0.73838709  0.64666661  1
  O  O170  1  0.95696493  0.23826272  0.21949601  1
  O  O171  1  1.03345890  0.30369742  0.57930616  1
  O  O172  1  1.01763169  0.64502087  0.25086129  1
  O  O173  1  0.99853590  0.77725735  0.63134280  1
  O  O174  1  -0.02377275  0.23393381  0.38591357  1
  O  O175  1  0.01372426  0.17803193  0.89585355  1
  O  O176  1  -0.19077664  0.99788716  0.26400498  1
  O  O177  1  0.00990664  0.73502788  0.84067746  1
  O  O178  1  0.43653165  0.28087277  0.35375840  1
  O  O179  1  0.55395999  0.26608323  0.82554072  1
  O  O180  1  0.43278934  0.84721240  0.24996383  1
  O  O181  1  0.53683752  0.71787784  0.84904493  1
  O  O182  1  0.21981688  0.07768304  0.49734157  1
  O  O183  1  0.23648793  0.19426197  0.93721774  1
  O  O184  1  0.29114941  0.64208292  0.47324748  1
  O  O185  1  0.23749259  0.61851387  0.97383248  1
  O  O186  1  0.72787140  0.18846744  0.45360590  1
  O  O187  1  0.73222927  0.15818156  0.96515068  1
  O  O188  1  0.76615069  0.65325559  0.53747647  1
  O  O189  1  0.86379074  0.60520566  1.08441875  1
  O  O190  1  0.29066106  0.35643053  -0.01909650  1
  O  O191  1  0.27864663  0.39260835  0.51821675  1
  O  O192  1  0.28523284  0.82473987  0.05035632  1
  O  O193  1  0.27024731  0.83901073  0.50757938  1
  O  O194  1  0.74378423  0.32418952  -0.07822408  1
  O  O195  1  0.75752227  0.36816859  0.53685534  1
  O  O196  1  0.73185366  0.84363863  0.03978667  1
  O  O197  1  0.74928622  0.84250740  0.53013021  1
  O  O198  1  0.14784973  0.45259284  0.22871096  1
  O  O199  1  0.17099629  0.53337144  0.71848476  1
  O  O200  1  0.14908684  1.06674808  0.20057887  1
  O  O201  1  0.16388846  0.99761181  0.76943062  1
  O  O202  1  0.62464274  0.47899748  0.26214327  1
  O  O203  1  0.63693602  0.51809228  0.72135213  1
  O  O204  1  0.68133614  1.09461387  0.11659667  1
  O  O205  1  0.63015612  0.97332377  0.76563285  1
  O  O206  1  0.36620072  0.00460919  0.30938416  1
  O  O207  1  0.36210007  -0.03960145  0.77349814  1
  O  O208  1  0.33186558  0.53418881  0.25830738  1
  O  O209  1  0.36618371  0.54567048  0.72408594  1
  O  O210  1  0.68802855  0.06862572  0.29656044  1
  O  O211  1  0.84462938  0.00225456  0.74087301  1
  O  O212  1  0.92264400  0.51228994  0.21137765  1
  O  O213  1  0.92306430  0.42359716  0.86722855  1
  O  O214  1  0.14871736  0.33841055  0.40877815  1
  O  O215  1  0.05781536  0.23841421  0.89114160  1
  O  O216  1  0.17329314  0.90590874  0.36311195  1
  O  O217  1  0.11007121  0.84506819  0.88689361  1
  O  O218  1  0.57481891  0.36213297  0.34291779  1
  O  O219  1  0.60483490  0.43175570  0.84883694  1
  O  O220  1  0.62794048  0.97415575  0.19477760  1
  O  O221  1  0.61999858  0.85034319  0.86715207  1
  O  O222  1  0.36312790  0.18225955  0.07480174  1
  O  O223  1  0.35394509  0.16637928  0.63350865  1
  O  O224  1  0.36502772  0.63655712  0.10057613  1
  O  O225  1  0.36131533  0.66212081  0.62487281  1
  O  O226  1  0.89678074  0.09936045  0.16892233  1
  O  O227  1  0.89076201  0.16413771  0.70129124  1
  O  O228  1  0.93437420  0.46962687  0.15800379  1
  O  O229  1  0.89676149  0.55346650  0.63656156  1
  O  O230  1  0.28041257  0.30150406  0.15409456  1
  O  O231  1  0.28292563  0.29152034  0.65233306  1
  O  O232  1  0.21720677  0.76074969  0.19613387  1
  O  O233  1  0.23830641  0.76039428  0.64357525  1
  O  O234  1  0.75562780  0.28878702  0.08680895  1
  O  O235  1  0.73763278  0.22716673  0.59647691  1
  O  O236  1  0.72993326  0.69495583  0.11285574  1
  O  O237  1  0.77927781  0.77773680  0.66133430  1
  O  O238  1  0.27713545  0.24991644  0.38530300  1
  O  O239  1  0.25611895  0.28357697  0.83074087  1
  O  O240  1  0.23180576  0.74648552  0.36677448  1
  O  O241  1  0.22532144  0.73958463  0.87339939  1
  O  O242  1  0.76022023  0.31098140  0.41107499  1
  O  O243  1  0.74730870  0.19674191  0.81285824  1
  O  O244  1  0.77587886  0.74093695  0.40505982  1
  O  O245  1  0.74057027  0.76428838  0.86639455  1
  O  O246  1  0.00369034  0.17476886  0.07849331  1
  O  O247  1  -0.01008780  0.17064993  0.56120661  1
  O  O248  1  0.00692695  0.58711250  -0.06454389  1
  O  O249  1  0.00196125  0.60890356  0.52983339  1
  O  O250  1  0.45789913  0.07745869  -0.07422223  1
  O  O251  1  0.46496971  0.15706059  0.50273969  1
  O  O252  1  0.48995380  0.60569658  0.00651116  1
  O  O253  1  0.50850572  0.65086136  0.47109590  1
  O  O254  1  0.48870030  0.38142995  0.48531359  1
  O  O255  1  0.50699049  0.39292925  0.95549384  1
  O  O256  1  0.48720754  0.86735220  0.52984908  1
  O  O257  1  0.46564068  0.87906909  0.93812626  1
  O  O258  1  0.97602046  0.37689703  0.46043759  1
  O  O259  1  1.07198409  0.27888018  0.95299850  1
  O  O260  1  1.05445213  0.88138013  0.47180123  1
  O  O261  1  0.92690755  0.74016479  0.98870587  1
  O  O262  1  0.48871483  0.49081372  0.35813844  1
  O  O263  1  0.48972945  0.53505441  0.87168639  1
  O  O264  1  0.49265805  1.02050293  0.42421891  1
  O  O265  1  0.48769600  1.02452777  0.89120424  1
  O  O266  1  1.01472065  0.49830949  0.36836716  1
  O  O267  1  0.98781298  0.42813186  0.84200183  1
  O  O268  1  1.03995193  0.97893694  0.33852085  1
  O  O269  1  0.97295924  0.99755459  0.80619073  1
  O  O270  1  0.04914533  0.03763978  0.13341794  1
  O  O271  1  0.01021402  0.00655489  0.61734721  1
  O  O272  1  0.06166219  0.55414169  0.11860288  1
  O  O273  1  0.04894112  0.49109531  0.62901966  1
  O  O274  1  0.47696278  0.01465714  0.09638611  1
  O  O275  1  0.45384893  -0.00716183  0.65371886  1
  O  O276  1  0.46832753  0.52960707  0.16394478  1
  O  O277  1  0.50849835  0.53807254  0.62662127  1
  O  O278  1  0.28114972  0.40410107  0.24752548  1
  O  O279  1  0.28308747  0.41984878  0.73395056  1
  O  O280  1  0.27191665  0.80307231  0.21196019  1
  O  O281  1  0.24457652  0.89970025  0.73332308  1
  O  O282  1  0.71214128  0.35532830  0.25681212  1
  O  O283  1  0.68453781  0.36403007  0.74738771  1
  O  O284  1  0.73190656  0.77435230  0.23097921  1
  O  O285  1  0.73123642  0.88383776  0.74672083  1
  O  O286  1  0.27946786  0.14062977  0.25279870  1
  O  O287  1  0.27917482  0.09293740  0.77520278  1
  O  O288  1  0.19936942  0.58827205  0.24652975  1
  O  O289  1  0.27223827  0.64254079  0.75921181  1
  O  O290  1  0.74595006  0.08473548  0.14744343  1
  O  O291  1  0.70917475  0.08409661  0.69902652  1
  O  O292  1  0.75555055  0.61456841  0.26781840  1
  O  O293  1  0.76300325  0.62334884  0.72200392  1
  O  O294  1  0.36243051  0.11260874  0.39513807  1
  O  O295  1  0.18161862  0.16940148  0.90027003  1
  O  O296  1  0.41189356  0.64285893  0.31941674  1
  O  O297  1  0.36145479  0.65930280  0.88591324  1
  O  O298  1  0.84957122  0.12604952  0.34619703  1
  O  O299  1  0.90211445  0.06814973  0.92938337  1
  O  O300  1  0.86593314  0.58733179  0.42354508  1
  O  O301  1  0.83989553  0.63878502  0.86373250  1
  O  O302  1  0.08850540  0.34497949  0.10063733  1
  O  O303  1  0.16904746  0.39399532  0.62732567  1
  O  O304  1  0.15087050  0.92197430  0.16650801  1
  O  O305  1  0.15157994  0.88344798  0.60085934  1
  O  O306  1  0.59437070  0.40707796  0.13830154  1
  O  O307  1  0.58838476  0.41219314  0.63415985  1
  O  O308  1  0.63798167  0.79363043  0.11821776  1
  O  O309  1  0.63303705  0.85837325  0.63144130  1
  O  O310  1  0.11810275  0.25295112  0.24081677  1
  O  O311  1  0.21202967  0.24559601  0.78825748  1
  O  O312  1  0.07329435  0.70201525  0.23755615  1
  O  O313  1  0.11660535  0.74788604  0.75184311  1
  O  O314  1  0.57238590  0.28104261  0.22164795  1
  O  O315  1  0.60566819  0.21362349  0.69715963  1
  O  O316  1  0.56444377  0.77727985  0.32836638  1
  O  O317  1  0.62868357  0.75816206  0.75341898  1
  O  O318  1  0.33019215  0.28194552  0.20087775  1
  O  O319  1  0.41108155  0.27219304  0.73905087  1
  O  O320  1  0.42350064  0.78417501  0.22292711  1
  O  O321  1  0.40125769  0.76220930  0.74189763  1
  O  O322  1  0.81575684  0.16268305  0.29664423  1
  O  O323  1  0.84713615  0.38794315  0.70336016  1
  O  O324  1  0.89790872  0.74239091  0.27841993  1
  O  O325  1  0.90369004  0.76870098  0.73749923  1
  O  O326  1  0.39436449  0.50479231  0.50968686  1
  O  O327  1  0.36415567  0.48495000  1.01174676  1
  O  O328  1  0.36482251  1.01527982  0.51077743  1
  O  O329  1  0.31287166  1.05567150  0.98717495  1
  O  O330  1  0.86874960  0.52463609  0.45648837  1
  O  O331  1  0.94359240  0.39567873  1.01496992  1
  O  O332  1  0.90017452  1.05811718  0.50199888  1
  O  O333  1  0.86474666  0.92039916  0.88693838  1
  O  O334  1  0.11881283  -0.05286705  0.03888251  1
  O  O335  1  0.05963944  0.05354233  0.47669996  1
  O  O336  1  0.12984671  0.50984457  -0.02543501  1
  O  O337  1  0.12856570  0.48393063  0.50594478  1
  O  O338  1  0.51634718  -0.02613937  0.05697111  1
  O  O339  1  0.52120036  0.02156812  0.66599073  1
  O  O340  1  0.67297500  0.46178764  0.00241297  1
  O  O341  1  0.60574314  0.52943955  0.50661962  1
  O  O342  1  0.41800819  0.34883586  0.07607824  1
  O  O343  1  0.38609324  0.39135823  0.61698309  1
  O  O344  1  0.38856103  0.88799736  0.08617479  1
  O  O345  1  0.35589163  0.86724405  0.61352373  1
  O  O346  1  1.00995307  0.41582235  0.02120107  1
  O  O347  1  0.90764655  0.38474686  0.66922729  1
  O  O348  1  0.83207260  0.77520768  0.10883268  1
  O  O349  1  0.88765755  0.88820941  0.63150874  1
  O  O350  1  0.11674688  0.18378360  0.36914609  1
  O  O351  1  0.10053550  0.01790418  0.89986203  1
  O  O352  1  0.14444882  0.62565108  0.39848578  1
  O  O353  1  0.14124448  0.62353808  0.85407548  1
  O  O354  1  0.56537207  0.16183801  0.38401870  1
  O  O355  1  0.62379123  0.10943287  0.85778191  1
  O  O356  1  0.64002249  0.62465971  0.39484776  1
  O  O357  1  0.67395045  0.63083657  0.85418291  1
