# generated using pymatgen
data_V51Zn51O256
_symmetry_space_group_name_H-M   'P 1'
_cell_length_a   17.60114682
_cell_length_b   17.63348660
_cell_length_c   17.39220217
_cell_angle_alpha   91.52748497
_cell_angle_beta   89.76192322
_cell_angle_gamma   88.89334782
_symmetry_Int_Tables_number   1
_chemical_formula_structural   V51Zn51O256
_chemical_formula_sum   'V51 Zn51 O256'
_cell_volume   5395.02703740
_cell_formula_units_Z   1
loop_
 _symmetry_equiv_pos_site_id
 _symmetry_equiv_pos_as_xyz
  1  'x, y, z'
loop_
 _atom_site_type_symbol
 _atom_site_label
 _atom_site_symmetry_multiplicity
 _atom_site_fract_x
 _atom_site_fract_y
 _atom_site_fract_z
 _atom_site_occupancy
  V  V0  1  0.32469872  0.23969004  0.60896356  1
  V  V1  1  0.37263953  0.01704699  0.41048691  1
  V  V2  1  -0.01306371  0.01705077  0.01983646  1
  V  V3  1  -0.03030303  0.36228442  0.89142046  1
  V  V4  1  0.79085608  0.88825363  0.12171431  1
  V  V5  1  0.12143129  0.22979382  0.85555405  1
  V  V6  1  0.41117579  0.47945623  0.52332893  1
  V  V7  1  -0.02225844  0.88592138  0.86347193  1
  V  V8  1  0.14364768  0.10115924  -0.02281225  1
  V  V9  1  0.52024815  0.79614955  0.26254327  1
  V  V10  1  0.24453767  0.52727602  0.21269165  1
  V  V11  1  0.02046615  0.78311253  0.70870676  1
  V  V12  1  0.87256950  0.01868868  0.35463569  1
  V  V13  1  0.66758684  0.85528512  0.74888423  1
  V  V14  1  0.91205834  0.63493034  0.78155992  1
  V  V15  1  0.31791085  0.45511330  0.81563499  1
  V  V16  1  0.06047852  0.52222217  0.49998670  1
  V  V17  1  0.17997757  0.67351027  0.51520029  1
  V  V18  1  -0.03251754  0.25534254  0.74206012  1
  V  V19  1  0.01647702  0.74242225  0.26689432  1
  V  V20  1  0.51210241  0.60978093  0.66648110  1
  V  V21  1  0.59677251  0.09477290  0.04010333  1
  V  V22  1  0.86856775  0.02688085  0.88610686  1
  V  V23  1  0.14735276  0.71823971  -0.00344679  1
  V  V24  1  0.56131016  0.23701479  0.35492372  1
  V  V25  1  0.71311789  0.46621900  0.72489216  1
  V  V26  1  0.23659251  0.60310120  0.87626168  1
  V  V27  1  0.23400514  0.27368343  0.00596537  1
  V  V28  1  0.48610467  0.23552271  0.80876596  1
  V  V29  1  0.74046397  0.02451822  0.76087453  1
  V  V30  1  -0.01451530  -0.01714025  0.50878718  1
  V  V31  1  -0.03787948  0.28575074  0.21121387  1
  V  V32  1  0.26939255  0.70089711  0.37436701  1
  V  V33  1  0.38122899  0.66051025  0.24937504  1
  V  V34  1  0.57964687  0.42629174  0.59212641  1
  V  V35  1  0.18155168  0.04030529  0.16399257  1
  V  V36  1  0.04234734  0.90084744  0.36791317  1
  V  V37  1  0.84678461  0.14706382  0.70998895  1
  V  V38  1  0.81932013  0.21396902  0.16626078  1
  V  V39  1  0.76319315  0.72455856  0.03164706  1
  V  V40  1  0.49815368  0.52082385  0.02802412  1
  V  V41  1  0.60364566  0.35378409  0.80258008  1
  V  V42  1  0.38500734  0.76927107  0.65820149  1
  V  V43  1  0.13908534  0.05178519  0.61465922  1
  V  V44  1  0.38708334  0.10244077  0.77826720  1
  V  V45  1  0.05026721  0.16754467  0.47229767  1
  V  V46  1  0.62570452  0.57088385  0.50586668  1
  V  V47  1  0.77717062  0.30605360  0.00161053  1
  V  V48  1  0.40248456  0.39879350  0.37231320  1
  V  V49  1  0.56890762  0.79113829  0.43116728  1
  V  V50  1  0.89417935  0.74212167  0.15205581  1
  Zn  Zn51  1  0.92203275  0.19309667  0.96022228  1
  Zn  Zn52  1  -0.01166068  0.53949540  0.87531261  1
  Zn  Zn53  1  0.85052844  0.83083993  0.32919575  1
  Zn  Zn54  1  0.66296055  0.43595764  0.96920952  1
  Zn  Zn55  1  0.44189227  0.50317938  0.23153742  1
  Zn  Zn56  1  0.10849623  0.90319143  0.95753484  1
  Zn  Zn57  1  0.60969758  0.75478698  0.59732051  1
  Zn  Zn58  1  0.56278934  0.52973856  0.83170507  1
  Zn  Zn59  1  0.93065923  0.96609399  0.70937615  1
  Zn  Zn60  1  0.55465698  0.63472581  0.33456092  1
  Zn  Zn61  1  0.37403462  0.62538972  0.76842260  1
  Zn  Zn62  1  0.12268232  0.59760746  0.32558681  1
  Zn  Zn63  1  0.79787970  0.31691854  0.82216003  1
  Zn  Zn64  1  0.41988920  0.67245015  0.46779040  1
  Zn  Zn65  1  0.69494604  0.75297846  0.30325553  1
  Zn  Zn66  1  0.12038167  0.87427705  0.20344334  1
  Zn  Zn67  1  0.25816855  0.53044246  0.43269068  1
  Zn  Zn68  1  0.18123865  0.95488890  0.46396112  1
  Zn  Zn69  1  0.40620335  0.15339855  0.96350855  1
  Zn  Zn70  1  0.27575545  0.33441989  0.21623458  1
  Zn  Zn71  1  0.80503917  0.05196791  0.07148276  1
  Zn  Zn72  1  0.91898406  0.43899792  0.70838896  1
  Zn  Zn73  1  0.18568001  0.69404937  0.18837498  1
  Zn  Zn74  1  0.16204453  0.20759752  0.15271716  1
  Zn  Zn75  1  0.78641549  0.85377788  0.91035200  1
  Zn  Zn76  1  0.32434865  0.61729711  0.59114335  1
  Zn  Zn77  1  0.38070903  0.07423903  0.15136421  1
  Zn  Zn78  1  0.51136686  0.05432930  0.26339018  1
  Zn  Zn79  1  0.57592573  0.44983736  0.38090553  1
  Zn  Zn80  1  0.92264814  0.19439510  0.34290544  1
  Zn  Zn81  1  0.14460073  0.41999807  0.90480195  1
  Zn  Zn82  1  0.64610926  0.24646588  0.15677694  1
  Zn  Zn83  1  0.31385440  0.27252559  0.85071979  1
  Zn  Zn84  1  0.03574341  0.08859643  0.79229440  1
  Zn  Zn85  1  0.42618624  0.37580324  0.68941611  1
  Zn  Zn86  1  0.48157142  0.93477906  0.70790138  1
  Zn  Zn87  1  0.72143763  0.66865661  0.72107568  1
  Zn  Zn88  1  0.34202862  0.03879698  0.62122880  1
  Zn  Zn89  1  0.04127206  0.06369285  0.30579869  1
  Zn  Zn90  1  0.02699270  0.33709879  0.57777600  1
  Zn  Zn91  1  0.21011805  0.72118104  0.70405945  1
  Zn  Zn92  1  0.31072871  0.62329645  0.06330766  1
  Zn  Zn93  1  0.69691671  0.94252681  0.27161898  1
  Zn  Zn94  1  0.62720236  0.14945460  0.76635879  1
  Zn  Zn95  1  0.86633894  0.11207367  0.51016823  1
  Zn  Zn96  1  0.62956956  0.81814589  0.12005368  1
  Zn  Zn97  1  0.91899223  0.37311261  0.08186633  1
  Zn  Zn98  1  0.93638282  0.95053892  0.20461881  1
  Zn  Zn99  1  0.83414696  0.57509593  0.10000181  1
  Zn  Zn100  1  0.95553235  0.71825961  0.96152864  1
  Zn  Zn101  1  0.48043052  0.29330483  0.52703725  1
  O  O102  1  0.15442461  0.11164836  0.09074726  1
  O  O103  1  0.13760127  0.14947695  0.57290245  1
  O  O104  1  0.20557716  0.69454103  0.07550023  1
  O  O105  1  0.21578241  0.64991698  0.61182460  1
  O  O106  1  0.58112940  0.16167691  0.12596261  1
  O  O107  1  0.73359161  0.10197470  0.51465761  1
  O  O108  1  0.64520106  0.50827861  0.21064742  1
  O  O109  1  0.57558185  0.55079801  0.60569653  1
  O  O110  1  0.33579540  0.35387583  0.32103753  1
  O  O111  1  0.34077957  0.37916096  0.86873526  1
  O  O112  1  0.40769260  0.93150938  0.44527124  1
  O  O113  1  0.44660971  0.92894713  0.95249179  1
  O  O114  1  0.88026231  0.42918342  0.38120411  1
  O  O115  1  0.87787886  0.39008342  0.86893904  1
  O  O116  1  0.90894071  0.92094775  0.34659998  1
  O  O117  1  0.86918869  0.91301317  0.87052808  1
  O  O118  1  0.27278308  0.00978762  0.43710316  1
  O  O119  1  0.36114966  -0.11455459  0.83293786  1
  O  O120  1  0.21887181  0.54077301  0.33170284  1
  O  O121  1  0.22388550  0.49809206  0.86026997  1
  O  O122  1  0.78339999  0.00648223  0.32384313  1
  O  O123  1  0.76354813  0.01515347  0.85782471  1
  O  O124  1  0.70742160  0.43652013  0.33499232  1
  O  O125  1  0.72869538  0.49499686  0.84354128  1
  O  O126  1  0.26553907  0.54118022  0.11672081  1
  O  O127  1  0.21802346  0.35889439  0.47050857  1
  O  O128  1  0.27598108  1.05301866  0.17999056  1
  O  O129  1  0.23165693  1.02639704  0.62339217  1
  O  O130  1  0.69905156  0.48826541  0.16861562  1
  O  O131  1  0.67248490  0.43260519  0.63341765  1
  O  O132  1  0.81717919  0.98205227  0.15172549  1
  O  O133  1  0.84392121  0.81780052  0.58173086  1
  O  O134  1  -0.00424842  0.36547956  0.17164873  1
  O  O135  1  -0.02404791  0.35314950  0.76460474  1
  O  O136  1  0.03702967  0.92203145  0.26386678  1
  O  O137  1  -0.03149636  0.86950653  0.74921116  1
  O  O138  1  0.47642859  0.44149689  0.31655219  1
  O  O139  1  0.49376198  0.33505219  0.77236780  1
  O  O140  1  0.54168592  0.85115910  0.34947806  1
  O  O141  1  0.57625058  0.88898530  0.74013217  1
  O  O142  1  0.43871258  0.13221843  0.22347659  1
  O  O143  1  0.50735951  0.14742330  0.76267894  1
  O  O144  1  0.47329873  0.61035447  0.25893288  1
  O  O145  1  0.53763869  0.60789364  0.76227496  1
  O  O146  1  1.00099520  0.20530204  0.14051720  1
  O  O147  1  0.94400793  0.13931834  0.74052308  1
  O  O148  1  1.03075079  0.65206617  0.29228708  1
  O  O149  1  0.97398537  0.69265686  0.73253944  1
  O  O150  1  0.31534773  0.23629477  -0.04061002  1
  O  O151  1  0.29726030  0.24037714  0.51955768  1
  O  O152  1  0.39353927  0.76451105  -0.02104170  1
  O  O153  1  0.38248428  0.71286777  0.56862695  1
  O  O154  1  0.87404445  0.28428644  0.01378393  1
  O  O155  1  0.80852611  0.31360528  0.45902037  1
  O  O156  1  0.88816619  0.72933863  0.04700043  1
  O  O157  1  0.89250580  0.72045738  0.44706236  1
  O  O158  1  0.03693140  0.26049267  0.49698221  1
  O  O159  1  0.15518073  0.21433642  0.97652826  1
  O  O160  1  0.15608553  0.76164864  0.52725090  1
  O  O161  1  0.16264229  0.81164157  0.97508448  1
  O  O162  1  0.52068025  0.21887483  0.45102237  1
  O  O163  1  0.62889304  0.18158906  1.00385989  1
  O  O164  1  0.63566458  0.66486239  0.52908742  1
  O  O165  1  0.66712059  0.75358640  1.04218184  1
  O  O166  1  0.41100300  0.27040287  0.09465855  1
  O  O167  1  0.54477083  0.10848455  0.60058526  1
  O  O168  1  0.53965812  0.84056990  0.17854496  1
  O  O169  1  0.52337493  0.70049602  0.63907926  1
  O  O170  1  0.86537796  0.30810427  0.16799234  1
  O  O171  1  0.98047957  0.25864769  0.64740342  1
  O  O172  1  0.99464588  0.74219806  0.15731374  1
  O  O173  1  1.01217417  0.78783174  0.61653737  1
  O  O174  1  -0.04171117  0.29376324  0.31029885  1
  O  O175  1  -0.03861039  0.26072883  0.88004280  1
  O  O176  1  0.02447561  0.79949214  0.35412459  1
  O  O177  1  -0.02714468  0.79235151  0.88354073  1
  O  O178  1  0.46432140  0.27500163  0.34521933  1
  O  O179  1  0.47346490  0.22709000  0.90514189  1
  O  O180  1  0.51258595  0.70982836  0.41987942  1
  O  O181  1  0.49310967  0.79399319  0.87724423  1
  O  O182  1  0.15033157  0.13911159  0.49164578  1
  O  O183  1  0.22690911  0.07143492  0.95143091  1
  O  O184  1  0.27756701  0.63987562  0.47496332  1
  O  O185  1  0.29772352  0.62534465  0.94725636  1
  O  O186  1  0.70417935  0.06376311  0.45598439  1
  O  O187  1  0.69769998  0.07042407  1.04634468  1
  O  O188  1  0.71236354  0.53785066  0.50724670  1
  O  O189  1  0.76468434  0.62591162  1.03633598  1
  O  O190  1  0.21328928  0.36180291  -0.02636194  1
  O  O191  1  0.21674917  0.39298355  0.41001233  1
  O  O192  1  0.29866837  0.91826499  -0.02616458  1
  O  O193  1  0.24594093  0.87926097  0.53303772  1
  O  O194  1  0.75760959  0.40370668  0.00644712  1
  O  O195  1  0.83802359  0.48073070  0.40428667  1
  O  O196  1  0.77969230  0.89142287  0.02412719  1
  O  O197  1  0.83734264  0.77220408  0.43184451  1
  O  O198  1  0.15869888  0.58871244  0.21425416  1
  O  O199  1  0.11636906  0.55619450  0.73357732  1
  O  O200  1  0.13260268  1.06948935  0.24547701  1
  O  O201  1  0.08918838  1.05184307  0.69865830  1
  O  O202  1  0.73879549  0.38440191  0.29637734  1
  O  O203  1  0.59040217  0.44814631  0.75923594  1
  O  O204  1  0.60916522  1.00898078  0.27112453  1
  O  O205  1  0.64368078  1.04254561  0.75725164  1
  O  O206  1  0.32863596  -0.01179963  0.32467629  1
  O  O207  1  0.41539067  0.02055648  0.70726851  1
  O  O208  1  0.34083989  0.55404395  0.24708581  1
  O  O209  1  0.32804299  0.42403274  0.72244839  1
  O  O210  1  0.93194880  0.04514424  0.27528788  1
  O  O211  1  0.84123382  0.03393112  0.72049784  1
  O  O212  1  0.83542336  0.51768840  0.24708964  1
  O  O213  1  0.80689014  0.44808866  0.71277376  1
  O  O214  1  0.16251303  0.26031120  0.32057277  1
  O  O215  1  0.09182250  0.32060974  0.88267794  1
  O  O216  1  0.13904370  0.89792620  0.38071725  1
  O  O217  1  0.07302450  0.90538486  0.85037526  1
  O  O218  1  0.58226789  0.33773774  0.37265613  1
  O  O219  1  0.60234972  0.37351593  0.89763195  1
  O  O220  1  0.65824080  0.76029919  0.41258352  1
  O  O221  1  0.69206543  0.84392428  0.84143581  1
  O  O222  1  0.36284486  0.10902733  0.05312367  1
  O  O223  1  0.34243175  0.14817044  0.63474990  1
  O  O224  1  0.36582214  0.67268495  0.15307933  1
  O  O225  1  0.41443995  0.58704353  0.66435078  1
  O  O226  1  0.84000305  0.15140967  0.08976137  1
  O  O227  1  0.84466787  0.15118163  0.61275905  1
  O  O228  1  0.86800191  0.65047603  0.17458725  1
  O  O229  1  0.93440551  0.54042407  0.75855092  1
  O  O230  1  0.23882554  0.27319386  0.10773344  1
  O  O231  1  0.24133334  0.28903166  0.66571970  1
  O  O232  1  0.31088911  0.84226326  0.17806987  1
  O  O233  1  0.29006304  0.78983621  0.67675627  1
  O  O234  1  0.73636447  0.26871237  0.08467786  1
  O  O235  1  0.76893084  0.35990937  0.49611745  1
  O  O236  1  0.78312805  0.77369786  0.12901503  1
  O  O237  1  0.87399975  0.66727069  0.49145130  1
  O  O238  1  0.12222972  0.31938723  0.31923518  1
  O  O239  1  0.21097843  0.23977898  0.82437738  1
  O  O240  1  0.27642299  0.78909408  0.40234337  1
  O  O241  1  0.25948219  0.64759395  0.78988079  1
  O  O242  1  0.65019440  0.22561651  0.39354295  1
  O  O243  1  0.75223720  0.26944481  0.91311010  1
  O  O244  1  0.80497179  0.63592926  0.35532007  1
  O  O245  1  0.78661561  0.74802216  0.93845592  1
  O  O246  1  -0.00929430  0.11381276  -0.00002263  1
  O  O247  1  -0.01042690  0.10715752  0.51981716  1
  O  O248  1  0.05523069  0.70882268  0.01668628  1
  O  O249  1  0.07082613  0.62586351  0.50892507  1
  O  O250  1  0.49604904  0.10100303  0.02766548  1
  O  O251  1  0.55874205  0.03995127  0.59402432  1
  O  O252  1  0.56431294  0.59541553  0.03952310  1
  O  O253  1  0.45247636  0.56232073  0.49996309  1
  O  O254  1  0.43481029  0.38008092  0.47100019  1
  O  O255  1  0.46217137  0.43918243  0.98240393  1
  O  O256  1  0.56887204  0.82743646  0.52421112  1
  O  O257  1  0.54711609  0.78345773  0.92035701  1
  O  O258  1  1.07573035  0.42600085  0.51078969  1
  O  O259  1  0.97751786  0.38434196  0.98833148  1
  O  O260  1  1.00185905  0.89113578  0.47372757  1
  O  O261  1  0.98851319  0.92170414  0.97058587  1
  O  O262  1  0.35590595  0.47800139  0.41717622  1
  O  O263  1  0.50802224  0.54824261  0.92643172  1
  O  O264  1  0.46441883  1.01860125  0.36265777  1
  O  O265  1  0.46342670  0.91021163  1.01816063  1
  O  O266  1  1.07435593  0.52213203  0.39625750  1
  O  O267  1  1.04159740  0.45159984  0.87407078  1
  O  O268  1  1.03018117  1.00293355  0.40116150  1
  O  O269  1  0.95830674  1.01182825  0.83298456  1
  O  O270  1  -0.01587962  0.00312205  0.11425282  1
  O  O271  1  -0.03701804  -0.02522652  0.60384626  1
  O  O272  1  0.00387546  0.56846360  0.08892671  1
  O  O273  1  0.03936864  0.53188180  0.59671464  1
  O  O274  1  0.45390479  -0.00009354  0.18497177  1
  O  O275  1  0.72769653  -0.07460399  0.55494307  1
  O  O276  1  0.47487346  0.50188892  0.12442419  1
  O  O277  1  0.47010932  0.44485517  0.60713541  1
  O  O278  1  0.22762208  0.43254546  0.21418522  1
  O  O279  1  0.18650584  0.32318030  0.61717227  1
  O  O280  1  0.37016933  0.85746453  0.14522297  1
  O  O281  1  0.33403665  0.82532930  0.85215247  1
  O  O282  1  0.87254054  0.46719370  0.21116737  1
  O  O283  1  0.70353237  0.36072588  0.77455626  1
  O  O284  1  0.74557615  0.84517384  0.30135215  1
  O  O285  1  0.73201153  0.92638036  0.71926333  1
  O  O286  1  0.21277693  0.24714300  0.25186489  1
  O  O287  1  0.29467819  0.09425331  0.77617617  1
  O  O288  1  0.27315799  0.69764069  0.26768735  1
  O  O289  1  0.15495703  0.50073165  0.71087191  1
  O  O290  1  0.73258300  0.20137184  0.21151118  1
  O  O291  1  0.74935372  0.13501868  0.74633178  1
  O  O292  1  0.69574582  0.63691594  0.28985834  1
  O  O293  1  0.69821472  0.56407175  0.71724280  1
  O  O294  1  0.37639629  0.11663426  0.40313968  1
  O  O295  1  0.40845345  0.08240990  0.87139455  1
  O  O296  1  0.36806200  0.66205524  0.36609007  1
  O  O297  1  0.37563269  0.53323103  0.82792342  1
  O  O298  1  0.86775162  0.12166612  0.39844934  1
  O  O299  1  0.86224079  0.12328544  0.88890795  1
  O  O300  1  0.74731961  0.59845514  0.33589339  1
  O  O301  1  0.93868744  0.63438396  0.88338914  1
  O  O302  1  0.11367435  0.44593992  0.09697396  1
  O  O303  1  0.12199404  0.33866593  0.65271494  1
  O  O304  1  0.16515898  0.94514354  0.14096075  1
  O  O305  1  0.29765340  0.90020770  0.57715556  1
  O  O306  1  0.60132655  0.33704312  0.13424328  1
  O  O307  1  0.56882570  0.33048978  0.58797763  1
  O  O308  1  0.69585463  0.89580062  0.16233017  1
  O  O309  1  0.73539234  0.90119627  0.48856604  1
  O  O310  1  0.05565771  0.22049397  0.19694980  1
  O  O311  1  0.06494501  0.21606165  0.77022522  1
  O  O312  1  0.11518006  0.77171273  0.23031670  1
  O  O313  1  0.11426157  0.76746489  0.73124128  1
  O  O314  1  0.58092348  0.25103058  0.25749122  1
  O  O315  1  0.60136854  0.24850993  0.80032796  1
  O  O316  1  0.58760056  0.72251113  0.26530651  1
  O  O317  1  0.67782092  0.76494421  0.69142082  1
  O  O318  1  0.38155251  0.36893842  0.17949930  1
  O  O319  1  0.38455421  0.21738693  0.78121768  1
  O  O320  1  0.43022049  0.75872729  0.26323397  1
  O  O321  1  0.40833975  0.72415955  0.74340741  1
  O  O322  1  0.88481830  0.18725446  0.23594543  1
  O  O323  1  0.85621118  0.24941869  0.74686515  1
  O  O324  1  0.91193420  0.75755342  0.26846505  1
  O  O325  1  0.82141327  0.66400545  0.76438873  1
  O  O326  1  0.32478434  0.50325980  0.56172255  1
  O  O327  1  0.41484932  0.57608180  1.03623864  1
  O  O328  1  0.38470011  1.04372111  0.51508150  1
  O  O329  1  0.30182846  0.94330624  1.04013948  1
  O  O330  1  0.96753037  0.52084957  0.47031049  1
  O  O331  1  0.95335602  0.56315382  1.03869157  1
  O  O332  1  0.89038835  1.00262942  0.47118758  1
  O  O333  1  0.87852382  1.01670670  0.98839909  1
  O  O334  1  0.09678399  0.00982266  -0.00696250  1
  O  O335  1  0.10444724  -0.00793295  0.53824417  1
  O  O336  1  0.12560007  0.49193442  0.04666682  1
  O  O337  1  0.16540883  0.52854830  0.50341931  1
  O  O338  1  0.59607811  0.02039438  0.10712101  1
  O  O339  1  0.63910335  0.03349531  0.46598868  1
  O  O340  1  0.58354436  0.46359793  0.04292507  1
  O  O341  1  0.59130387  0.44713177  0.49683222  1
  O  O342  1  0.43237134  0.32912055  0.13371324  1
  O  O343  1  0.41149054  0.29118342  0.61358945  1
  O  O344  1  0.44021916  0.76483791  0.03133703  1
  O  O345  1  0.43364443  0.85281756  0.65335098  1
  O  O346  1  0.86211865  0.46980148  0.12407614  1
  O  O347  1  0.95351421  0.41348821  0.60683353  1
  O  O348  1  0.88499142  0.85772146  0.16333929  1
  O  O349  1  0.84718374  0.75593775  0.61204622  1
  O  O350  1  0.03372623  0.16019800  0.37276379  1
  O  O351  1  0.09769410  0.12608441  0.88194224  1
  O  O352  1  0.16833563  0.67759291  0.39853189  1
  O  O353  1  0.15337043  0.64842676  0.91219347  1
  O  O354  1  0.55303707  0.14159263  0.32811995  1
  O  O355  1  0.59051202  0.04902894  0.95078170  1
  O  O356  1  0.59414206  0.55761114  0.40200293  1
  O  O357  1  0.66977834  0.52165589  0.88677164  1
