# generated using pymatgen
data_V51Zn51O256
_symmetry_space_group_name_H-M   'P 1'
_cell_length_a   17.58311150
_cell_length_b   17.43695869
_cell_length_c   17.53425225
_cell_angle_alpha   90.85738629
_cell_angle_beta   90.57149268
_cell_angle_gamma   90.30634668
_symmetry_Int_Tables_number   1
_chemical_formula_structural   V51Zn51O256
_chemical_formula_sum   'V51 Zn51 O256'
_cell_volume   5374.98091077
_cell_formula_units_Z   1
loop_
 _symmetry_equiv_pos_site_id
 _symmetry_equiv_pos_as_xyz
  1  'x, y, z'
loop_
 _atom_site_type_symbol
 _atom_site_label
 _atom_site_symmetry_multiplicity
 _atom_site_fract_x
 _atom_site_fract_y
 _atom_site_fract_z
 _atom_site_occupancy
  V  V0  1  0.63317433  0.36481027  0.81300723  1
  V  V1  1  0.61937153  0.14697951  0.05885993  1
  V  V2  1  -0.01124473  0.13046206  0.61457298  1
  V  V3  1  0.07849012  -0.04288368  0.60049369  1
  V  V4  1  0.89392012  0.27837407  0.64636541  1
  V  V5  1  0.33703622  0.00744158  0.41042683  1
  V  V6  1  0.74279557  0.46206849  0.25543462  1
  V  V7  1  0.75223000  0.65938692  0.35022414  1
  V  V8  1  0.54134893  0.76740275  0.24198786  1
  V  V9  1  0.66495985  0.22330652  0.91671159  1
  V  V10  1  0.81158716  0.70455270  0.51509609  1
  V  V11  1  0.78881631  0.85270367  0.63124037  1
  V  V12  1  0.91193237  0.36907446  0.48535864  1
  V  V13  1  0.68413777  0.22077352  0.54902761  1
  V  V14  1  0.71721555  0.34955876  0.67237075  1
  V  V15  1  0.40339198  0.69069146  0.09266762  1
  V  V16  1  0.37676004  0.97167455  -0.00576804  1
  V  V17  1  0.09844060  0.61252014  0.40095814  1
  V  V18  1  0.86544330  0.12967229  0.75385987  1
  V  V19  1  0.37650205  0.29943361  0.16654738  1
  V  V20  1  0.69304548  0.34898777  0.14741123  1
  V  V21  1  -0.07541740  0.90383637  0.32958924  1
  V  V22  1  0.84603431  0.62455709  0.75577984  1
  V  V23  1  0.01002161  0.70298260  0.74061486  1
  V  V24  1  0.23958760  0.86046277  0.57894432  1
  V  V25  1  0.28219320  0.92846399  0.14873747  1
  V  V26  1  0.46075768  0.32165879  0.89994381  1
  V  V27  1  0.49985760  0.90223007  0.91223984  1
  V  V28  1  0.44427134  0.54772492  0.79847352  1
  V  V29  1  0.29769014  0.32283966  0.65284344  1
  V  V30  1  0.47166682  0.39097551  0.44263501  1
  V  V31  1  0.01896336  0.71052224  0.11647941  1
  V  V32  1  0.85113890  0.68050697  0.20827599  1
  V  V33  1  0.22626851  0.26201142  0.02866626  1
  V  V34  1  0.02395741  0.21755780  0.76818620  1
  V  V35  1  0.08409625  0.37854930  0.24687195  1
  V  V36  1  0.57709083  -0.03219373  0.50001089  1
  V  V37  1  -0.04707639  -0.00678241  0.48977845  1
  V  V38  1  0.80631259  -0.03823260  0.79687923  1
  V  V39  1  0.92220536  0.20532537  0.11084836  1
  V  V40  1  0.10354874  0.16123114  0.49563307  1
  V  V41  1  -0.09589015  0.41570572  0.94568557  1
  V  V42  1  0.56196082  0.24727016  0.38357496  1
  V  V43  1  0.02901354  0.53695773  0.02595371  1
  V  V44  1  0.63128207  0.60941595  0.52191917  1
  V  V45  1  0.42246144  0.50820579  0.34638304  1
  V  V46  1  0.22174971  0.14868459  0.37496738  1
  V  V47  1  0.54853583  0.21102371  0.22805771  1
  V  V48  1  0.02655302  0.83986865  0.84515187  1
  V  V49  1  0.62610056  0.51198210  0.11685676  1
  V  V50  1  0.35746689  0.00170249  0.79905949  1
  Zn  Zn51  1  0.72297338  0.40251777  0.99420964  1
  Zn  Zn52  1  0.52913611  0.30784942  0.07053654  1
  Zn  Zn53  1  0.49611118  0.07672991  0.34995754  1
  Zn  Zn54  1  0.96146739  1.01781082  0.18028993  1
  Zn  Zn55  1  0.77586203  0.50793923  0.45726574  1
  Zn  Zn56  1  0.16463625  0.94880892  0.45207855  1
  Zn  Zn57  1  0.58345453  0.57965031  0.29629943  1
  Zn  Zn58  1  0.70505018  0.68478794  0.66066167  1
  Zn  Zn59  1  0.94088331  -0.02002370  -0.07530464  1
  Zn  Zn60  1  0.11737164  0.68064673  0.57307245  1
  Zn  Zn61  1  0.28276429  0.44594841  0.49668793  1
  Zn  Zn62  1  0.85099800  0.46943486  0.62647387  1
  Zn  Zn63  1  0.93504959  0.71902027  0.38711130  1
  Zn  Zn64  1  0.76381600  1.03558574  0.54022996  1
  Zn  Zn65  1  0.85674003  0.79483345  0.81388057  1
  Zn  Zn66  1  0.75232050  0.82129232  0.27433130  1
  Zn  Zn67  1  0.62081898  0.41020412  0.51642668  1
  Zn  Zn68  1  0.23778591  0.12679118  0.17084110  1
  Zn  Zn69  1  0.94951624  0.16106205  0.93180516  1
  Zn  Zn70  1  0.20550360  0.75429525  0.08632635  1
  Zn  Zn71  1  0.85189952  0.51628216  0.10187556  1
  Zn  Zn72  1  0.47765548  0.68725132  0.41424850  1
  Zn  Zn73  1  -0.03301050  0.78844086  0.58249386  1
  Zn  Zn74  1  0.42199917  0.49660778  0.15585261  1
  Zn  Zn75  1  0.20986762  0.93706467  0.88620865  1
  Zn  Zn76  1  0.66286142  0.68259060  0.18203055  1
  Zn  Zn77  1  0.04372910  0.33264654  0.04719275  1
  Zn  Zn78  1  1.07406374  0.67458937  0.93364336  1
  Zn  Zn79  1  0.65804807  0.02927014  0.89728820  1
  Zn  Zn80  1  0.39357327  0.20118918  0.44660256  1
  Zn  Zn81  1  0.86961867  0.16758603  0.50090987  1
  Zn  Zn82  1  0.40630617  0.96708279  0.60207356  1
  Zn  Zn83  1  0.11263223  0.41032102  0.45111441  1
  Zn  Zn84  1  0.03107928  0.07604274  0.33742957  1
  Zn  Zn85  1  0.28210233  0.09139888  0.56146324  1
  Zn  Zn86  1  0.82195814  0.28561020  0.83338723  1
  Zn  Zn87  1  0.54565701  0.46639599  0.95408159  1
  Zn  Zn88  1  0.66790963  0.17344798  0.73004091  1
  Zn  Zn89  1  0.41113773  0.91244196  0.29364890  1
  Zn  Zn90  1  0.45058003  0.70408270  0.89531131  1
  Zn  Zn91  1  0.33718128  0.81321266  0.44681676  1
  Zn  Zn92  1  0.17623174  0.15993098  0.67817007  1
  Zn  Zn93  1  0.26042706  0.34267306  0.32643222  1
  Zn  Zn94  1  -0.00502698  0.56021424  0.21894582  1
  Zn  Zn95  1  0.66533117  0.80209567  0.53005680  1
  Zn  Zn96  1  -0.03159415  0.55261106  0.84074471  1
  Zn  Zn97  1  0.43734223  0.46320879  0.62171445  1
  Zn  Zn98  1  0.45640035  0.86555872  0.12212702  1
  Zn  Zn99  1  -0.00388342  0.00460859  0.75556480  1
  Zn  Zn100  1  0.35613458  0.15730021  0.92708353  1
  Zn  Zn101  1  0.28014771  0.31178157  0.85947733  1
  O  O102  1  0.13881551  0.03098456  0.03017332  1
  O  O103  1  0.09601269  0.13163613  0.60363068  1
  O  O104  1  0.11479713  0.72119199  0.13831685  1
  O  O105  1  0.12594244  0.59363198  0.50171510  1
  O  O106  1  0.62267854  0.19653158  0.15630840  1
  O  O107  1  0.49593184  0.21730167  0.69420981  1
  O  O108  1  0.65207656  0.60506379  0.10277554  1
  O  O109  1  0.62724041  0.61552878  0.61931608  1
  O  O110  1  0.38541870  0.45311899  0.43004127  1
  O  O111  1  0.37718377  0.36218193  0.87371278  1
  O  O112  1  0.36489109  0.90717709  0.40050935  1
  O  O113  1  0.41810221  0.96010374  0.88340938  1
  O  O114  1  0.88524540  0.34852119  0.39916844  1
  O  O115  1  0.88064764  0.32369146  0.92127069  1
  O  O116  1  0.82799408  0.89141246  0.32449675  1
  O  O117  1  0.94155858  0.81324272  0.88546016  1
  O  O118  1  0.23925730  0.00369772  0.39282502  1
  O  O119  1  0.27510503  -0.05084279  0.79919952  1
  O  O120  1  0.33405868  0.58644100  0.39483085  1
  O  O121  1  0.35390005  0.52079844  0.80451344  1
  O  O122  1  0.76366422  0.04286309  0.35499004  1
  O  O123  1  0.84325841  -0.05354603  0.88511670  1
  O  O124  1  0.75741547  0.47954822  0.34973023  1
  O  O125  1  0.72623630  0.57446757  0.91059439  1
  O  O126  1  0.23703721  0.46311598  -0.08870970  1
  O  O127  1  0.17439913  0.44641799  0.53301234  1
  O  O128  1  0.24561214  1.01885107  0.14906561  1
  O  O129  1  0.18509818  0.94812849  0.58319341  1
  O  O130  1  0.71679161  0.44730736  0.12831532  1
  O  O131  1  0.74644902  0.43924370  0.65808136  1
  O  O132  1  0.91737933  0.94336400  0.03765468  1
  O  O133  1  0.77583621  0.94657083  0.61158729  1
  O  O134  1  -0.01286563  0.37090660  0.25998095  1
  O  O135  1  0.03793022  0.34018086  0.76833913  1
  O  O136  1  -0.05070834  0.92777404  0.23933724  1
  O  O137  1  0.01741220  0.81959236  0.74811601  1
  O  O138  1  0.50436653  0.27649192  0.30365486  1
  O  O139  1  0.53221312  0.33850761  0.82941424  1
  O  O140  1  0.49077630  0.86821737  0.23024617  1
  O  O141  1  0.58000889  0.98786321  0.71219504  1
  O  O142  1  0.51456916  0.12357827  0.24737350  1
  O  O143  1  0.45306984  0.17132512  0.72532050  1
  O  O144  1  0.55696373  0.66649045  0.22474124  1
  O  O145  1  0.59441135  0.69658912  0.78306221  1
  O  O146  1  1.03752682  0.07351187  0.23177815  1
  O  O147  1  0.98772325  0.11807183  0.73655094  1
  O  O148  1  0.96235468  0.67132693  0.19688100  1
  O  O149  1  1.01212213  0.60518675  0.75164775  1
  O  O150  1  0.35405509  0.22209207  0.08129409  1
  O  O151  1  0.29529389  0.34503871  0.55346695  1
  O  O152  1  0.43183544  0.69260283  -0.00133353  1
  O  O153  1  0.35839054  0.64675035  0.60820927  1
  O  O154  1  0.87977010  0.18479422  0.01765530  1
  O  O155  1  0.89373123  0.27725515  0.53865511  1
  O  O156  1  0.80603275  0.73224612  -0.05046976  1
  O  O157  1  0.90993739  0.72897927  0.49899095  1
  O  O158  1  0.10643189  0.25412655  0.49446961  1
  O  O159  1  0.14025856  0.30138493  1.00569482  1
  O  O160  1  0.09757371  0.70991701  0.44581041  1
  O  O161  1  0.17919675  0.70075969  0.97781302  1
  O  O162  1  0.63844046  0.18441378  0.62733321  1
  O  O163  1  0.59574867  0.23388987  1.00815260  1
  O  O164  1  0.68905543  0.69269359  0.50567751  1
  O  O165  1  0.61312202  0.76013509  1.00683295  1
  O  O166  1  0.47890607  0.25578843  0.16074443  1
  O  O167  1  0.38793042  0.36603727  0.66803617  1
  O  O168  1  0.47271981  0.75446578  0.14263966  1
  O  O169  1  0.50778016  0.82027908  0.69113512  1
  O  O170  1  1.01026426  0.21525931  0.05020206  1
  O  O171  1  0.99670205  0.23792453  0.65415307  1
  O  O172  1  0.98377957  0.79285295  0.09243336  1
  O  O173  1  1.03646428  0.71007838  0.64003853  1
  O  O174  1  -0.05281846  0.17515072  0.35702820  1
  O  O175  1  0.00882819  0.22150126  0.86418839  1
  O  O176  1  -0.03382122  0.81717281  0.35106548  1
  O  O177  1  0.05761126  0.71982316  0.83307690  1
  O  O178  1  0.41933495  0.30855854  0.44922021  1
  O  O179  1  0.44317782  0.22692054  0.91515228  1
  O  O180  1  0.52010453  0.76129942  0.33527187  1
  O  O181  1  0.49278093  0.81062486  0.87981118  1
  O  O182  1  0.20313726  0.13253083  0.49563712  1
  O  O183  1  0.20249913  0.18654815  1.08606234  1
  O  O184  1  0.18666516  0.62886233  0.36758773  1
  O  O185  1  0.28720309  0.62684356  0.94900645  1
  O  O186  1  0.76152228  0.16001991  0.52778180  1
  O  O187  1  0.74586646  0.03874337  1.05815745  1
  O  O188  1  0.80272677  0.62376562  0.44195180  1
  O  O189  1  0.76032008  0.71249541  1.00055187  1
  O  O190  1  0.27524384  0.35999894  0.04634715  1
  O  O191  1  0.22715416  0.40724676  0.40965227  1
  O  O192  1  0.28876895  0.94254752  -0.03414598  1
  O  O193  1  0.23237230  0.85000757  0.47753530  1
  O  O194  1  0.72954139  0.31035003  0.06556450  1
  O  O195  1  0.68188741  0.32779647  0.56439658  1
  O  O196  1  0.70573253  0.89262743  0.01078513  1
  O  O197  1  0.78255357  0.80577588  0.52759344  1
  O  O198  1  0.07682791  0.48178648  0.23468328  1
  O  O199  1  0.15134811  0.54348467  0.67542077  1
  O  O200  1  0.11106069  0.94176430  0.18848703  1
  O  O201  1  0.08466336  0.98065068  0.69556193  1
  O  O202  1  0.64854814  0.50983660  0.23221045  1
  O  O203  1  0.63796175  0.45679724  0.82573410  1
  O  O204  1  0.61258690  0.93157188  0.31276819  1
  O  O205  1  0.72128208  1.00715067  0.81177440  1
  O  O206  1  0.39881829  0.02466389  0.32982735  1
  O  O207  1  0.39950667  -0.00418550  0.71202203  1
  O  O208  1  0.37880144  0.49335085  0.26151260  1
  O  O209  1  0.47616209  0.51387049  0.70865420  1
  O  O210  1  0.82135533  0.02057334  0.20504199  1
  O  O211  1  0.87604520  0.01752526  0.74487623  1
  O  O212  1  0.82511384  0.49009114  0.21137810  1
  O  O213  1  0.86816682  0.54769526  0.69879520  1
  O  O214  1  0.08557555  0.36800983  0.34786545  1
  O  O215  1  -0.08479936  0.45773178  0.86059896  1
  O  O216  1  0.12435303  0.88113443  0.34710123  1
  O  O217  1  0.13924389  0.85077570  0.87414733  1
  O  O218  1  0.57179306  0.34227378  0.42912717  1
  O  O219  1  0.66407028  0.33445549  0.91294376  1
  O  O220  1  0.67833869  0.91652364  0.33228395  1
  O  O221  1  0.58422559  0.94734112  0.89641171  1
  O  O222  1  0.34426659  0.18816418  0.15216761  1
  O  O223  1  0.35896480  0.23390928  0.61873095  1
  O  O224  1  0.39939770  0.59954509  0.12662105  1
  O  O225  1  0.33099060  0.65941711  0.67103264  1
  O  O226  1  0.92650339  0.10364316  0.11712873  1
  O  O227  1  0.88837562  0.14556154  0.63072147  1
  O  O228  1  0.83301924  0.62513182  0.12824259  1
  O  O229  1  0.99330098  0.55720852  0.59861607  1
  O  O230  1  0.26851089  0.32784387  0.11750342  1
  O  O231  1  0.21723853  0.26076503  0.63702241  1
  O  O232  1  0.31385533  0.72867889  0.09868462  1
  O  O233  1  0.20566759  0.75401896  0.59167263  1
  O  O234  1  0.83507437  0.22049329  0.14608971  1
  O  O235  1  0.78740589  0.27470229  0.64856069  1
  O  O236  1  0.76187172  0.87025496  0.04606330  1
  O  O237  1  0.81127875  0.66397153  0.60038281  1
  O  O238  1  0.23110439  0.24481711  0.37580679  1
  O  O239  1  0.27073786  0.23229261  0.93839310  1
  O  O240  1  0.38582692  0.72267243  0.45478564  1
  O  O241  1  0.22347534  0.62300444  0.97820379  1
  O  O242  1  0.62812990  0.21155571  0.47069564  1
  O  O243  1  0.75897352  0.22057245  0.90620375  1
  O  O244  1  0.73950284  0.75434176  0.36624079  1
  O  O245  1  0.77356813  0.76757301  0.88698590  1
  O  O246  1  0.16239555  0.10757259  -0.09746016  1
  O  O247  1  -0.01100391  0.14470472  0.51141012  1
  O  O248  1  0.01499991  0.64986488  0.03147275  1
  O  O249  1  -0.00376290  0.62649254  0.41269076  1
  O  O250  1  0.55009237  0.08658779  0.06597658  1
  O  O251  1  0.36999759  0.17914818  0.56282947  1
  O  O252  1  0.59581171  0.69753332  -0.02172113  1
  O  O253  1  0.54344299  0.62886237  0.48697800  1
  O  O254  1  0.50374059  0.42626671  0.53450438  1
  O  O255  1  0.49391307  0.36844605  0.98579274  1
  O  O256  1  0.59737248  0.86995134  0.48808806  1
  O  O257  1  0.47476581  0.90744852  1.00958169  1
  O  O258  1  1.00850718  0.38929963  0.48553113  1
  O  O259  1  0.99482690  0.42321853  0.99707062  1
  O  O260  1  0.92629184  0.90432041  0.49678573  1
  O  O261  1  1.09206804  0.82983830  0.93595464  1
  O  O262  1  0.49806782  0.44027634  0.35253478  1
  O  O263  1  0.49482478  0.51703874  0.87894534  1
  O  O264  1  0.54376667  1.00175831  0.41263927  1
  O  O265  1  0.57077969  1.05244481  0.74021902  1
  O  O266  1  0.93477406  0.52401185  0.29739480  1
  O  O267  1  1.03983109  0.56097182  0.92402503  1
  O  O268  1  0.96438557  0.99477605  0.38234622  1
  O  O269  1  1.01168666  0.94403096  0.84543069  1
  O  O270  1  0.08676248  -0.12342062  0.17770555  1
  O  O271  1  -0.01790599  0.02040582  0.59864437  1
  O  O272  1  -0.03283062  0.52790150  0.11028969  1
  O  O273  1  0.01277789  0.48971131  0.60314307  1
  O  O274  1  0.63569086  0.01214690  0.19480862  1
  O  O275  1  0.50826864  -0.02214919  0.56948068  1
  O  O276  1  0.53111563  0.50588424  0.12878549  1
  O  O277  1  0.33956275  0.49055949  0.57962948  1
  O  O278  1  0.18454466  0.39958540  0.26051864  1
  O  O279  1  0.17810433  0.36314804  0.85431952  1
  O  O280  1  0.31363109  0.89650945  0.23450426  1
  O  O281  1  0.19852523  0.80265019  0.65870365  1
  O  O282  1  0.73466206  0.35739480  0.24264093  1
  O  O283  1  0.73773488  0.33472503  0.77853654  1
  O  O284  1  0.79869118  0.96408939  0.16721891  1
  O  O285  1  0.79644448  0.86900454  0.75228342  1
  O  O286  1  0.22091099  0.12640177  0.27968418  1
  O  O287  1  0.26059344  0.09921725  0.66576155  1
  O  O288  1  0.25231775  0.71096695  0.25137309  1
  O  O289  1  0.18213416  0.60214636  0.65043225  1
  O  O290  1  0.71580849  0.09180279  0.34107194  1
  O  O291  1  0.77079586  0.13667027  0.73575757  1
  O  O292  1  0.74823802  0.64740636  0.24553410  1
  O  O293  1  0.75314409  0.65319007  0.75334823  1
  O  O294  1  0.32261525  0.12676681  0.40662852  1
  O  O295  1  0.34229391  0.09171225  0.83464073  1
  O  O296  1  0.48068045  0.59157054  0.34406380  1
  O  O297  1  0.44504664  0.65066657  0.80446005  1
  O  O298  1  0.87848877  0.17677065  0.37790664  1
  O  O299  1  0.87390589  0.12972068  0.85042286  1
  O  O300  1  0.86412986  0.66819295  0.31431083  1
  O  O301  1  0.86619559  0.60580306  0.84819924  1
  O  O302  1  0.07956597  0.37972203  0.14359938  1
  O  O303  1  0.07163905  0.37217219  0.71498390  1
  O  O304  1  0.22260486  0.86462524  0.10235783  1
  O  O305  1  0.04838171  0.86601103  0.58917575  1
  O  O306  1  0.59676678  0.35532185  0.14717240  1
  O  O307  1  0.62120972  0.34926375  0.70574323  1
  O  O308  1  0.65264731  0.95559145  0.15593746  1
  O  O309  1  0.70121358  0.79552736  0.64558593  1
  O  O310  1  0.10530359  0.28292617  0.22780673  1
  O  O311  1  0.11895167  0.20263415  0.75982444  1
  O  O312  1  0.16615698  0.83470324  0.31332482  1
  O  O313  1  0.22646695  0.64594347  0.79931336  1
  O  O314  1  0.62421912  0.21445618  0.31345844  1
  O  O315  1  0.62785348  0.20344914  0.82623111  1
  O  O316  1  0.64186509  0.79022097  0.22500986  1
  O  O317  1  0.62236422  0.75687849  0.80728122  1
  O  O318  1  0.33728819  0.31153355  0.25485600  1
  O  O319  1  0.29790507  0.29032666  0.74869288  1
  O  O320  1  0.29555305  0.72808811  0.30464466  1
  O  O321  1  0.48727027  0.75582862  0.67038114  1
  O  O322  1  0.96910712  0.20130775  0.19777719  1
  O  O323  1  0.89289508  0.24010917  0.75320512  1
  O  O324  1  0.82053258  0.77229317  0.19523793  1
  O  O325  1  0.90589188  0.71419610  0.74446391  1
  O  O326  1  0.30068263  0.57377816  0.45646113  1
  O  O327  1  0.17681549  0.43781509  0.87958016  1
  O  O328  1  0.35332243  1.02078191  0.51122315  1
  O  O329  1  0.37779224  1.06763295  0.99642528  1
  O  O330  1  0.85367549  0.45253825  0.51616475  1
  O  O331  1  0.82730666  0.45476077  1.00461733  1
  O  O332  1  0.86576188  1.04694327  0.49492211  1
  O  O333  1  0.99031424  1.06773274  0.96023741  1
  O  O334  1  0.12566879  -0.02921588  -0.00568283  1
  O  O335  1  0.06984479  -0.00941588  0.49437958  1
  O  O336  1  0.11549420  0.52710599  0.05652929  1
  O  O337  1  0.09238706  0.51348724  0.40144730  1
  O  O338  1  0.71909835  0.09543361  0.09511126  1
  O  O339  1  0.65872478  0.01843776  0.52441134  1
  O  O340  1  0.63389314  0.47204291  0.01659730  1
  O  O341  1  0.66834575  0.51166689  0.49985892  1
  O  O342  1  0.40696302  0.38709496  0.13510328  1
  O  O343  1  0.24517790  0.40205363  0.67459311  1
  O  O344  1  0.37275764  0.93780364  0.09569923  1
  O  O345  1  0.33337129  0.87747736  0.59679851  1
  O  O346  1  0.93360833  0.30837598  0.10337892  1
  O  O347  1  0.90893549  0.37220186  0.66100907  1
  O  O348  1  0.97504336  0.95512874  0.08087755  1
  O  O349  1  0.88149990  0.82690836  0.63860712  1
  O  O350  1  0.10951262  0.13204943  0.39155491  1
  O  O351  1  0.15185677  0.05068262  0.85987467  1
  O  O352  1  0.07042116  0.62546954  0.30357550  1
  O  O353  1  0.19782329  0.58531682  0.81881507  1
  O  O354  1  0.49699192  0.17296937  0.41239271  1
  O  O355  1  0.65898013  0.11992403  0.95843722  1
  O  O356  1  0.66508224  0.61597152  0.36558430  1
  O  O357  1  0.67585150  0.61529195  0.88606336  1
