# generated using pymatgen
data_V51Zn51O256
_symmetry_space_group_name_H-M   'P 1'
_cell_length_a   17.36309006
_cell_length_b   17.57262878
_cell_length_c   17.58561232
_cell_angle_alpha   89.76838146
_cell_angle_beta   91.23259998
_cell_angle_gamma   88.98265735
_symmetry_Int_Tables_number   1
_chemical_formula_structural   V51Zn51O256
_chemical_formula_sum   'V51 Zn51 O256'
_cell_volume   5363.49677585
_cell_formula_units_Z   1
loop_
 _symmetry_equiv_pos_site_id
 _symmetry_equiv_pos_as_xyz
  1  'x, y, z'
loop_
 _atom_site_type_symbol
 _atom_site_label
 _atom_site_symmetry_multiplicity
 _atom_site_fract_x
 _atom_site_fract_y
 _atom_site_fract_z
 _atom_site_occupancy
  V  V0  1  0.46811948  0.09929469  0.13243248  1
  V  V1  1  0.39622694  0.75315796  0.13279677  1
  V  V2  1  0.15442472  0.79479745  0.37982547  1
  V  V3  1  0.25194763  0.87641308  0.62108986  1
  V  V4  1  0.88055701  0.61439458  0.78657583  1
  V  V5  1  0.50495176  0.36555736  0.32904147  1
  V  V6  1  -0.01107728  0.35080079  0.82794272  1
  V  V7  1  0.75905614  0.47335445  0.24207956  1
  V  V8  1  0.68247582  0.14392584  -0.02018843  1
  V  V9  1  0.83865939  0.64677209  0.24479237  1
  V  V10  1  0.14875666  0.51526473  0.66242164  1
  V  V11  1  0.88789906  0.01038675  0.89935137  1
  V  V12  1  0.53720431  0.23371479  0.21652445  1
  V  V13  1  0.02076192  0.62685065  0.65473268  1
  V  V14  1  0.12725098  0.61879956  0.45453479  1
  V  V15  1  0.67719842  0.27247456  0.86071460  1
  V  V16  1  0.23655322  0.14722912  0.40698030  1
  V  V17  1  0.64270405  0.44083359  0.11446929  1
  V  V18  1  0.47402914  0.13704150  0.65216743  1
  V  V19  1  0.35889128  0.26463726  0.59982655  1
  V  V20  1  0.02185361  0.09328664  0.13636912  1
  V  V21  1  0.83721237  0.75004248  0.10592926  1
  V  V22  1  0.28255412  0.14697027  0.72501263  1
  V  V23  1  0.73431243  0.61133066  0.90245259  1
  V  V24  1  0.28114311  0.73866092  -0.00959510  1
  V  V25  1  -0.01094264  0.30869019  0.29160166  1
  V  V26  1  0.39796599  0.58854970  0.22803229  1
  V  V27  1  0.62979827  0.88348303  0.27032818  1
  V  V28  1  0.50719011  0.90788315  0.39770448  1
  V  V29  1  0.23817992  0.58710420  0.32926432  1
  V  V30  1  0.92159636  0.83662905  -0.00509086  1
  V  V31  1  0.12925470  0.72419523  0.87594759  1
  V  V32  1  0.69964667  0.53597094  0.74379815  1
  V  V33  1  0.50553952  0.48853045  0.00828623  1
  V  V34  1  0.62350473  0.22971490  0.37953205  1
  V  V35  1  0.49863340  0.24184470  0.79843957  1
  V  V36  1  0.19633323  0.27865354  0.51405893  1
  V  V37  1  0.28507269  0.71189630  0.48542636  1
  V  V38  1  0.90417344  0.73610409  0.57917977  1
  V  V39  1  0.27426850  0.89694787  0.11895022  1
  V  V40  1  0.45401344  0.46838405  0.52962559  1
  V  V41  1  0.34300832  0.24657014  0.13682691  1
  V  V42  1  0.05250761  0.52157872  0.06561958  1
  V  V43  1  0.64707328  0.85444023  0.75559647  1
  V  V44  1  0.26357202  0.03064319  0.86081614  1
  V  V45  1  0.36257677  0.35896429  0.00773447  1
  V  V46  1  0.91433614  0.86075145  0.46842018  1
  V  V47  1  0.06191626  0.76344220  0.23796911  1
  V  V48  1  0.35763169  0.48882084  0.88327602  1
  V  V49  1  0.24363240  0.37616451  0.65543631  1
  V  V50  1  0.79755448  0.05421073  0.73232312  1
  Zn  Zn51  1  0.34741633  0.80765456  0.32650271  1
  Zn  Zn52  1  0.82458572  -0.07692849  0.58138974  1
  Zn  Zn53  1  0.94693908  0.46864178  0.67122007  1
  Zn  Zn54  1  0.85247468  0.15771779  0.03099732  1
  Zn  Zn55  1  0.56834274  0.05750075  0.30187813  1
  Zn  Zn56  1  0.37590043  0.68402561  0.84334018  1
  Zn  Zn57  1  0.55913234  0.29542965  0.55815410  1
  Zn  Zn58  1  0.95436258  0.49296826  0.22762700  1
  Zn  Zn59  1  0.16783494  0.36444329  0.99535599  1
  Zn  Zn60  1  0.97085299  0.70172950  0.39533354  1
  Zn  Zn61  1  0.28115216  0.31377851  0.84601971  1
  Zn  Zn62  1  0.63891122  0.45171492  0.91024018  1
  Zn  Zn63  1  0.16567150  0.19495020  0.94794954  1
  Zn  Zn64  1  0.06687832  0.07647714  0.86189133  1
  Zn  Zn65  1  0.46511390  0.94622955  0.58886765  1
  Zn  Zn66  1  0.54995302  0.28764508  0.03469103  1
  Zn  Zn67  1  0.81863500  0.77060943  0.83691283  1
  Zn  Zn68  1  0.56988324  0.57555870  0.17506173  1
  Zn  Zn69  1  0.42975385  0.42015884  0.70957782  1
  Zn  Zn70  1  0.11716240  0.80541138  0.05964187  1
  Zn  Zn71  1  0.06951401  0.05365035  0.32576366  1
  Zn  Zn72  1  0.80659492  0.29298050  0.31647435  1
  Zn  Zn73  1  0.20322828  0.71459456  0.68288245  1
  Zn  Zn74  1  0.38080991  0.60724968  0.02247282  1
  Zn  Zn75  1  0.19915104  0.07552706  0.57851693  1
  Zn  Zn76  1  0.40160233  0.58190729  0.42795674  1
  Zn  Zn77  1  0.05763444  0.33072662  0.63385571  1
  Zn  Zn78  1  0.01093671  0.24383403  -0.00357846  1
  Zn  Zn79  1  0.69313926  0.99298756  0.85892770  1
  Zn  Zn80  1  0.45156054  0.41040770  0.15664512  1
  Zn  Zn81  1  0.14894190  0.22534785  0.19680375  1
  Zn  Zn82  1  0.07026066  0.54774618  0.83167532  1
  Zn  Zn83  1  0.25331376  0.48229855  0.51418412  1
  Zn  Zn84  1  0.54283679  0.59112467  0.84531101  1
  Zn  Zn85  1  0.74331001  0.58985464  0.09196962  1
  Zn  Zn86  1  0.23241324  0.73416484  0.20345925  1
  Zn  Zn87  1  0.94897896  0.28787020  0.46965699  1
  Zn  Zn88  1  0.39854447  0.23891529  0.33754667  1
  Zn  Zn89  1  0.89601679  0.61765530  -0.00813650  1
  Zn  Zn90  1  0.81755171  0.60188063  0.63424810  1
  Zn  Zn91  1  0.44504502  0.91314606  0.21189849  1
  Zn  Zn92  1  0.65344096  0.19411545  0.68969058  1
  Zn  Zn93  1  0.08557231  0.78871065  0.55292897  1
  Zn  Zn94  1  0.30298059  0.08234121  0.03559918  1
  Zn  Zn95  1  0.78602974  0.41473908  0.80887166  1
  Zn  Zn96  1  0.25729927  0.83479242  0.81739495  1
  Zn  Zn97  1  0.83219821  0.82938439  0.29054771  1
  Zn  Zn98  1  0.62688730  0.45489952  0.33501133  1
  Zn  Zn99  1  0.71513874  0.86888023  0.42460739  1
  Zn  Zn100  1  0.65191068  0.73695069  0.14640509  1
  Zn  Zn101  1  0.10613476  0.62271409  0.17355923  1
  O  O102  1  0.11914914  0.11385199  0.17227741  1
  O  O103  1  0.08379349  0.02753247  0.56455108  1
  O  O104  1  0.23388670  0.45062764  0.17153548  1
  O  O105  1  0.13009512  0.62590842  0.65415999  1
  O  O106  1  0.55976967  0.06907334  0.07627370  1
  O  O107  1  0.56984529  0.12734784  0.64798770  1
  O  O108  1  0.64735012  0.63305690  0.13019415  1
  O  O109  1  0.52861814  0.67660865  0.62903762  1
  O  O110  1  0.41948647  0.34325232  0.36957593  1
  O  O111  1  0.36204314  0.37066942  0.90395733  1
  O  O112  1  0.43181331  0.84531956  0.38639182  1
  O  O113  1  0.24462144  0.93503654  0.86124504  1
  O  O114  1  0.85427583  0.34071201  0.41831996  1
  O  O115  1  0.89441815  0.39932743  0.82712265  1
  O  O116  1  0.90171831  0.85612092  0.37022787  1
  O  O117  1  0.89109694  0.81466784  0.90408755  1
  O  O118  1  0.24332508  0.05453332  0.40604617  1
  O  O119  1  0.18047192  0.08869041  0.87159043  1
  O  O120  1  0.24118918  0.49530948  0.33260342  1
  O  O121  1  0.26414181  0.48922705  0.87406367  1
  O  O122  1  0.79520388  0.03426667  0.41344618  1
  O  O123  1  0.80619003  0.00304544  0.82846558  1
  O  O124  1  0.72944872  0.49330206  0.33465115  1
  O  O125  1  0.72655451  0.49447427  0.86276145  1
  O  O126  1  0.23259189  0.50232007  0.12512137  1
  O  O127  1  0.24621127  0.48856667  0.63522200  1
  O  O128  1  0.29875536  0.97726231  0.07446049  1
  O  O129  1  0.23087864  0.96880887  0.59666248  1
  O  O130  1  0.74193429  0.48034391  0.12708806  1
  O  O131  1  0.71282011  0.58745396  0.65989379  1
  O  O132  1  0.79994271  1.04896808  0.23183218  1
  O  O133  1  0.79708853  0.98866234  0.65792106  1
  O  O134  1  -0.03033611  0.40534942  0.28884562  1
  O  O135  1  -0.00992750  0.37160847  0.72182990  1
  O  O136  1  0.00154277  0.83039668  0.20959586  1
  O  O137  1  0.05151221  0.99114522  0.70928563  1
  O  O138  1  0.50825048  0.34160095  0.22743916  1
  O  O139  1  0.46886134  0.32150062  0.74880476  1
  O  O140  1  0.52728110  0.86870839  0.27162418  1
  O  O141  1  0.54961888  0.87280352  0.73409785  1
  O  O142  1  0.51731417  0.12603588  0.22284797  1
  O  O143  1  0.46281519  0.15524431  0.75354619  1
  O  O144  1  0.49287406  0.60723388  0.24421410  1
  O  O145  1  0.47959751  0.67404557  0.81680299  1
  O  O146  1  1.01062965  0.10685353  0.24085116  1
  O  O147  1  1.00817755  0.17025184  0.69810946  1
  O  O148  1  1.02035050  0.67483251  0.22590633  1
  O  O149  1  0.99866187  0.61613106  0.75055446  1
  O  O150  1  0.35452376  0.26170855  0.02011662  1
  O  O151  1  0.33270694  0.26328878  0.51025100  1
  O  O152  1  0.38861029  0.73019125  0.02869957  1
  O  O153  1  0.37838731  0.68481279  0.47384644  1
  O  O154  1  0.90458985  0.24604656  0.00734604  1
  O  O155  1  0.84680163  0.21522505  0.50256967  1
  O  O156  1  0.90074018  0.72406124  0.02765011  1
  O  O157  1  0.90184632  0.74005196  0.47949687  1
  O  O158  1  0.10232249  0.28015255  0.54604674  1
  O  O159  1  0.11232700  0.27365621  1.02834606  1
  O  O160  1  0.14939819  0.72636324  0.47101090  1
  O  O161  1  0.17500588  0.76769588  0.96518277  1
  O  O162  1  0.60274370  0.23417840  0.47302626  1
  O  O163  1  0.60315822  0.20046146  0.99665442  1
  O  O164  1  0.64698152  0.71588342  0.53188540  1
  O  O165  1  0.66255286  0.90914198  1.03317385  1
  O  O166  1  0.50180769  0.22424005  0.12031075  1
  O  O167  1  0.46244313  0.23071391  0.59683559  1
  O  O168  1  0.48882311  0.74462682  0.15035081  1
  O  O169  1  0.45430825  0.89222411  0.67920434  1
  O  O170  1  1.02019723  0.19189628  0.09820729  1
  O  O171  1  0.94679678  0.12847830  0.55461174  1
  O  O172  1  1.12864524  0.74172776  0.15118795  1
  O  O173  1  1.01472890  0.72598341  0.61947964  1
  O  O174  1  0.01193066  0.28130467  0.38428119  1
  O  O175  1  -0.06593256  0.26971509  0.81551740  1
  O  O176  1  0.05413042  0.76116056  0.34917388  1
  O  O177  1  0.04341273  0.76061033  0.86640830  1
  O  O178  1  0.51874868  0.23674304  0.32543755  1
  O  O179  1  0.47137816  0.24592552  0.88632016  1
  O  O180  1  0.59725859  0.76651747  0.52884167  1
  O  O181  1  0.51599512  0.81897213  0.97000777  1
  O  O182  1  0.21666435  0.16236803  0.51148257  1
  O  O183  1  0.21009869  0.13947729  1.02935253  1
  O  O184  1  0.24951695  0.62488494  0.43065386  1
  O  O185  1  0.26863382  0.64584267  1.00284015  1
  O  O186  1  0.69395984  0.09217073  0.52766367  1
  O  O187  1  0.74873981  0.13575924  1.05427731  1
  O  O188  1  0.73227282  0.58102015  0.48802224  1
  O  O189  1  0.78385527  0.58412795  0.98960609  1
  O  O190  1  0.27134415  0.39471907  0.02174451  1
  O  O191  1  0.22419033  0.37598812  0.52999073  1
  O  O192  1  0.15325218  0.98248945  -0.00845663  1
  O  O193  1  0.29242089  0.82788414  0.52109749  1
  O  O194  1  0.83005759  0.41856273  0.00560470  1
  O  O195  1  0.79117257  0.35596978  0.47261430  1
  O  O196  1  0.72651229  0.91913093  0.00708562  1
  O  O197  1  0.79179859  0.85957168  0.49708657  1
  O  O198  1  0.20411742  0.34684899  0.28103253  1
  O  O199  1  0.15070291  0.51582319  0.75652977  1
  O  O200  1  0.09974202  0.96315658  0.28276444  1
  O  O201  1  -0.01346968  1.02190291  0.69432216  1
  O  O202  1  0.64601501  0.47285180  0.22029051  1
  O  O203  1  0.60342710  0.54364287  0.76268603  1
  O  O204  1  0.63493326  0.97889507  0.25364664  1
  O  O205  1  0.65390790  0.96478945  0.75489086  1
  O  O206  1  0.33921563  -0.08613596  0.26918851  1
  O  O207  1  0.46606574  -0.01304833  0.81340498  1
  O  O208  1  0.39227786  0.49596537  0.20460836  1
  O  O209  1  0.39767499  0.47878133  0.79462179  1
  O  O210  1  0.83177041  -0.01033803  0.25528153  1
  O  O211  1  0.87261577  0.10716451  0.72418396  1
  O  O212  1  0.84863927  0.53216471  0.23786398  1
  O  O213  1  0.87285007  0.53536473  0.71628196  1
  O  O214  1  -0.03398008  0.48211789  0.44863783  1
  O  O215  1  0.07550217  0.30400364  0.81321546  1
  O  O216  1  0.14515972  0.88127027  0.41024805  1
  O  O217  1  0.10055376  1.02914656  0.75578391  1
  O  O218  1  0.60037652  0.34610981  0.36802782  1
  O  O219  1  0.63546932  0.34051190  0.91675203  1
  O  O220  1  0.60956064  0.87631002  0.38746928  1
  O  O221  1  0.65284921  0.88857172  0.85942295  1
  O  O222  1  0.37317475  0.13986587  0.10626860  1
  O  O223  1  0.34907708  0.16953509  0.64994468  1
  O  O224  1  0.36978458  0.63583382  0.14096179  1
  O  O225  1  0.38842245  0.61360778  0.66374308  1
  O  O226  1  0.92366632  0.11436851  0.11148513  1
  O  O227  1  0.84931596  0.15797179  0.54551158  1
  O  O228  1  0.84036994  0.64093840  0.13585722  1
  O  O229  1  0.93032236  0.61966985  0.60224886  1
  O  O230  1  0.24587974  0.24418422  0.14941706  1
  O  O231  1  0.24446155  0.27542956  0.62979208  1
  O  O232  1  0.27228856  0.78979251  0.08197537  1
  O  O233  1  0.26192241  0.69081173  0.57624477  1
  O  O234  1  0.79821557  0.35708813  -0.00151924  1
  O  O235  1  0.81885531  0.26319513  0.66483084  1
  O  O236  1  0.74405430  0.75320731  0.07712493  1
  O  O237  1  0.81435996  0.70920257  0.60471201  1
  O  O238  1  0.19258412  0.27090033  0.41961477  1
  O  O239  1  0.19543333  0.29523074  0.91224706  1
  O  O240  1  0.26259401  0.77228688  0.39134466  1
  O  O241  1  0.31354522  0.76278067  0.89510442  1
  O  O242  1  0.71976987  0.24983348  0.36261209  1
  O  O243  1  0.74270208  0.31400044  0.80646844  1
  O  O244  1  0.63220666  0.67484788  0.39018414  1
  O  O245  1  0.75907141  0.70625627  0.90109431  1
  O  O246  1  0.06510240  0.05180497  0.05990138  1
  O  O247  1  -0.01317139  0.17818003  0.52355448  1
  O  O248  1  0.10830541  0.60079368  0.06287909  1
  O  O249  1  0.03058017  0.63118504  0.46588844  1
  O  O250  1  0.49834936  0.07802451  0.02912879  1
  O  O251  1  0.47995075  0.11536480  0.46156435  1
  O  O252  1  0.49424176  0.58150557  0.03258504  1
  O  O253  1  0.49851026  0.54160521  0.48083062  1
  O  O254  1  0.49838003  0.38013659  0.51569120  1
  O  O255  1  0.48015131  0.37541487  1.03096345  1
  O  O256  1  0.50722708  0.92994051  0.49409808  1
  O  O257  1  0.50104961  0.88029790  0.99990444  1
  O  O258  1  0.95958909  0.34765597  0.56837320  1
  O  O259  1  0.99487621  0.33979949  0.92719255  1
  O  O260  1  1.01189156  0.84308146  0.48933236  1
  O  O261  1  1.01781236  0.83484770  1.01364824  1
  O  O262  1  0.51390475  0.46342365  0.33072422  1
  O  O263  1  0.52871807  0.49216043  0.90990280  1
  O  O264  1  0.49173744  0.99420580  0.35085208  1
  O  O265  1  0.45377556  0.92795664  0.84854437  1
  O  O266  1  0.90061238  0.50047354  0.46612117  1
  O  O267  1  1.02803152  0.44698119  0.83982812  1
  O  O268  1  0.94217803  1.05253561  0.37286763  1
  O  O269  1  0.97427409  1.01898004  0.85608700  1
  O  O270  1  -0.00366958  -0.00128244  0.15531729  1
  O  O271  1  0.05552986  0.01781490  0.49585226  1
  O  O272  1  0.03984321  0.51522038  0.16740139  1
  O  O273  1  0.04009977  0.52021972  0.63538672  1
  O  O274  1  0.44463620  0.01206708  0.16191611  1
  O  O275  1  0.44358751  0.05188579  0.61645547  1
  O  O276  1  0.53776502  0.47624258  0.12478030  1
  O  O277  1  0.45913971  0.48502616  0.62587265  1
  O  O278  1  0.27257972  0.34963965  0.29748128  1
  O  O279  1  0.25930352  0.37215836  0.74956455  1
  O  O280  1  0.27439569  0.91833451  0.22308855  1
  O  O281  1  0.28330030  0.86947682  0.71297562  1
  O  O282  1  0.78543133  0.38187657  0.24607701  1
  O  O283  1  0.73001625  0.44690592  0.71652469  1
  O  O284  1  0.72897931  0.85689560  0.31498842  1
  O  O285  1  0.74750620  0.83380972  0.77776686  1
  O  O286  1  0.19109958  0.16967587  0.29879946  1
  O  O287  1  0.19756038  0.12824895  0.67866727  1
  O  O288  1  0.21097357  0.62271880  0.23594023  1
  O  O289  1  0.31358570  0.69137748  0.73841005  1
  O  O290  1  0.77784434  0.09801401  0.38973101  1
  O  O291  1  0.71791126  0.11525940  0.72983437  1
  O  O292  1  0.74876924  0.65067375  0.27132131  1
  O  O293  1  0.77078681  0.60671705  0.79717752  1
  O  O294  1  0.32741433  0.17732238  0.38412400  1
  O  O295  1  0.30907425  0.06024216  0.77269229  1
  O  O296  1  0.35113325  0.60278850  0.32248990  1
  O  O297  1  0.37887777  0.59024299  0.90415175  1
  O  O298  1  0.92715703  0.12168826  0.37949871  1
  O  O299  1  0.87138030  0.09259907  0.94464868  1
  O  O300  1  0.89868994  0.65795644  0.32350011  1
  O  O301  1  0.90754276  0.59963636  0.87824278  1
  O  O302  1  -0.02400685  0.36717003  0.09027349  1
  O  O303  1  0.13748054  0.40398019  0.65381818  1
  O  O304  1  0.17647364  0.89306651  0.10579426  1
  O  O305  1  0.16997836  0.81379750  0.62239524  1
  O  O306  1  0.64183355  0.34742660  0.10282887  1
  O  O307  1  0.63606493  0.28314795  0.63433445  1
  O  O308  1  0.64687756  0.83387350  0.18645365  1
  O  O309  1  0.67452443  0.84543851  0.66376385  1
  O  O310  1  0.06362257  0.28339860  0.23107214  1
  O  O311  1  0.05894294  0.21085271  0.67042217  1
  O  O312  1  0.16643993  0.79627454  0.27733290  1
  O  O313  1  0.18252969  0.75180675  0.79122754  1
  O  O314  1  0.63058269  0.23704980  0.21822842  1
  O  O315  1  0.60551690  0.22998269  0.79794066  1
  O  O316  1  0.56467170  0.69484782  0.38056116  1
  O  O317  1  0.61689756  0.76655100  0.78110212  1
  O  O318  1  0.38275417  0.22987767  0.22613197  1
  O  O319  1  0.27990766  0.21710569  0.79037790  1
  O  O320  1  0.34172520  0.74955346  0.22815014  1
  O  O321  1  0.37347512  0.68100267  0.67910560  1
  O  O322  1  0.90223871  0.26307714  0.27114131  1
  O  O323  1  0.79824203  0.31699314  0.62429849  1
  O  O324  1  0.84700841  0.75623962  0.21217284  1
  O  O325  1  0.87362895  0.70835015  0.76186069  1
  O  O326  1  0.35809788  0.49033682  0.48776775  1
  O  O327  1  0.39579326  0.48033339  0.99581154  1
  O  O328  1  0.42061169  1.07943993  0.45998094  1
  O  O329  1  0.32662399  1.05242702  0.93196539  1
  O  O330  1  0.77366774  0.42457480  0.48092343  1
  O  O331  1  0.96419849  0.53640305  1.02106130  1
  O  O332  1  0.90428643  0.95367815  0.49681872  1
  O  O333  1  0.89755809  0.94156331  0.97269798  1
  O  O334  1  0.09162915  -0.02599748  -0.04167792  1
  O  O335  1  0.08966862  0.05979119  0.44237015  1
  O  O336  1  0.10142151  0.44575270  0.02427837  1
  O  O337  1  0.15556743  0.54287412  0.51343696  1
  O  O338  1  0.66136188  0.05886028  -0.06592162  1
  O  O339  1  0.64668492  0.05018964  0.49793758  1
  O  O340  1  0.62414476  0.47818418  0.01999806  1
  O  O341  1  0.57310083  0.63017595  0.60210062  1
  O  O342  1  0.36519951  0.34662546  0.12923080  1
  O  O343  1  0.35643226  0.36257172  0.63173578  1
  O  O344  1  0.38648093  0.85775600  0.13151178  1
  O  O345  1  0.34674927  0.84370037  0.57924417  1
  O  O346  1  0.91757202  0.34471193  0.12112977  1
  O  O347  1  0.90655934  0.40223869  0.58697679  1
  O  O348  1  0.86707092  0.84594188  0.08461818  1
  O  O349  1  0.90100432  0.83224085  0.59949721  1
  O  O350  1  0.13431323  0.14874959  0.34774802  1
  O  O351  1  0.05576616  0.17045752  0.92240031  1
  O  O352  1  0.13023387  0.59617502  0.35805544  1
  O  O353  1  0.11943530  0.62660356  0.88206967  1
  O  O354  1  0.62190812  0.13234867  0.36078275  1
  O  O355  1  0.73269224  0.20163927  0.91111094  1
  O  O356  1  0.66972694  0.55130233  0.49635073  1
  O  O357  1  0.63770306  0.61537899  0.91167487  1
