# generated using pymatgen
data_V51Zn51O256
_symmetry_space_group_name_H-M   'P 1'
_cell_length_a   17.77691032
_cell_length_b   17.96583712
_cell_length_c   17.84653550
_cell_angle_alpha   90.32012844
_cell_angle_beta   89.92362855
_cell_angle_gamma   89.33334449
_symmetry_Int_Tables_number   1
_chemical_formula_structural   V51Zn51O256
_chemical_formula_sum   'V51 Zn51 O256'
_cell_volume   5699.29396548
_cell_formula_units_Z   1
loop_
 _symmetry_equiv_pos_site_id
 _symmetry_equiv_pos_as_xyz
  1  'x, y, z'
loop_
 _atom_site_type_symbol
 _atom_site_label
 _atom_site_symmetry_multiplicity
 _atom_site_fract_x
 _atom_site_fract_y
 _atom_site_fract_z
 _atom_site_occupancy
  V  V0  1  0.59414518  0.02628452  0.69336962  1
  V  V1  1  0.35917077  0.72201882  0.12939683  1
  V  V2  1  0.84597467  0.48897526  0.43052552  1
  V  V3  1  -0.04232173  0.29916849  0.26124012  1
  V  V4  1  0.64788316  0.34346388  0.25976221  1
  V  V5  1  0.00267679  0.15791758  0.66702218  1
  V  V6  1  0.61041826  0.86524356  0.74089033  1
  V  V7  1  0.83548686  0.01499897  0.93622143  1
  V  V8  1  0.50953912  0.37895905  0.84330161  1
  V  V9  1  0.37176885  0.52077930  0.37935062  1
  V  V10  1  0.75389164  0.25058040  -0.01411662  1
  V  V11  1  0.28076164  0.67727608  0.52803898  1
  V  V12  1  0.87992489  0.60428471  0.72909278  1
  V  V13  1  0.12641217  0.10374762  0.45354468  1
  V  V14  1  0.49075573  0.62480790  0.12734580  1
  V  V15  1  0.73770868  0.35247384  0.12166200  1
  V  V16  1  0.51565693  0.23144618  0.74449712  1
  V  V17  1  0.26450013  0.03109142  0.74830827  1
  V  V18  1  0.88279559  0.62576078  0.26227207  1
  V  V19  1  -0.05286514  0.15691313  0.15056641  1
  V  V20  1  0.72219787  0.37600504  0.63513820  1
  V  V21  1  0.08781965  -0.01456610  0.12142489  1
  V  V22  1  0.78213046  0.76773837  -0.03761619  1
  V  V23  1  0.27934885  0.91843462  0.56227591  1
  V  V24  1  0.35071357  0.26449427  0.66543057  1
  V  V25  1  -0.03131125  0.61309260  0.57930408  1
  V  V26  1  0.64230100  0.10608766  0.53658379  1
  V  V27  1  0.77017410  0.84736049  0.13199127  1
  V  V28  1  0.58156303  0.15917447  0.01289454  1
  V  V29  1  0.02281510  0.44960037  0.48978602  1
  V  V30  1  0.09417047  0.74393106  0.40791098  1
  V  V31  1  0.87441714  0.27914178  0.60551066  1
  V  V32  1  0.27007097  0.63172009  0.85755088  1
  V  V33  1  0.12397131  0.60557534  0.50120848  1
  V  V34  1  0.01520155  0.80495867  0.74818363  1
  V  V35  1  0.54274181  0.62104262  0.63901490  1
  V  V36  1  0.09817994  0.48953115  0.63928768  1
  V  V37  1  0.35465184  0.45569897  0.84705074  1
  V  V38  1  0.72075890  0.76813761  0.47746453  1
  V  V39  1  0.27638092  0.87985665  0.19721941  1
  V  V40  1  0.10878106  0.23151060  0.90117221  1
  V  V41  1  0.59868120  -0.08193741  0.09493773  1
  V  V42  1  0.51918328  0.49993170  0.48846178  1
  V  V43  1  0.76545709  0.00380036  0.23409619  1
  V  V44  1  0.71639410  0.58116716  0.20949687  1
  V  V45  1  0.37335815  0.30647269  0.44291282  1
  V  V46  1  0.31385848  0.10446608  0.92454260  1
  V  V47  1  0.40603078  0.40216887  0.00373342  1
  V  V48  1  0.81108229  0.02686930  0.73353005  1
  V  V49  1  0.22244047  0.26055948  0.47427262  1
  V  V50  1  0.51489471  0.52955508  -0.04405707  1
  Zn  Zn51  1  0.17628502  0.20175986  0.71340340  1
  Zn  Zn52  1  0.43320543  0.92914193  0.67919982  1
  Zn  Zn53  1  0.09223831  0.14132615  0.04318560  1
  Zn  Zn54  1  0.70957890  0.18477500  0.70286685  1
  Zn  Zn55  1  0.29840173  0.82462093  0.39593755  1
  Zn  Zn56  1  0.65904433  0.72665527  0.13019881  1
  Zn  Zn57  1  0.50497323  0.08067129  0.85859288  1
  Zn  Zn58  1  0.44941370  0.38431778  0.27702400  1
  Zn  Zn59  1  0.79270604  0.33398285  0.34289107  1
  Zn  Zn60  1  0.82008273  0.12726293  0.57892664  1
  Zn  Zn61  1  0.07779187  0.06012521  0.27177583  1
  Zn  Zn62  1  0.27748637  0.11958284  0.58358118  1
  Zn  Zn63  1  0.69153244  0.18163331  0.16822510  1
  Zn  Zn64  1  0.92628278  0.71049035  0.86120111  1
  Zn  Zn65  1  0.71306424  0.05491830  0.04374563  1
  Zn  Zn66  1  0.40501215  0.69919717  0.94316864  1
  Zn  Zn67  1  0.45637817  0.58422793  0.80838482  1
  Zn  Zn68  1  0.88622079  0.46678121  0.61503024  1
  Zn  Zn69  1  0.07595026  0.31069734  0.60633070  1
  Zn  Zn70  1  0.20864037  0.75402351  0.24553287  1
  Zn  Zn71  1  0.11445634  0.64806200  0.71714195  1
  Zn  Zn72  1  0.60586956  0.35762357  -0.01276569  1
  Zn  Zn73  1  0.41496623  0.85609935  0.05280073  1
  Zn  Zn74  1  0.85421453  0.86844469  0.81369949  1
  Zn  Zn75  1  0.93312631  0.18501739  0.96012870  1
  Zn  Zn76  1  0.14898329  0.91586882  0.48269726  1
  Zn  Zn77  1  0.53146633  0.34711142  0.56452026  1
  Zn  Zn78  1  0.69401311  0.94853590  0.42362065  1
  Zn  Zn79  1  0.90516614  0.68503302  0.43401231  1
  Zn  Zn80  1  0.94971831  0.19735307  0.47715920  1
  Zn  Zn81  1  0.89009937  0.98790810  0.11702650  1
  Zn  Zn82  1  0.84129443  0.44030886  0.23047522  1
  Zn  Zn83  1  0.31314161  0.57768743  0.02262458  1
  Zn  Zn84  1  0.71126205  0.70102506  0.67625245  1
  Zn  Zn85  1  0.66886256  0.31176767  0.81517039  1
  Zn  Zn86  1  0.43297365  0.43137215  0.67161433  1
  Zn  Zn87  1  0.23118519  0.45682676  0.47961333  1
  Zn  Zn88  1  0.46974565  0.19561112  0.55882946  1
  Zn  Zn89  1  0.67249353  0.92616410  0.92025990  1
  Zn  Zn90  1  0.20024744  0.97139891  0.97714242  1
  Zn  Zn91  1  0.02067923  0.56540074  0.36817380  1
  Zn  Zn92  1  0.15417159  0.77587361  0.60685730  1
  Zn  Zn93  1  0.24498969  0.34706700  0.94960012  1
  Zn  Zn94  1  0.61687874  -0.01788366  0.26569013  1
  Zn  Zn95  1  0.81352012  0.64681101  0.09147858  1
  Zn  Zn96  1  0.54584781  0.51471691  0.29321483  1
  Zn  Zn97  1  0.99950770  0.98986834  0.73247670  1
  Zn  Zn98  1  0.68001088  0.09600361  0.85555003  1
  Zn  Zn99  1  0.67597945  0.41233101  0.44981148  1
  Zn  Zn100  1  0.81858163  0.79829981  0.31835630  1
  Zn  Zn101  1  0.24831947  0.05664157  0.11469380  1
  O  O102  1  0.13530303  0.07508787  0.11501647  1
  O  O103  1  0.08779950  0.21001605  0.64855649  1
  O  O104  1  0.17347547  0.58052882  0.12222121  1
  O  O105  1  0.08922880  0.60655833  0.60061845  1
  O  O106  1  0.63686376  0.12098026  0.09305127  1
  O  O107  1  0.64203333  0.09938333  0.64144852  1
  O  O108  1  0.56510940  0.68090968  0.10731415  1
  O  O109  1  0.63542428  0.62735458  0.66697671  1
  O  O110  1  0.39721686  0.32964877  0.35330410  1
  O  O111  1  0.40710332  0.37342755  0.89801938  1
  O  O112  1  0.44947010  0.93910594  0.46666121  1
  O  O113  1  0.43338212  0.92395555  0.87064378  1
  O  O114  1  0.84264777  0.43258997  0.35024466  1
  O  O115  1  0.87503587  0.45919059  0.97169079  1
  O  O116  1  0.86261236  0.88928522  0.36124413  1
  O  O117  1  0.88171055  0.93975000  0.89926076  1
  O  O118  1  0.30431885  0.07119930  0.37358692  1
  O  O119  1  0.27008885  0.06206734  0.84365369  1
  O  O120  1  0.28124551  0.48462350  0.38869215  1
  O  O121  1  0.26952164  0.42783969  0.87974245  1
  O  O122  1  0.71226882  -0.02807079  0.31810147  1
  O  O123  1  0.73965734  0.01512254  0.90228517  1
  O  O124  1  0.75706614  0.48246444  0.46744262  1
  O  O125  1  0.76137885  0.51323790  0.86404075  1
  O  O126  1  0.23200180  0.54301873  0.11133504  1
  O  O127  1  0.22910146  0.50270459  0.64548679  1
  O  O128  1  0.27711523  0.97418979  0.17734615  1
  O  O129  1  0.27749893  1.01246744  0.57145161  1
  O  O130  1  0.72857541  0.57735773  0.11337335  1
  O  O131  1  0.69314349  0.46139833  0.62723752  1
  O  O132  1  0.73264022  0.95017466  0.15652805  1
  O  O133  1  0.80747708  1.03736214  0.63770803  1
  O  O134  1  -0.06088779  0.39036881  0.23803740  1
  O  O135  1  -0.05184052  0.38651119  0.86043714  1
  O  O136  1  -0.06018140  0.90010293  0.34819509  1
  O  O137  1  0.04403724  0.89755827  0.75534035  1
  O  O138  1  0.55984830  0.38892680  0.27764308  1
  O  O139  1  0.51159981  0.39301455  0.75040778  1
  O  O140  1  0.44454670  0.83545213  0.31226017  1
  O  O141  1  0.51566559  0.86252303  0.71855709  1
  O  O142  1  0.44256983  -0.01079796  0.23107031  1
  O  O143  1  0.49490038  0.14230851  0.76131608  1
  O  O144  1  0.50830272  0.57593201  0.20411845  1
  O  O145  1  0.48323925  0.58163986  0.70871138  1
  O  O146  1  1.00539355  0.11685039  0.21647066  1
  O  O147  1  0.96792594  0.18074565  0.74844730  1
  O  O148  1  0.97090139  0.58929247  0.27711684  1
  O  O149  1  0.96623873  0.63259268  0.68169482  1
  O  O150  1  0.40085631  0.23233810  0.07634745  1
  O  O151  1  0.32780823  0.22295958  0.43845942  1
  O  O152  1  0.37979943  0.75590082  0.02989861  1
  O  O153  1  0.36733656  0.65121772  0.54512498  1
  O  O154  1  0.84919750  0.25197581  -0.01586529  1
  O  O155  1  0.87701485  0.27312530  0.50889172  1
  O  O156  1  0.93457343  0.68226845  -0.02668282  1
  O  O157  1  0.82152141  0.75087876  0.47097312  1
  O  O158  1  0.17440208  0.29193028  0.54982737  1
  O  O159  1  0.14147115  0.15397537  0.95258165  1
  O  O160  1  0.12054600  0.70866690  0.50663676  1
  O  O161  1  0.08446708  0.75776022  1.03444309  1
  O  O162  1  0.55674025  0.14775255  0.51423787  1
  O  O163  1  0.58108411  0.25550349  1.01236117  1
  O  O164  1  0.62377427  0.76978486  0.48720922  1
  O  O165  1  0.72405650  0.70344073  0.93587617  1
  O  O166  1  0.42369211  0.23127141  0.14069310  1
  O  O167  1  0.51497175  0.25399771  0.64627618  1
  O  O168  1  0.43877462  0.71126480  0.18115920  1
  O  O169  1  0.51696764  0.70758534  0.62463497  1
  O  O170  1  0.91389878  0.24402459  0.18534966  1
  O  O171  1  0.95911473  0.30708233  0.63939328  1
  O  O172  1  1.03843150  0.67037602  0.12936509  1
  O  O173  1  0.95282940  0.69608741  0.53785440  1
  O  O174  1  -0.05961169  0.27818552  0.36590338  1
  O  O175  1  0.01209210  0.23723642  0.91037998  1
  O  O176  1  0.00102824  0.72694988  0.39419602  1
  O  O177  1  0.01931697  0.75904521  0.83264133  1
  O  O178  1  0.41057319  0.16383875  0.28343098  1
  O  O179  1  0.50710475  0.27966635  0.83917330  1
  O  O180  1  0.45880642  0.79710199  0.37104671  1
  O  O181  1  0.49745352  0.77693990  0.87131058  1
  O  O182  1  0.20899808  0.15214612  0.49579611  1
  O  O183  1  0.26945521  0.05685203  1.00192009  1
  O  O184  1  0.22346815  0.58979019  0.50834137  1
  O  O185  1  0.24304603  0.60826146  0.94855281  1
  O  O186  1  0.72130325  0.15577239  0.52196014  1
  O  O187  1  0.72508104  0.15848329  0.98685304  1
  O  O188  1  0.70955788  0.68127980  0.43603055  1
  O  O189  1  0.87601711  0.70954979  1.01172517  1
  O  O190  1  0.32656754  0.35037119  0.02043043  1
  O  O191  1  0.28828278  0.35321080  0.47649226  1
  O  O192  1  0.29488408  0.90707732  -0.04828311  1
  O  O193  1  0.27075292  0.90731224  0.46303060  1
  O  O194  1  0.71179736  0.35155166  0.02029662  1
  O  O195  1  0.70290560  0.32853775  0.53621411  1
  O  O196  1  0.73746497  0.85280456  -0.03148583  1
  O  O197  1  0.72901945  0.86951685  0.49294627  1
  O  O198  1  0.14210457  0.47368684  0.23971042  1
  O  O199  1  0.10141130  0.53812278  0.72188247  1
  O  O200  1  0.09380206  0.96740956  0.21654449  1
  O  O201  1  0.17330543  0.98064238  0.72369292  1
  O  O202  1  0.64866435  0.52647658  0.24793227  1
  O  O203  1  0.72462123  0.50631934  0.80694107  1
  O  O204  1  0.57621183  0.97462209  0.17056049  1
  O  O205  1  0.59711321  1.04169702  0.78834136  1
  O  O206  1  0.25059355  0.14083079  0.25004211  1
  O  O207  1  0.34722714  -0.00556533  0.72115697  1
  O  O208  1  0.42862517  0.48758095  0.30171121  1
  O  O209  1  0.36083390  0.43464751  0.75561557  1
  O  O210  1  0.85936843  -0.01129202  0.23089033  1
  O  O211  1  0.90342473  0.03205726  0.76141852  1
  O  O212  1  0.81119790  0.55194164  0.24921105  1
  O  O213  1  0.86490343  0.51073767  0.71482897  1
  O  O214  1  0.17996143  0.31739115  0.18260853  1
  O  O215  1  0.14918841  0.31126561  0.94241495  1
  O  O216  1  0.09996482  0.83661967  0.43369021  1
  O  O217  1  0.13621173  0.86603735  0.91578262  1
  O  O218  1  0.68567705  0.35091545  0.35857056  1
  O  O219  1  0.60447865  0.38333173  0.87398448  1
  O  O220  1  0.57701628  0.91052779  0.40159443  1
  O  O221  1  0.62228034  0.88738215  0.83438205  1
  O  O222  1  0.27343518  0.16497717  0.12799615  1
  O  O223  1  0.36541045  0.18500964  0.59884499  1
  O  O224  1  0.37974437  0.62627014  0.09084789  1
  O  O225  1  0.37547600  0.73612272  0.69035333  1
  O  O226  1  0.87313701  0.10280628  0.13288277  1
  O  O227  1  0.92690013  0.17007290  0.59618925  1
  O  O228  1  0.88471121  0.66272294  0.17542687  1
  O  O229  1  0.88207199  0.57264826  0.57260370  1
  O  O230  1  0.40311051  0.36692771  0.16550503  1
  O  O231  1  0.25809821  0.26692835  0.68934848  1
  O  O232  1  0.27729468  0.70403985  0.17761771  1
  O  O233  1  0.24172691  0.71154261  0.61208581  1
  O  O234  1  0.75327325  0.25325369  0.11090959  1
  O  O235  1  0.79642645  0.22440241  0.64597512  1
  O  O236  1  0.76352687  0.75219230  0.07971999  1
  O  O237  1  0.73232424  0.74844532  0.57210766  1
  O  O238  1  0.16998878  0.27308772  0.40097376  1
  O  O239  1  0.31014701  0.20452509  0.95952766  1
  O  O240  1  0.27123011  0.74119575  0.45517222  1
  O  O241  1  0.32647949  0.70882626  0.86571408  1
  O  O242  1  0.85926593  0.10378584  0.35480203  1
  O  O243  1  0.72680419  0.27278840  0.89583430  1
  O  O244  1  0.72271969  0.80918441  0.38154604  1
  O  O245  1  0.84551616  0.78229583  0.88226051  1
  O  O246  1  -0.00881279  0.17108431  0.06058876  1
  O  O247  1  0.04737290  0.15659199  0.47066720  1
  O  O248  1  0.03289995  0.61533619  0.08929763  1
  O  O249  1  0.01573165  0.56920280  0.49020302  1
  O  O250  1  0.49623670  0.13398028  0.03560746  1
  O  O251  1  0.50592012  0.06528408  0.36497869  1
  O  O252  1  0.46922726  0.61713627  -0.08581786  1
  O  O253  1  0.54585847  0.57644960  0.54480461  1
  O  O254  1  0.45485863  0.29175046  0.49791173  1
  O  O255  1  0.51231525  0.42073697  0.98675372  1
  O  O256  1  0.47184739  0.99717331  0.49484849  1
  O  O257  1  0.46915517  0.90916711  0.93180962  1
  O  O258  1  1.03898984  0.35969212  0.51081959  1
  O  O259  1  1.08165254  0.53348513  0.96336580  1
  O  O260  1  0.92433740  0.90796056  0.50947266  1
  O  O261  1  1.08853712  0.91646738  0.89727665  1
  O  O262  1  0.55086796  0.53247011  0.40239184  1
  O  O263  1  0.47069967  0.48481800  0.86139843  1
  O  O264  1  0.55663923  0.91148387  0.33285499  1
  O  O265  1  0.46573746  0.97293094  0.82469966  1
  O  O266  1  1.03353176  0.45866176  0.39528711  1
  O  O267  1  0.84299481  0.51713966  0.99744492  1
  O  O268  1  0.96446519  0.96088646  0.37277908  1
  O  O269  1  1.11425969  0.98837611  0.90560535  1
  O  O270  1  -0.00342477  -0.01231435  0.09115326  1
  O  O271  1  0.03306185  0.06536832  0.66885742  1
  O  O272  1  0.01759252  0.51227512  -0.02408589  1
  O  O273  1  0.00271359  0.48336832  0.60612622  1
  O  O274  1  0.51578050  -0.11792880  0.06627608  1
  O  O275  1  0.50593208  0.01208662  0.66080284  1
  O  O276  1  0.50431055  0.55678746  0.05159635  1
  O  O277  1  0.49539771  0.44722439  0.58932235  1
  O  O278  1  0.24131523  0.34289151  0.16594399  1
  O  O279  1  0.26980501  0.46850758  0.59894574  1
  O  O280  1  0.28233278  0.84702981  0.29137990  1
  O  O281  1  0.21471556  0.93700867  0.77083527  1
  O  O282  1  0.75409291  0.35206158  0.23647393  1
  O  O283  1  0.71531484  0.35099961  0.72797083  1
  O  O284  1  0.78090774  0.81920145  0.22092512  1
  O  O285  1  0.78818432  0.93672747  0.75836151  1
  O  O286  1  0.26229914  0.19026791  0.20067064  1
  O  O287  1  0.24075323  0.10956251  0.69252333  1
  O  O288  1  0.21102610  0.47385006  0.23966087  1
  O  O289  1  0.19794060  0.64510207  0.79571070  1
  O  O290  1  0.73409157  0.09280511  0.21890300  1
  O  O291  1  0.75005034  0.10397761  0.77017695  1
  O  O292  1  0.69812780  0.67425633  0.22314006  1
  O  O293  1  0.80549218  0.66191531  0.70560915  1
  O  O294  1  0.41076534  0.00430342  0.29035338  1
  O  O295  1  0.40528990  0.08306997  0.91525123  1
  O  O296  1  0.36660711  0.61159682  0.37413313  1
  O  O297  1  0.34050332  0.55918798  0.83342815  1
  O  O298  1  0.83735150  0.07701293  0.41603185  1
  O  O299  1  0.88545059  0.09506089  0.92433585  1
  O  O300  1  0.87511137  0.57765551  0.40748774  1
  O  O301  1  0.89910185  0.61499632  0.82344316  1
  O  O302  1  0.08455665  0.43637781  0.11079887  1
  O  O303  1  0.11624797  0.39965875  0.66041671  1
  O  O304  1  0.19663253  0.83784017  0.16923120  1
  O  O305  1  0.18940358  0.87756556  0.58659336  1
  O  O306  1  0.64776829  0.37822405  0.15730080  1
  O  O307  1  0.64462946  0.31381706  0.58911882  1
  O  O308  1  0.65432083  0.83857246  0.12120319  1
  O  O309  1  0.64330931  0.94117289  0.68019819  1
  O  O310  1  0.04791344  0.28390357  0.25273444  1
  O  O311  1  0.13794889  0.21741523  0.81137056  1
  O  O312  1  0.14246553  0.73806824  0.32310916  1
  O  O313  1  0.08090983  0.75103032  0.68633394  1
  O  O314  1  0.63716848  0.25115254  0.24187902  1
  O  O315  1  0.62082442  0.22881971  0.75536119  1
  O  O316  1  0.57229982  0.76580325  0.26846119  1
  O  O317  1  0.66188413  0.78885505  0.71522590  1
  O  O318  1  0.47228273  0.19356411  0.27967566  1
  O  O319  1  0.40548545  0.25569105  0.74526981  1
  O  O320  1  0.41010951  0.80138712  0.42684658  1
  O  O321  1  0.41756273  0.74548417  0.74310439  1
  O  O322  1  0.87008988  0.25725973  0.33080858  1
  O  O323  1  0.88544172  0.37167622  0.83762795  1
  O  O324  1  0.86161193  0.70086280  0.32380917  1
  O  O325  1  0.92025984  0.81421478  0.73316298  1
  O  O326  1  0.42063791  0.49243039  0.46516482  1
  O  O327  1  0.37243317  0.49108036  0.99020762  1
  O  O328  1  0.35453330  1.05838898  0.41852531  1
  O  O329  1  0.33991744  0.92728342  1.00560453  1
  O  O330  1  0.91429145  0.44867171  0.49401068  1
  O  O331  1  0.88132756  0.55649068  1.04838458  1
  O  O332  1  0.88054770  1.10101440  0.48012886  1
  O  O333  1  0.81518930  1.00761859  1.03368095  1
  O  O334  1  0.14360470  -0.06804666  0.06130329  1
  O  O335  1  0.11809816  0.01766989  0.49296968  1
  O  O336  1  0.13933689  0.43042482  0.06916049  1
  O  O337  1  0.12820845  0.48465635  0.52287553  1
  O  O338  1  0.63881379  -0.03067173  0.02009874  1
  O  O339  1  0.65320381  0.02275613  0.48955753  1
  O  O340  1  0.60256932  0.53670142  -0.06535552  1
  O  O341  1  0.57469780  0.41399788  0.48134365  1
  O  O342  1  0.44133582  0.39165648  0.10740924  1
  O  O343  1  0.37286478  0.34760948  0.62577929  1
  O  O344  1  0.35272099  0.83450818  0.14691013  1
  O  O345  1  0.35919149  0.88607862  0.60575297  1
  O  O346  1  0.80908233  0.41662863  0.12465898  1
  O  O347  1  0.82723526  0.37426682  0.61708472  1
  O  O348  1  0.85415568  0.87774507  0.10282756  1
  O  O349  1  0.90032331  0.89393233  0.57255696  1
  O  O350  1  0.13146225  0.08792150  0.35807635  1
  O  O351  1  0.30263768  0.20200554  0.88251117  1
  O  O352  1  0.11334885  0.61440647  0.40250910  1
  O  O353  1  0.11036996  0.71237958  0.98966129  1
  O  O354  1  0.56175149  0.07554113  0.32364284  1
  O  O355  1  0.59077121  0.11752383  0.91766892  1
  O  O356  1  0.56296581  0.70890586  0.30447490  1
  O  O357  1  0.54614765  0.74197588  0.83593446  1
