# generated using pymatgen
data_V51Zn51O256
_symmetry_space_group_name_H-M   'P 1'
_cell_length_a   17.32382104
_cell_length_b   17.32524804
_cell_length_c   17.32090581
_cell_angle_alpha   90.17746668
_cell_angle_beta   89.74616174
_cell_angle_gamma   89.19904692
_symmetry_Int_Tables_number   1
_chemical_formula_structural   V51Zn51O256
_chemical_formula_sum   'V51 Zn51 O256'
_cell_volume   5198.10303022
_cell_formula_units_Z   1
loop_
 _symmetry_equiv_pos_site_id
 _symmetry_equiv_pos_as_xyz
  1  'x, y, z'
loop_
 _atom_site_type_symbol
 _atom_site_label
 _atom_site_symmetry_multiplicity
 _atom_site_fract_x
 _atom_site_fract_y
 _atom_site_fract_z
 _atom_site_occupancy
  V  V0  1  0.75171243  -0.00790436  0.24774007  1
  V  V1  1  0.39275877  0.63060066  0.73613139  1
  V  V2  1  0.27367576  0.36252599  0.12513937  1
  V  V3  1  0.52356243  0.26750807  0.74831330  1
  V  V4  1  0.23880230  0.74217660  0.00231866  1
  V  V5  1  0.24694519  0.23252882  -0.00050416  1
  V  V6  1  0.03363303  0.74450812  0.25623646  1
  V  V7  1  0.64168092  0.46746769  0.58970687  1
  V  V8  1  0.87969698  0.01949736  0.89318383  1
  V  V9  1  0.73042194  0.87502912  0.10756048  1
  V  V10  1  0.36794994  0.86726172  -0.01202366  1
  V  V11  1  0.11131252  0.42830102  0.76097194  1
  V  V12  1  0.12267936  0.36777468  0.23239868  1
  V  V13  1  0.13535572  0.24790392  0.85924456  1
  V  V14  1  0.50412107  0.89853880  0.86521241  1
  V  V15  1  0.28365231  0.49303515  0.72437680  1
  V  V16  1  0.25747584  0.86346172  0.13680625  1
  V  V17  1  0.01635219  0.11834284  0.13154169  1
  V  V18  1  0.77037632  0.56759107  0.33837531  1
  V  V19  1  0.00148308  0.70696120  0.78732281  1
  V  V20  1  0.84403791  0.74129194  0.12787406  1
  V  V21  1  0.63130432  0.00400956  0.61607100  1
  V  V22  1  0.61371058  0.11988380  0.49367747  1
  V  V23  1  0.45071875  0.01881325  0.00927380  1
  V  V24  1  0.50330919  0.74378737  0.23324762  1
  V  V25  1  0.79676353  0.64097970  0.71235609  1
  V  V26  1  0.64917477  0.50882031  0.09702442  1
  V  V27  1  0.75146422  0.47235175  0.72392389  1
  V  V28  1  -0.00670101  0.23993958  0.76742264  1
  V  V29  1  0.04080368  0.52065483  0.50138512  1
  V  V30  1  0.38270618  0.37353549  -0.00775772  1
  V  V31  1  0.89900067  0.87136941  0.00908104  1
  V  V32  1  0.13017684  0.58435049  -0.00499880  1
  V  V33  1  0.77541135  0.21727126  0.49866255  1
  V  V34  1  0.26210619  0.48948374  0.25359753  1
  V  V35  1  0.05596174  0.63908137  0.61617218  1
  V  V36  1  0.61122931  0.88031894  0.25510291  1
  V  V37  1  0.61553671  0.01438367  0.10799006  1
  V  V38  1  0.26841872  0.01642018  0.23847233  1
  V  V39  1  0.76621131  0.11141970  0.36756088  1
  V  V40  1  0.04417439  0.61157227  0.14296177  1
  V  V41  1  0.26838771  0.12599582  0.39034028  1
  V  V42  1  0.38915834  0.72762602  0.10841743  1
  V  V43  1  0.50099510  0.46253108  0.49620389  1
  V  V44  1  0.62724196  0.24150091  0.35839436  1
  V  V45  1  0.39310461  0.47878164  0.36076058  1
  V  V46  1  0.54318125  0.65760227  0.51965031  1
  V  V47  1  0.87455595  0.12174958  0.73602692  1
  V  V48  1  0.36934855  0.34523759  0.50723505  1
  V  V49  1  0.14337206  0.90940643  0.78348703  1
  V  V50  1  0.27701575  0.59196029  0.90009868  1
  Zn  Zn51  1  0.67952720  0.94167285  0.42933347  1
  Zn  Zn52  1  0.86018678  0.80943531  0.81248497  1
  Zn  Zn53  1  0.43003286  0.21192013  0.40348375  1
  Zn  Zn54  1  0.73734377  0.20521591  0.20448021  1
  Zn  Zn55  1  0.94920943  0.52620861  0.70482882  1
  Zn  Zn56  1  0.96336296  0.60006500  0.32744161  1
  Zn  Zn57  1  0.93868521  0.66739510  0.97806742  1
  Zn  Zn58  1  0.68674026  0.95002930  0.92840291  1
  Zn  Zn59  1  0.54883305  0.83038544  0.05461908  1
  Zn  Zn60  1  0.51657470  0.10322658  0.85423811  1
  Zn  Zn61  1  0.12096827  0.88355055  0.24414887  1
  Zn  Zn62  1  0.84861718  0.29085705  0.67056377  1
  Zn  Zn63  1  0.44451490  0.43432507  0.67338078  1
  Zn  Zn64  1  0.32049825  0.31339707  0.81677880  1
  Zn  Zn65  1  0.57805471  0.29512173  0.55112848  1
  Zn  Zn66  1  0.29698900  0.79512886  0.81830803  1
  Zn  Zn67  1  0.43323189  0.71224930  0.89596048  1
  Zn  Zn68  1  0.06517884  0.93713747  0.94477440  1
  Zn  Zn69  1  0.19013443  0.41322934  0.93811838  1
  Zn  Zn70  1  0.68346982  0.69084839  0.20297296  1
  Zn  Zn71  1  0.75734720  0.60571063  0.54116118  1
  Zn  Zn72  1  0.05691960  0.06858703  0.83160592  1
  Zn  Zn73  1  0.37439141  0.13694428  0.55614220  1
  Zn  Zn74  1  0.19736372  0.20475949  0.19560124  1
  Zn  Zn75  1  0.11079985  0.07395405  0.30791671  1
  Zn  Zn76  1  0.74225694  0.37166626  0.28981609  1
  Zn  Zn77  1  0.07033239  0.80071855  0.07944104  1
  Zn  Zn78  1  0.61988968  0.45216133  0.37718149  1
  Zn  Zn79  1  0.03640586  0.35353352  0.61519939  1
  Zn  Zn80  1  0.02662675  0.82310469  0.66651638  1
  Zn  Zn81  1  0.45781903  0.21596684  0.96757547  1
  Zn  Zn82  1  0.16473412  0.62575294  0.77641440  1
  Zn  Zn83  1  0.76498721  0.99828390  0.76229370  1
  Zn  Zn84  1  0.59527417  0.58609406  0.72689026  1
  Zn  Zn85  1  0.31707824  0.31425973  0.32118691  1
  Zn  Zn86  1  0.65795462  0.47531740  0.89807111  1
  Zn  Zn87  1  0.07573860  0.30646639  0.06049890  1
  Zn  Zn88  1  0.43555965  0.99613640  0.69252559  1
  Zn  Zn89  1  0.82378584  0.05010657  0.08071139  1
  Zn  Zn90  1  0.21828624  0.43622253  0.44688212  1
  Zn  Zn91  1  0.32380944  0.54361008  0.06956018  1
  Zn  Zn92  1  0.86149620  0.53405549  0.10219684  1
  Zn  Zn93  1  0.43623889  0.93249429  0.16989470  1
  Zn  Zn94  1  0.50936449  0.84439877  0.58456167  1
  Zn  Zn95  1  0.57338157  0.07428996  0.29508783  1
  Zn  Zn96  1  0.70281759  0.17500253  0.67082832  1
  Zn  Zn97  1  0.36570210  0.55930287  0.56641703  1
  Zn  Zn98  1  0.90518977  0.87921909  0.21730780  1
  Zn  Zn99  1  0.47400902  0.65200953  0.35955212  1
  Zn  Zn100  1  0.35436577  0.80403321  0.30266021  1
  Zn  Zn101  1  0.24369521  0.02378962  0.02471164  1
  O  O102  1  0.11826584  0.14181071  0.12924585  1
  O  O103  1  0.05626167  0.10819919  0.54885302  1
  O  O104  1  0.13476102  0.58083735  0.11059978  1
  O  O105  1  0.14089466  0.63358483  0.66202610  1
  O  O106  1  0.61684097  0.10683613  0.12632759  1
  O  O107  1  0.63499988  0.11357975  0.60410168  1
  O  O108  1  0.66389844  0.60941482  0.12722121  1
  O  O109  1  0.59970540  0.60026123  0.59882575  1
  O  O110  1  0.38832573  0.36168331  0.39199092  1
  O  O111  1  0.36997882  0.37522628  0.89334366  1
  O  O112  1  0.36016835  0.88946887  0.39716196  1
  O  O113  1  0.35524450  0.87059409  0.89138256  1
  O  O114  1  0.80940135  0.36155708  0.41640883  1
  O  O115  1  0.89149598  0.28411909  0.96238027  1
  O  O116  1  0.83789857  0.91229775  0.42741758  1
  O  O117  1  0.88104101  0.85282374  0.91370287  1
  O  O118  1  0.28142889  0.03569886  0.34507060  1
  O  O119  1  0.32274432  0.03828434  0.79260932  1
  O  O120  1  0.28181697  0.47317234  0.36596889  1
  O  O121  1  0.26921709  0.49518233  0.90385385  1
  O  O122  1  0.73708596  0.00192604  0.35201522  1
  O  O123  1  0.77616336  -0.01479417  0.87538388  1
  O  O124  1  0.77248684  0.58622519  0.43551043  1
  O  O125  1  0.73687261  0.46545429  0.82105497  1
  O  O126  1  0.27259512  0.47141847  0.14434197  1
  O  O127  1  0.28064330  0.50744743  0.62658905  1
  O  O128  1  0.25083403  0.96753624  0.13241382  1
  O  O129  1  0.18365379  0.97385260  0.57841153  1
  O  O130  1  0.75155578  0.51179122  0.12653106  1
  O  O131  1  0.73586724  0.50482911  0.59232850  1
  O  O132  1  0.73582996  0.99024719  0.12841077  1
  O  O133  1  0.71480389  0.98414331  0.65955319  1
  O  O134  1  0.03029020  0.38154858  0.24654759  1
  O  O135  1  0.01779943  0.46210830  0.76421071  1
  O  O136  1  0.01050137  0.85114845  0.23718554  1
  O  O137  1  -0.03932818  0.79666025  0.75602758  1
  O  O138  1  0.51584988  0.37060093  0.25576520  1
  O  O139  1  0.51806819  0.37065857  0.73542700  1
  O  O140  1  0.51017053  0.87624415  0.23395314  1
  O  O141  1  0.46422308  0.93395580  0.77986159  1
  O  O142  1  0.47940814  0.12533382  0.24906018  1
  O  O143  1  0.51006401  0.16660652  0.75508200  1
  O  O144  1  0.52034705  0.64887492  0.24602894  1
  O  O145  1  0.49207665  0.62511078  0.73752211  1
  O  O146  1  1.02858364  0.11258365  0.23479610  1
  O  O147  1  0.98817662  0.13564726  0.77092746  1
  O  O148  1  1.04648850  0.62091469  0.24568379  1
  O  O149  1  0.98969786  0.63304641  0.71505267  1
  O  O150  1  0.34258014  0.25061115  -0.01996893  1
  O  O151  1  0.39320790  0.24223380  0.50832638  1
  O  O152  1  0.39105432  0.76116004  -0.00212362  1
  O  O153  1  0.20723722  0.74407490  0.54036349  1
  O  O154  1  0.84971407  0.26466569  0.01572884  1
  O  O155  1  0.86712223  0.22443562  0.48169099  1
  O  O156  1  0.89437573  0.75758535  0.03442809  1
  O  O157  1  0.90413177  0.76964361  0.46970589  1
  O  O158  1  0.10333836  0.27190758  0.52283644  1
  O  O159  1  0.14314503  0.27873932  0.97203054  1
  O  O160  1  0.15140663  0.85124249  0.43914148  1
  O  O161  1  0.14223617  0.74596233  1.00765631  1
  O  O162  1  0.64090408  0.22531727  0.48994496  1
  O  O163  1  0.71889888  0.17956974  1.03846848  1
  O  O164  1  0.50309960  0.74593003  0.54655550  1
  O  O165  1  0.59783439  0.76535077  0.96933659  1
  O  O166  1  0.49033694  0.16720397  0.18031798  1
  O  O167  1  0.51788451  0.26314402  0.64302551  1
  O  O168  1  0.49553011  0.75473753  0.12067892  1
  O  O169  1  0.34958405  0.80300502  0.60925034  1
  O  O170  1  1.00673675  0.22348888  0.12770700  1
  O  O171  1  0.96624341  0.29757259  0.67817581  1
  O  O172  1  1.02851312  0.71996425  0.14498839  1
  O  O173  1  1.02956248  0.73468602  0.60298154  1
  O  O174  1  0.00511428  0.24771234  0.38147934  1
  O  O175  1  0.00020180  0.27941845  0.85532469  1
  O  O176  1  -0.01995002  0.71585395  0.33374655  1
  O  O177  1  -0.04006458  0.68169235  0.87187476  1
  O  O178  1  0.52908817  0.24328042  0.37284659  1
  O  O179  1  0.55413227  0.28440896  0.84190479  1
  O  O180  1  0.46187220  0.76379448  0.32903647  1
  O  O181  1  0.49607561  0.80008073  0.86118523  1
  O  O182  1  0.28927319  0.11675120  0.48693988  1
  O  O183  1  0.24232811  0.13517661  1.00012606  1
  O  O184  1  0.24115190  0.62943718  0.43667307  1
  O  O185  1  0.24360030  0.61427046  1.00996756  1
  O  O186  1  0.75245232  0.11590559  0.48072369  1
  O  O187  1  0.72558037  0.13727691  0.98015763  1
  O  O188  1  0.64666359  0.65999951  0.56396852  1
  O  O189  1  0.87178310  0.57161695  0.98975244  1
  O  O190  1  0.26442422  0.37461843  0.01560130  1
  O  O191  1  0.27061383  0.35146380  0.49571482  1
  O  O192  1  0.25975967  0.84883618  0.01084409  1
  O  O193  1  0.32933814  0.84063663  0.44711403  1
  O  O194  1  0.71620131  0.29029668  -0.07633801  1
  O  O195  1  0.76949490  0.34107241  0.47362292  1
  O  O196  1  0.73027161  0.87542209  0.01053453  1
  O  O197  1  0.78152521  0.91514846  0.48384319  1
  O  O198  1  0.16544899  0.45774266  0.27200815  1
  O  O199  1  0.17494260  0.50809406  0.75681521  1
  O  O200  1  0.16452980  0.98277593  0.26646528  1
  O  O201  1  0.14584319  1.00818150  0.80163087  1
  O  O202  1  0.60161534  0.48602788  0.18004277  1
  O  O203  1  0.64440392  0.47952910  0.70095935  1
  O  O204  1  0.62034839  0.99185539  0.23042964  1
  O  O205  1  0.59456447  1.04873414  0.77619286  1
  O  O206  1  0.36448835  -0.00851467  0.22988963  1
  O  O207  1  0.22269984  -0.04985997  0.52376416  1
  O  O208  1  0.38114255  0.46662929  0.26347288  1
  O  O209  1  0.38887658  0.51424642  0.73515434  1
  O  O210  1  0.84837077  -0.02805576  0.24160478  1
  O  O211  1  0.88423101  0.02439719  0.78283177  1
  O  O212  1  0.86238279  0.56044560  0.30144301  1
  O  O213  1  0.83801820  0.54032315  0.72170020  1
  O  O214  1  -0.00704185  0.31691042  0.38923896  1
  O  O215  1  0.13670311  0.37231109  0.84408552  1
  O  O216  1  0.08543830  0.83756310  0.46045142  1
  O  O217  1  0.09798573  0.86873511  0.86192885  1
  O  O218  1  0.64976745  0.34198053  0.35712398  1
  O  O219  1  0.57830798  0.40953314  0.91631795  1
  O  O220  1  0.62061909  0.88524593  0.35266111  1
  O  O221  1  0.60202035  0.91253953  0.86555059  1
  O  O222  1  0.43248057  0.20709716  0.16114688  1
  O  O223  1  0.40731043  0.08877652  0.64458222  1
  O  O224  1  0.39068577  0.63207741  0.09267721  1
  O  O225  1  0.36593764  0.64542512  0.64352888  1
  O  O226  1  0.91715130  0.10283084  0.14114832  1
  O  O227  1  0.89417622  0.11513253  0.64426900  1
  O  O228  1  0.84361226  0.64458110  0.12919167  1
  O  O229  1  0.81160208  0.66654225  0.61776871  1
  O  O230  1  0.24116125  0.25335200  0.10252081  1
  O  O231  1  0.15582250  0.22533559  0.53797379  1
  O  O232  1  0.27916100  0.74280400  0.10434125  1
  O  O233  1  0.19254637  0.79092664  0.59131455  1
  O  O234  1  0.77357179  0.15730190  0.10003383  1
  O  O235  1  0.76985258  0.23764112  0.60304858  1
  O  O236  1  0.73956166  0.76684368  0.13049533  1
  O  O237  1  0.74924456  0.83605440  0.68933794  1
  O  O238  1  0.32316909  0.20600521  0.35206503  1
  O  O239  1  0.23775149  0.24838364  0.85745943  1
  O  O240  1  0.30645328  0.77488144  0.41300166  1
  O  O241  1  0.26063986  0.72441661  0.90442523  1
  O  O242  1  0.74341258  0.21648170  0.37770342  1
  O  O243  1  0.75681534  0.30603389  0.86759640  1
  O  O244  1  0.83252032  0.75647254  0.48291163  1
  O  O245  1  0.67061734  0.73476210  0.97784238  1
  O  O246  1  0.00805266  0.12048158  0.03039115  1
  O  O247  1  0.01225940  0.14667956  0.50887561  1
  O  O248  1  0.03877942  0.62834657  0.01492462  1
  O  O249  1  0.08525067  0.61363537  0.51751810  1
  O  O250  1  0.44023265  0.11369413  0.02203804  1
  O  O251  1  0.51873635  0.12319134  0.50045374  1
  O  O252  1  0.58173186  0.63013604  -0.10691958  1
  O  O253  1  0.46797520  0.58876795  0.52056353  1
  O  O254  1  0.50324171  0.36271595  0.49797189  1
  O  O255  1  0.47093219  0.32085962  1.00287995  1
  O  O256  1  0.42071071  0.91475843  0.60577812  1
  O  O257  1  0.47554214  0.88976972  0.98609221  1
  O  O258  1  0.99482958  0.40940938  0.52746008  1
  O  O259  1  0.98291208  0.37629145  1.04232508  1
  O  O260  1  0.94820879  0.89385637  0.57391204  1
  O  O261  1  0.99981179  0.87369512  1.02335940  1
  O  O262  1  0.50411629  0.47316294  0.38668971  1
  O  O263  1  0.50961706  0.62044396  0.91188669  1
  O  O264  1  0.50867475  0.99740954  0.37009290  1
  O  O265  1  0.48665860  1.01237951  0.91267513  1
  O  O266  1  0.99066717  0.53916472  0.42002564  1
  O  O267  1  0.86777691  0.44845443  0.93986720  1
  O  O268  1  1.02487559  1.03528533  0.38869827  1
  O  O269  1  0.98544559  1.00389267  0.89528467  1
  O  O270  1  0.04282276  0.02116780  0.12185241  1
  O  O271  1  -0.07125985  -0.03925650  0.58991679  1
  O  O272  1  -0.02823948  0.54702427  0.13103860  1
  O  O273  1  -0.00230528  0.54321770  0.60043903  1
  O  O274  1  0.50512938  -0.00554776  0.09982319  1
  O  O275  1  0.56185011  0.03159977  0.70952947  1
  O  O276  1  0.57285308  0.54272961  0.04241879  1
  O  O277  1  0.52458918  0.47270202  0.60222749  1
  O  O278  1  0.26692979  0.34968887  0.23051426  1
  O  O279  1  0.28817178  0.39677344  0.74451494  1
  O  O280  1  0.27614987  0.85287056  0.23442024  1
  O  O281  1  0.23474602  0.86658846  0.76793029  1
  O  O282  1  0.71580940  0.47825057  0.32077487  1
  O  O283  1  0.79060419  0.38709156  0.69612198  1
  O  O284  1  0.72241238  0.88755567  0.23228456  1
  O  O285  1  0.78292940  0.87590386  0.75765877  1
  O  O286  1  0.25449856  0.10933363  0.21025133  1
  O  O287  1  0.28971942  0.10120746  0.78731696  1
  O  O288  1  0.25949975  0.58258392  0.25251003  1
  O  O289  1  0.28288032  0.59746332  0.78486502  1
  O  O290  1  0.75033208  0.10124358  0.25396957  1
  O  O291  1  0.76789190  0.11636590  0.74013195  1
  O  O292  1  0.72305655  0.64153828  0.29203195  1
  O  O293  1  0.70184007  0.62410864  0.72765238  1
  O  O294  1  0.42003034  0.09335891  0.37541026  1
  O  O295  1  0.42148239  0.16660667  0.87004687  1
  O  O296  1  0.39466736  0.57818279  0.37080695  1
  O  O297  1  0.37040760  0.61372328  0.91534611  1
  O  O298  1  0.85938704  0.10719608  0.36679270  1
  O  O299  1  0.86823401  0.11030453  0.91520255  1
  O  O300  1  0.78439147  0.75586766  0.42616269  1
  O  O301  1  0.87652778  0.51796897  0.92338532  1
  O  O302  1  0.13985911  0.36632128  0.13065664  1
  O  O303  1  0.12387879  0.38200623  0.67433617  1
  O  O304  1  0.15570316  0.84777991  0.13693299  1
  O  O305  1  0.09028268  0.90110950  0.69708539  1
  O  O306  1  0.64759057  0.40842087  0.08789977  1
  O  O307  1  0.65525934  0.37145400  0.58323390  1
  O  O308  1  0.62484870  0.88520504  0.12075607  1
  O  O309  1  0.57968280  0.91789289  0.61508392  1
  O  O310  1  0.14214314  0.27147551  0.26485289  1
  O  O311  1  0.10019028  0.24299423  0.75784097  1
  O  O312  1  0.12370883  0.76761646  0.28409739  1
  O  O313  1  0.09871124  0.71690718  0.79280185  1
  O  O314  1  0.63553716  0.21484276  0.26361798  1
  O  O315  1  0.62489781  0.25063544  0.72596393  1
  O  O316  1  0.60964081  0.77177427  0.23612993  1
  O  O317  1  0.70767970  0.71917227  0.91636356  1
  O  O318  1  0.52132337  0.32438826  0.20215697  1
  O  O319  1  0.42218043  0.27414078  0.76537131  1
  O  O320  1  0.38881887  0.73600341  0.21176756  1
  O  O321  1  0.37664288  0.71883017  0.78873016  1
  O  O322  1  0.77527034  0.30572458  0.21367935  1
  O  O323  1  0.87581640  0.22540452  0.76199164  1
  O  O324  1  0.88263788  0.76712674  0.21424758  1
  O  O325  1  0.82804706  0.70860985  0.77588074  1
  O  O326  1  0.39190099  0.46862479  0.49152131  1
  O  O327  1  0.39366996  0.46764217  1.02111995  1
  O  O328  1  0.44952370  1.02821186  0.40683542  1
  O  O329  1  0.35315511  0.98212542  1.00708535  1
  O  O330  1  0.87091668  0.46654860  0.50771785  1
  O  O331  1  0.87496863  0.41183881  1.10957966  1
  O  O332  1  0.89515642  0.95578304  0.43569333  1
  O  O333  1  0.87216041  0.97689655  1.00388497  1
  O  O334  1  0.14742525  -0.01792727  -0.00172528  1
  O  O335  1  0.04525181  -0.00757913  0.44316582  1
  O  O336  1  0.11774416  0.48830752  -0.01326559  1
  O  O337  1  0.12222962  0.46424552  0.48534737  1
  O  O338  1  0.63204366  0.00824297  0.01041190  1
  O  O339  1  0.63594408  0.00948295  0.50762510  1
  O  O340  1  0.69386089  0.50780593  -0.00386508  1
  O  O341  1  0.60870343  0.48688377  0.48706003  1
  O  O342  1  0.36748485  0.34502716  0.11472779  1
  O  O343  1  0.38430884  0.36901207  0.60289595  1
  O  O344  1  0.36954589  0.86090265  0.10731299  1
  O  O345  1  0.34332766  0.87513511  0.60752424  1
  O  O346  1  0.94148014  0.37444127  0.10841703  1
  O  O347  1  0.90346144  0.41339807  0.54365641  1
  O  O348  1  0.84573303  0.87228719  0.10814758  1
  O  O349  1  0.78991611  0.83588636  0.62977222  1
  O  O350  1  0.17052528  0.13940215  0.37500062  1
  O  O351  1  0.11256342  0.15680936  0.88213819  1
  O  O352  1  0.20129978  0.66589106  0.39118054  1
  O  O353  1  0.15756601  0.60672976  0.89650170  1
  O  O354  1  0.62897979  0.11835621  0.38469793  1
  O  O355  1  0.55845821  0.17486504  0.92791457  1
  O  O356  1  0.56588393  0.65870225  0.42420937  1
  O  O357  1  0.61380574  0.57151306  0.84763921  1
