# generated using pymatgen
data_V51Zn51O256
_symmetry_space_group_name_H-M   'P 1'
_cell_length_a   17.27082341
_cell_length_b   17.32725225
_cell_length_c   17.40701414
_cell_angle_alpha   90.89658256
_cell_angle_beta   89.74408763
_cell_angle_gamma   91.39616675
_symmetry_Int_Tables_number   1
_chemical_formula_structural   V51Zn51O256
_chemical_formula_sum   'V51 Zn51 O256'
_cell_volume   5206.92437428
_cell_formula_units_Z   1
loop_
 _symmetry_equiv_pos_site_id
 _symmetry_equiv_pos_as_xyz
  1  'x, y, z'
loop_
 _atom_site_type_symbol
 _atom_site_label
 _atom_site_symmetry_multiplicity
 _atom_site_fract_x
 _atom_site_fract_y
 _atom_site_fract_z
 _atom_site_occupancy
  V  V0  1  0.63360682  0.50507735  0.62006773  1
  V  V1  1  0.47866799  0.37284163  0.37050165  1
  V  V2  1  0.86196834  0.01557282  0.85011018  1
  V  V3  1  0.37427543  0.34897705  0.50815387  1
  V  V4  1  0.38246588  0.60336962  0.25217567  1
  V  V5  1  0.38013558  -0.01479322  0.36730774  1
  V  V6  1  0.08476546  0.15493996  0.51363641  1
  V  V7  1  -0.00937274  0.65178484  0.13484116  1
  V  V8  1  0.02831153  0.51286528  0.49532036  1
  V  V9  1  0.26008660  0.37129312  0.63272857  1
  V  V10  1  0.73287402  0.12960954  0.86885672  1
  V  V11  1  0.62697740  0.59005614  0.00525025  1
  V  V12  1  0.45999986  0.11908844  0.10199856  1
  V  V13  1  0.00039636  0.87007814  0.37988767  1
  V  V14  1  0.84682707  0.47657998  0.35956682  1
  V  V15  1  0.49523148  0.73242300  0.76148462  1
  V  V16  1  0.46348912  0.24560208  0.74953764  1
  V  V17  1  0.50641011  0.87274302  0.85877992  1
  V  V18  1  0.12217769  0.37396752  0.24639371  1
  V  V19  1  0.56997557  0.48930312  0.12932000  1
  V  V20  1  -0.00413951  0.36896486  0.39008280  1
  V  V21  1  0.50017532  0.36412651  0.88725891  1
  V  V22  1  0.15061402  0.64870899  0.45272579  1
  V  V23  1  0.63041005  -0.02738172  0.13040918  1
  V  V24  1  0.67194383  0.79689575  0.83656099  1
  V  V25  1  0.28879178  0.50826976  0.73805766  1
  V  V26  1  0.77570257  0.20808519  0.35980785  1
  V  V27  1  0.58959138  0.23733407  0.35537441  1
  V  V28  1  0.27294988  0.61514145  0.89531120  1
  V  V29  1  0.38250728  0.48677938  0.89594317  1
  V  V30  1  0.81830263  0.04849449  0.30609954  1
  V  V31  1  0.11502117  0.25576116  0.86298652  1
  V  V32  1  0.60784189  0.14607252  0.51183001  1
  V  V33  1  -0.00219524  0.90327729  0.87678040  1
  V  V34  1  0.35859362  0.50486897  0.39394576  1
  V  V35  1  0.87688646  0.62948638  0.74677635  1
  V  V36  1  -0.01170340  0.40957749  0.91829567  1
  V  V37  1  0.78883066  0.87284612  0.12608744  1
  V  V38  1  0.14245643  0.71940448  0.87070573  1
  V  V39  1  0.61518608  0.79877563  0.38825451  1
  V  V40  1  0.64015212  0.12962545  0.02065549  1
  V  V41  1  0.39296002  0.73076693  0.60855034  1
  V  V42  1  0.50773025  -0.02466913  0.00073542  1
  V  V43  1  0.08327691  0.39120832  0.73838713  1
  V  V44  1  0.83293627  0.39474211  0.02543735  1
  V  V45  1  0.75626502  0.76008877  -0.00047820  1
  V  V46  1  0.38540143  0.00578649  0.86964734  1
  V  V47  1  0.13462987  0.25491219  0.39279253  1
  V  V48  1  0.85958542  0.24138690  0.12152286  1
  V  V49  1  0.26785176  0.86988068  0.67169986  1
  V  V50  1  0.61995448  0.37014094  0.23857308  1
  Zn  Zn51  1  0.19336108  0.43420038  0.44921798  1
  Zn  Zn52  1  0.79802487  0.85009299  0.33069826  1
  Zn  Zn53  1  0.20650553  0.88616052  0.36526402  1
  Zn  Zn54  1  0.80743810  0.68662258  0.42244927  1
  Zn  Zn55  1  0.06404079  0.56895106  0.83689773  1
  Zn  Zn56  1  0.94367658  0.94786591  0.19427657  1
  Zn  Zn57  1  0.30482620  0.01816270  0.02141722  1
  Zn  Zn58  1  0.11457953  0.73444365  0.28909879  1
  Zn  Zn59  1  0.44879136  0.93336725  0.18191714  1
  Zn  Zn60  1  0.44766698  0.19346775  0.95694992  1
  Zn  Zn61  1  0.95055157  0.71483637  0.93265202  1
  Zn  Zn62  1  0.54207451  0.06793285  0.27217790  1
  Zn  Zn63  1  0.68201042  0.18133199  0.19564721  1
  Zn  Zn64  1  0.56495245  0.54687842  0.82298903  1
  Zn  Zn65  1  0.41724289  0.43197721  0.20483203  1
  Zn  Zn66  1  0.29299281  0.32398479  0.32546559  1
  Zn  Zn67  1  0.67283127  0.65695515  0.70996501  1
  Zn  Zn68  1  0.06444322  0.05536085  0.81753392  1
  Zn  Zn69  1  0.07600025  0.55080604  0.30973140  1
  Zn  Zn70  1  0.91846786  0.46591758  0.65705164  1
  Zn  Zn71  1  1.10066866  0.87453374  0.73536418  1
  Zn  Zn72  1  0.43212892  0.17635664  0.44844768  1
  Zn  Zn73  1  0.54423330  0.55059432  0.31587903  1
  Zn  Zn74  1  0.77811454  0.07365310  0.47074776  1
  Zn  Zn75  1  0.15138065  0.22645466  0.67288431  1
  Zn  Zn76  1  0.16679884  0.16937489  0.24417972  1
  Zn  Zn77  1  0.91830754  0.37961672  0.21582395  1
  Zn  Zn78  1  0.78339774  0.33208552  0.88009133  1
  Zn  Zn79  1  0.21732801  0.70127087  0.71620012  1
  Zn  Zn80  1  0.46308519  0.67163096  0.43029748  1
  Zn  Zn81  1  0.80362369  0.58809936  0.07295471  1
  Zn  Zn82  1  0.44706547  0.41958946  0.68993881  1
  Zn  Zn83  1  0.08647210  0.36103782  0.55324767  1
  Zn  Zn84  1  0.93495835  0.17527326  0.41035436  1
  Zn  Zn85  1  0.46890313  0.66765393  0.91989205  1
  Zn  Zn86  1  0.68972533  0.38012829  0.41719285  1
  Zn  Zn87  1  0.30330706  0.55986067  0.56032131  1
  Zn  Zn88  1  0.53237416  0.09883879  0.85541303  1
  Zn  Zn89  1  0.87031062  0.84140669  0.77727519  1
  Zn  Zn90  1  0.63170682  0.96060743  0.51422933  1
  Zn  Zn91  1  0.32944159  0.80387835  0.83140261  1
  Zn  Zn92  1  0.30472434  0.31634524  0.81332434  1
  Zn  Zn93  1  0.56062333  0.80869564  0.58936124  1
  Zn  Zn94  1  0.69549262  0.94519094  0.94615820  1
  Zn  Zn95  1  0.67373896  0.44298156  0.93297554  1
  Zn  Zn96  1  0.85059612  0.16413276  0.98623821  1
  Zn  Zn97  1  0.62576038  0.15947097  0.70973786  1
  Zn  Zn98  1  0.20251557  0.95621018  0.84300773  1
  Zn  Zn99  1  0.07197842  0.31929873  0.05333147  1
  Zn  Zn100  1  0.54214410  0.30055917  0.06253134  1
  Zn  Zn101  1  0.27483586  -0.03551313  0.52855665  1
  O  O102  1  0.15141198  0.05793208  0.23165879  1
  O  O103  1  0.11364598  0.14620759  0.60996104  1
  O  O104  1  0.08238194  0.67456233  0.09871645  1
  O  O105  1  0.11490568  0.68041748  0.62685542  1
  O  O106  1  0.64074846  0.10543755  0.12235835  1
  O  O107  1  0.63810737  0.16227144  0.60378979  1
  O  O108  1  0.59482582  0.58545896  0.12062750  1
  O  O109  1  0.62666579  0.61138098  0.61880501  1
  O  O110  1  0.36266786  0.37499396  0.39600664  1
  O  O111  1  0.37424541  0.38440892  0.87363777  1
  O  O112  1  0.39482133  0.88710980  0.37397338  1
  O  O113  1  0.40277459  0.88496207  0.87114772  1
  O  O114  1  0.89292334  0.38941772  0.39052974  1
  O  O115  1  0.88791204  0.38024516  0.92283849  1
  O  O116  1  0.89558357  0.86442778  0.39168709  1
  O  O117  1  0.87526921  0.91198012  0.86486946  1
  O  O118  1  0.27808245  -0.02156914  0.34765901  1
  O  O119  1  0.28434533  0.00125901  0.90754721  1
  O  O120  1  0.25993095  0.49273752  0.38322273  1
  O  O121  1  0.28179949  0.50856915  0.85334245  1
  O  O122  1  0.77661013  -0.03538412  0.33641516  1
  O  O123  1  0.75649518  0.01489181  0.88240147  1
  O  O124  1  0.74973412  0.46263598  0.37426649  1
  O  O125  1  0.75108032  0.43080832  0.85266029  1
  O  O126  1  0.29088416  0.39035701  0.10755368  1
  O  O127  1  0.26162769  0.48820972  0.63737955  1
  O  O128  1  0.21209445  1.00146347  0.08743907  1
  O  O129  1  0.28450647  0.96052508  0.63415638  1
  O  O130  1  0.73845717  0.56979044  0.18635066  1
  O  O131  1  0.73031750  0.51106019  0.59364840  1
  O  O132  1  0.73409230  0.96201370  0.12320644  1
  O  O133  1  0.80800456  0.97640583  0.52589775  1
  O  O134  1  0.01304177  0.37584789  0.28554927  1
  O  O135  1  -0.00717929  0.39906953  0.70095188  1
  O  O136  1  -0.03394365  0.88193269  0.28179492  1
  O  O137  1  -0.00386765  0.86641388  0.77960035  1
  O  O138  1  0.45309406  0.35449188  0.27430089  1
  O  O139  1  0.48679468  0.35024276  0.76535446  1
  O  O140  1  0.46275477  0.84513185  0.23159038  1
  O  O141  1  0.51553524  0.85656910  0.76299116  1
  O  O142  1  0.48305306  0.12411432  0.19769601  1
  O  O143  1  0.53227972  0.16177173  0.76671258  1
  O  O144  1  0.48178689  0.61997686  0.25553986  1
  O  O145  1  0.51036758  0.63814985  0.78596729  1
  O  O146  1  1.03868339  0.15236020  0.14350378  1
  O  O147  1  0.98998343  0.09059727  0.69259682  1
  O  O148  1  1.02799026  0.64200482  0.23514752  1
  O  O149  1  0.97734774  0.60247762  0.75302862  1
  O  O150  1  0.30642832  0.25485102  0.02172062  1
  O  O151  1  0.36600358  0.25136783  0.49854616  1
  O  O152  1  0.40162187  0.76594476  0.05416197  1
  O  O153  1  0.41796360  0.73373834  0.51373914  1
  O  O154  1  0.86057172  0.27706661  0.02302375  1
  O  O155  1  0.87532008  0.27751722  0.55016294  1
  O  O156  1  0.84390112  0.73237744  -0.03152952  1
  O  O157  1  0.85644827  0.74254894  0.49909811  1
  O  O158  1  0.10889102  0.25858771  0.50689195  1
  O  O159  1  0.09096876  0.26447629  0.96041720  1
  O  O160  1  0.15997166  0.74039039  0.47380069  1
  O  O161  1  0.14351288  0.78287757  0.94065580  1
  O  O162  1  0.61961575  0.23271890  0.45842826  1
  O  O163  1  0.61858557  0.22480284  1.02776385  1
  O  O164  1  0.59593683  0.76850884  0.49023472  1
  O  O165  1  0.68740970  0.74061722  0.91758952  1
  O  O166  1  0.45664017  0.21861959  0.06871242  1
  O  O167  1  0.47552206  0.24567262  0.65527514  1
  O  O168  1  0.41664670  0.74271827  0.11833862  1
  O  O169  1  0.49775170  0.73965082  0.65069544  1
  O  O170  1  1.03769201  0.17695102  0.07761652  1
  O  O171  1  0.92651104  0.26754514  0.59743823  1
  O  O172  1  0.95995260  0.74145712  0.16720667  1
  O  O173  1  1.06179856  0.72666221  0.62530902  1
  O  O174  1  0.00036087  0.26914852  0.39855554  1
  O  O175  1  0.05029372  0.35863779  0.85141982  1
  O  O176  1  0.02503580  0.76955981  0.35070109  1
  O  O177  1  0.04190814  0.67913612  0.88041377  1
  O  O178  1  0.48966582  0.24939583  0.37538219  1
  O  O179  1  0.48009684  0.25969693  0.87487651  1
  O  O180  1  0.51626988  0.76530687  0.38424756  1
  O  O181  1  0.50185170  0.76631169  0.87239904  1
  O  O182  1  0.21369336  0.05750384  0.49640352  1
  O  O183  1  0.19498643  0.15026287  1.07346930  1
  O  O184  1  0.22651904  0.60345970  0.49474596  1
  O  O185  1  0.26586892  0.61252913  0.98821509  1
  O  O186  1  0.77773279  0.18349202  0.45584514  1
  O  O187  1  0.73826699  0.12759068  0.99809065  1
  O  O188  1  0.73005059  0.63754213  0.47344433  1
  O  O189  1  0.71755199  0.64034176  1.02647932  1
  O  O190  1  0.25510284  0.30159078  0.01337782  1
  O  O191  1  0.25963512  0.37636832  0.52541726  1
  O  O192  1  0.24460053  0.73880020  0.07088885  1
  O  O193  1  0.23615812  0.88454313  0.46601843  1
  O  O194  1  0.73886182  0.37078724  -0.00156634  1
  O  O195  1  0.69206787  0.35933494  0.52064937  1
  O  O196  1  0.75416269  0.86249473  -0.00391177  1
  O  O197  1  0.75164062  0.93155539  0.54762234  1
  O  O198  1  0.12470116  0.47339958  0.24974217  1
  O  O199  1  0.11002778  0.48127632  0.77051905  1
  O  O200  1  0.07388151  1.03885544  0.23019384  1
  O  O201  1  0.13130672  0.98580330  0.76390828  1
  O  O202  1  0.58736113  0.47890214  0.23816467  1
  O  O203  1  0.64206796  0.54676494  0.73471816  1
  O  O204  1  0.60888310  0.99605363  0.22703406  1
  O  O205  1  0.69796474  0.94886899  0.70946849  1
  O  O206  1  0.38329059  -0.01201840  0.26333973  1
  O  O207  1  0.37758324  0.00577232  0.77692021  1
  O  O208  1  0.36680160  0.50074808  0.27552036  1
  O  O209  1  0.38729748  0.50680665  0.73443893  1
  O  O210  1  0.88386625  0.03185703  0.23548571  1
  O  O211  1  0.85563417  0.02263873  0.75684118  1
  O  O212  1  0.87388476  0.47073848  0.26521872  1
  O  O213  1  0.85746500  0.52734009  0.73402612  1
  O  O214  1  0.11931188  0.36440821  0.38918644  1
  O  O215  1  0.17918012  0.49440658  1.05392451  1
  O  O216  1  0.09810909  0.89808338  0.34834688  1
  O  O217  1  0.09538561  0.92461160  0.89454468  1
  O  O218  1  0.58838988  0.36759034  0.35298084  1
  O  O219  1  0.59815094  0.37317209  0.87825244  1
  O  O220  1  0.60017080  0.89776616  0.42508603  1
  O  O221  1  0.62449121  0.88196544  0.86857265  1
  O  O222  1  0.36473741  0.09127161  0.09128016  1
  O  O223  1  0.39046278  0.09554353  0.63542372  1
  O  O224  1  0.35747852  0.60354973  0.16169545  1
  O  O225  1  0.36788283  0.63549689  0.61745013  1
  O  O226  1  0.88173219  0.14783007  0.09318468  1
  O  O227  1  0.82766385  0.11517704  0.61404147  1
  O  O228  1  0.88399308  0.62906183  0.13904340  1
  O  O229  1  0.88724976  0.64673030  0.64851548  1
  O  O230  1  0.19357390  0.19968459  0.12697422  1
  O  O231  1  0.25041140  0.27393835  0.64594427  1
  O  O232  1  0.25064531  0.71688178  0.13650616  1
  O  O233  1  0.28004399  0.75580087  0.64016067  1
  O  O234  1  0.77142475  0.23951099  0.16903446  1
  O  O235  1  0.83716021  0.16475517  0.66487482  1
  O  O236  1  0.76306586  0.76932581  0.10182376  1
  O  O237  1  0.72798949  0.74276535  0.63391973  1
  O  O238  1  0.23249148  0.25415668  0.39400401  1
  O  O239  1  0.21303585  0.27156828  0.86299918  1
  O  O240  1  0.20760259  0.80101699  0.30159286  1
  O  O241  1  0.26576601  0.71786062  0.86859662  1
  O  O242  1  0.70959926  0.28225910  0.35473857  1
  O  O243  1  0.75010079  0.22867928  0.87668519  1
  O  O244  1  0.71679183  0.82578893  0.40994184  1
  O  O245  1  0.75753485  0.82133576  0.79636340  1
  O  O246  1  0.06909306  0.03514731  0.02599122  1
  O  O247  1  -0.01276378  0.14116422  0.50648238  1
  O  O248  1  -0.02925560  0.65725114  0.03335113  1
  O  O249  1  0.05648645  0.61345203  0.48851252  1
  O  O250  1  0.52017233  0.09920527  0.01150488  1
  O  O251  1  0.51108580  0.12526098  0.50742171  1
  O  O252  1  0.54893519  0.64701875  -0.00948095  1
  O  O253  1  0.55046081  0.60814463  0.41046638  1
  O  O254  1  0.47187230  0.36319353  0.48305565  1
  O  O255  1  0.49018526  0.36273482  0.98601066  1
  O  O256  1  0.55967956  0.91504556  0.57791933  1
  O  O257  1  0.52196751  0.88073655  0.98445123  1
  O  O258  1  1.00034276  0.39254419  0.49302525  1
  O  O259  1  1.01656495  0.40409374  1.01200315  1
  O  O260  1  1.01136484  0.83286171  0.47037295  1
  O  O261  1  0.97762553  0.82614822  0.93452847  1
  O  O262  1  0.47614542  0.47322899  0.37572139  1
  O  O263  1  0.48727712  0.47913474  0.86840617  1
  O  O264  1  0.48312281  1.00683679  0.35622815  1
  O  O265  1  0.50808912  0.98653391  0.88219825  1
  O  O266  1  1.02140767  0.49300725  0.39054911  1
  O  O267  1  0.99486238  0.50405725  0.89588113  1
  O  O268  1  1.00530324  0.96521337  0.41348430  1
  O  O269  1  0.97271143  1.01526345  0.87284931  1
  O  O270  1  0.05645466  -0.01859650  0.18091941  1
  O  O271  1  -0.02693319  0.03588878  0.64978687  1
  O  O272  1  -0.00368511  0.55024005  0.14319924  1
  O  O273  1  -0.03829972  0.51315307  0.57073797  1
  O  O274  1  0.50059423  -0.00403174  0.10944082  1
  O  O275  1  0.66661826  -0.00204200  0.67076198  1
  O  O276  1  0.47233905  0.48146683  0.12159166  1
  O  O277  1  0.53319947  0.48257971  0.65305201  1
  O  O278  1  0.22139035  0.35467180  0.25251184  1
  O  O279  1  0.26745035  0.39686114  0.73998824  1
  O  O280  1  0.29228012  0.86425260  0.17441264  1
  O  O281  1  0.26658490  0.87709318  0.77452467  1
  O  O282  1  0.71148462  0.38604942  0.23311223  1
  O  O283  1  0.67153898  0.34241914  0.75102298  1
  O  O284  1  0.78292934  0.85749624  0.22184926  1
  O  O285  1  0.85642170  0.88027389  0.66117359  1
  O  O286  1  0.28861519  0.16054638  0.24727865  1
  O  O287  1  0.33596631  0.12783770  0.60637164  1
  O  O288  1  0.28735793  0.67206035  0.28701934  1
  O  O289  1  0.25429757  0.60191774  0.73930044  1
  O  O290  1  0.74787807  0.12667813  0.29290970  1
  O  O291  1  0.70905537  0.12307573  0.77349351  1
  O  O292  1  0.75698060  0.58641084  0.25338536  1
  O  O293  1  0.77581054  0.63959448  0.75247979  1
  O  O294  1  0.37697889  0.08943198  0.38997987  1
  O  O295  1  0.41472463  0.10410389  0.89173280  1
  O  O296  1  0.38232348  0.60489508  0.38302711  1
  O  O297  1  0.38351442  0.60532056  0.88682682  1
  O  O298  1  0.86652363  0.23466399  0.33685858  1
  O  O299  1  0.85126843  0.12112815  0.88348659  1
  O  O300  1  0.86623797  0.58844654  0.37912113  1
  O  O301  1  0.88588499  0.63659434  0.85118863  1
  O  O302  1  0.10187388  0.34597267  0.15306263  1
  O  O303  1  0.14250518  0.37925404  0.64693160  1
  O  O304  1  0.18230322  0.92677839  0.09020087  1
  O  O305  1  0.17031052  0.85667739  0.64979550  1
  O  O306  1  0.58547679  0.37167814  0.13950246  1
  O  O307  1  0.65659632  0.42196809  0.66533236  1
  O  O308  1  0.60160385  0.88168007  0.12318993  1
  O  O309  1  0.68084867  0.79759589  0.62563641  1
  O  O310  1  0.11252220  0.24963393  0.28996964  1
  O  O311  1  0.10634359  0.28430580  0.75380523  1
  O  O312  1  0.11459999  0.78729436  0.19825549  1
  O  O313  1  0.14125569  0.76078677  0.77715673  1
  O  O314  1  0.60785122  0.25974604  0.24813703  1
  O  O315  1  0.66093596  0.29941591  0.69561501  1
  O  O316  1  0.60694949  0.83347089  0.29806899  1
  O  O317  1  0.62223785  0.73974439  0.76481388  1
  O  O318  1  0.33413720  0.21862263  0.25927293  1
  O  O319  1  0.36498646  0.23448486  0.76614988  1
  O  O320  1  0.34448842  0.71772908  0.26944365  1
  O  O321  1  0.39690958  0.74008390  0.76176990  1
  O  O322  1  0.93605296  0.27548317  0.17812800  1
  O  O323  1  0.82879597  0.34096211  0.72423416  1
  O  O324  1  0.82066459  0.73949450  0.33070568  1
  O  O325  1  0.89393816  0.73268749  0.75100833  1
  O  O326  1  0.37211889  0.49554175  0.49284598  1
  O  O327  1  0.37402149  0.48652326  0.98852253  1
  O  O328  1  0.37378133  0.98158384  0.47108528  1
  O  O329  1  0.40621551  0.97852752  0.99248963  1
  O  O330  1  0.88858135  0.54305529  0.44013168  1
  O  O331  1  0.83251220  0.49598721  1.02137904  1
  O  O332  1  0.86975233  1.07835234  0.39122957  1
  O  O333  1  1.02674311  0.97906537  1.03852144  1
  O  O334  1  0.20123222  -0.11757615  0.03520243  1
  O  O335  1  0.13977706  0.04639710  0.50555602  1
  O  O336  1  0.20359555  0.52152834  0.11468550  1
  O  O337  1  0.11856028  0.47742496  0.52325691  1
  O  O338  1  0.62236916  -0.00054613  0.01660635  1
  O  O339  1  0.66283182  0.06051011  0.48152601  1
  O  O340  1  0.61982476  0.48281337  0.03173021  1
  O  O341  1  0.59808472  0.48075110  0.53270265  1
  O  O342  1  0.34762470  0.35536895  0.13203550  1
  O  O343  1  0.37288676  0.37435793  0.61371065  1
  O  O344  1  0.33815980  0.90146782  0.13267433  1
  O  O345  1  0.36752800  0.83739205  0.63128968  1
  O  O346  1  0.84970389  0.38656224  0.12267062  1
  O  O347  1  0.82714294  0.38066430  0.66473300  1
  O  O348  1  0.88572123  0.89740073  0.11353052  1
  O  O349  1  0.91235919  0.87926332  0.61537120  1
  O  O350  1  0.11420025  0.15195553  0.41071883  1
  O  O351  1  0.09348420  0.16037603  0.84069072  1
  O  O352  1  0.13567201  0.64203611  0.34645817  1
  O  O353  1  0.16596701  0.61180957  0.87353491  1
  O  O354  1  0.59214536  0.14076271  0.34096438  1
  O  O355  1  0.63204733  0.11389933  0.90648227  1
  O  O356  1  0.65627037  0.71178825  0.36054386  1
  O  O357  1  0.64050809  0.55477413  0.90798009  1
