# generated using pymatgen
data_V51Zn51O256
_symmetry_space_group_name_H-M   'P 1'
_cell_length_a   17.90244264
_cell_length_b   17.42046598
_cell_length_c   17.36027224
_cell_angle_alpha   89.04505439
_cell_angle_beta   91.35729262
_cell_angle_gamma   91.59029487
_symmetry_Int_Tables_number   1
_chemical_formula_structural   V51Zn51O256
_chemical_formula_sum   'V51 Zn51 O256'
_cell_volume   5409.83075541
_cell_formula_units_Z   1
loop_
 _symmetry_equiv_pos_site_id
 _symmetry_equiv_pos_as_xyz
  1  'x, y, z'
loop_
 _atom_site_type_symbol
 _atom_site_label
 _atom_site_symmetry_multiplicity
 _atom_site_fract_x
 _atom_site_fract_y
 _atom_site_fract_z
 _atom_site_occupancy
  V  V0  1  0.72669764  0.40410062  0.12691919  1
  V  V1  1  0.40704959  0.75124496  0.65164462  1
  V  V2  1  0.25725156  0.52347645  0.74788727  1
  V  V3  1  0.78226670  0.75860399  -0.04591519  1
  V  V4  1  0.73188397  0.88810064  0.60277689  1
  V  V5  1  -0.04275193  0.38230407  0.35562147  1
  V  V6  1  0.90566394  0.87316746  0.01516686  1
  V  V7  1  0.63215483  0.61040800  0.52133327  1
  V  V8  1  0.00574497  0.02492216  0.50933982  1
  V  V9  1  0.10812617  0.71212044  0.84540886  1
  V  V10  1  0.76813372  0.12836510  0.40070231  1
  V  V11  1  0.39287020  -0.01942677  0.36298777  1
  V  V12  1  0.10148783  0.27973618  0.35735899  1
  V  V13  1  0.59816451  0.76896407  0.87703637  1
  V  V14  1  -0.02424157  0.62831282  0.58071558  1
  V  V15  1  0.57815796  0.30550059  0.78514594  1
  V  V16  1  0.25673035  0.19190396  0.36850403  1
  V  V17  1  0.50641933  0.60496981  0.63430141  1
  V  V18  1  0.38026109  0.87361921  0.51973415  1
  V  V19  1  0.04962440  0.71157972  0.17968208  1
  V  V20  1  0.57640359  0.61215928  0.02135557  1
  V  V21  1  0.06937716  0.15018761  -0.08382998  1
  V  V22  1  0.24373927  0.17037169  0.87334554  1
  V  V23  1  0.01416527  0.86810695  0.79805796  1
  V  V24  1  0.13317346  0.17353078  0.50654275  1
  V  V25  1  0.14041792  0.00569677  0.61662535  1
  V  V26  1  -0.01408856  0.72548585  0.70891992  1
  V  V27  1  0.86415790  0.13971926  0.76818189  1
  V  V28  1  0.38045823  0.75728025  0.11882206  1
  V  V29  1  0.01460029  0.11347899  0.14947364  1
  V  V30  1  0.14626104  0.45604637  0.08860301  1
  V  V31  1  0.12693629  0.40255570  0.73433806  1
  V  V32  1  0.50258347  0.48552954  0.50319576  1
  V  V33  1  0.14782860  0.51891268  0.57241611  1
  V  V34  1  0.74677946  -0.00159997  0.75980517  1
  V  V35  1  0.23400325  0.87400356  0.09161451  1
  V  V36  1  0.24055315  -0.03212467  0.25806350  1
  V  V37  1  0.00406162  0.88998112  0.39452912  1
  V  V38  1  0.25117094  0.03451390  0.74806926  1
  V  V39  1  0.41122606  0.46365639  0.93937931  1
  V  V40  1  0.56678134  -0.10339739  -0.00901816  1
  V  V41  1  0.87628673  0.66472166  0.23277559  1
  V  V42  1  0.55847080  0.11656947  0.18466868  1
  V  V43  1  0.89782336  -0.02087575  0.82709737  1
  V  V44  1  0.88179200  0.24572063  0.09316179  1
  V  V45  1  0.02545484  -0.00939266  0.00356488  1
  V  V46  1  0.48547562  0.73394983  0.26875641  1
  V  V47  1  0.24319588  0.86862812  0.63166405  1
  V  V48  1  0.36475628  0.51468460  0.40945313  1
  V  V49  1  -0.04822636  0.50501736  0.46956756  1
  V  V50  1  0.57595154  0.19956144  0.92868862  1
  Zn  Zn51  1  0.15868379  0.48802377  0.37431016  1
  Zn  Zn52  1  0.14816612  0.51547939  0.88360882  1
  Zn  Zn53  1  0.95407490  0.45132609  0.66603331  1
  Zn  Zn54  1  0.95574223  0.20569346  0.45817714  1
  Zn  Zn55  1  0.80627820  0.54195645  0.58409292  1
  Zn  Zn56  1  0.02997572  0.07141785  0.73149399  1
  Zn  Zn57  1  0.22821160  0.65999073  0.13088620  1
  Zn  Zn58  1  0.29206323  0.37820330  0.35735710  1
  Zn  Zn59  1  0.03449724  0.84484395  0.58616527  1
  Zn  Zn60  1  0.87373066  0.10959988  0.96627750  1
  Zn  Zn61  1  0.83251963  0.80734895  0.77349193  1
  Zn  Zn62  1  0.41286340  0.44177429  0.77926362  1
  Zn  Zn63  1  0.39984371  0.57548917  0.09075257  1
  Zn  Zn64  1  0.51962784  0.60544543  0.84408931  1
  Zn  Zn65  1  0.06722852  0.25540181  0.05596491  1
  Zn  Zn66  1  0.75639462  0.33871870  0.32203299  1
  Zn  Zn67  1  0.85262055  0.00789810  0.11207593  1
  Zn  Zn68  1  0.25226624  0.37432406  0.84515272  1
  Zn  Zn69  1  0.75048498  0.96264067  0.96086896  1
  Zn  Zn70  1  0.08542111  0.06574877  0.33896124  1
  Zn  Zn71  1  0.41139239  0.12307578  0.43896127  1
  Zn  Zn72  1  0.52502672  0.43452106  0.09958381  1
  Zn  Zn73  1  0.37926253  0.93208082  0.71652669  1
  Zn  Zn74  1  0.58672625  0.04703704  0.38073117  1
  Zn  Zn75  1  0.67752332  0.67069104  0.19430907  1
  Zn  Zn76  1  0.79334811  0.59690861  0.09084118  1
  Zn  Zn77  1  0.34760150  0.54241301  0.60434511  1
  Zn  Zn78  1  0.18244970  0.92669271  0.90581135  1
  Zn  Zn79  1  0.53941857  0.61204488  0.37871385  1
  Zn  Zn80  1  0.35164272  0.84764343  0.25812695  1
  Zn  Zn81  1  0.25746108  0.03569262  0.50712190  1
  Zn  Zn82  1  0.08805078  0.38131382  0.50129520  1
  Zn  Zn83  1  0.13355693  0.62668439  0.69387670  1
  Zn  Zn84  1  0.43413322  0.68967746  0.46609230  1
  Zn  Zn85  1  0.15181862  0.18253420  0.21162982  1
  Zn  Zn86  1  0.26016446  0.72727675  0.75510783  1
  Zn  Zn87  1  0.43215224  0.43345033  0.23638848  1
  Zn  Zn88  1  0.01325432  0.54496252  0.27351427  1
  Zn  Zn89  1  0.56112886  0.76512084  0.09705796  1
  Zn  Zn90  1  0.68685752  0.48822595  0.98305998  1
  Zn  Zn91  1  0.95863948  0.41420591  0.15367617  1
  Zn  Zn92  1  0.60394568  0.74470436  0.68522519  1
  Zn  Zn93  1  0.97574211  0.68952400  0.97627257  1
  Zn  Zn94  1  0.73427614  0.18826973  0.21563172  1
  Zn  Zn95  1  0.19915984  0.22029736  0.69651690  1
  Zn  Zn96  1  0.70114696  0.43027895  0.49160764  1
  Zn  Zn97  1  0.07919548  0.79729019  0.03061566  1
  Zn  Zn98  1  0.94214953  0.69738265  0.40409247  1
  Zn  Zn99  1  0.94427022  0.85739076  0.21273549  1
  Zn  Zn100  1  0.45379458  0.72735919  0.95261469  1
  Zn  Zn101  1  0.49470031  0.90972199  0.18231479  1
  O  O102  1  0.10845799  0.16813704  0.11154916  1
  O  O103  1  0.15709484  0.17337859  0.60270915  1
  O  O104  1  0.18226142  0.55149308  0.09992967  1
  O  O105  1  0.09804509  0.60578279  0.58984187  1
  O  O106  1  0.66061354  0.12159014  0.16602386  1
  O  O107  1  0.61886810  0.22933051  0.55648845  1
  O  O108  1  0.62513359  0.67301840  0.09239791  1
  O  O109  1  0.60035495  0.65506081  0.61621431  1
  O  O110  1  0.34043977  0.33982727  0.49222687  1
  O  O111  1  0.35688182  0.40046748  0.87688743  1
  O  O112  1  0.37823686  0.88867799  0.41714942  1
  O  O113  1  0.37935102  0.92589898  0.88744840  1
  O  O114  1  0.86526268  0.36416542  0.35400930  1
  O  O115  1  0.84469324  0.40147761  0.77777409  1
  O  O116  1  0.95245871  0.90850375  0.30771922  1
  O  O117  1  0.91109018  0.87212183  0.82874612  1
  O  O118  1  0.31866912  0.02088305  0.29737338  1
  O  O119  1  0.23473258  -0.00146806  0.83822842  1
  O  O120  1  0.26753504  0.48066184  0.40334194  1
  O  O121  1  0.25434719  0.52796497  0.84597776  1
  O  O122  1  0.77613653  0.03286553  0.38319734  1
  O  O123  1  0.78883895  -0.03487231  0.85189792  1
  O  O124  1  0.74857271  0.53872015  0.35427033  1
  O  O125  1  0.66932842  0.48306831  0.88100151  1
  O  O126  1  0.22449731  0.40649617  0.07275604  1
  O  O127  1  0.24260406  0.53655978  0.57409298  1
  O  O128  1  0.24847295  0.95702383  0.15406448  1
  O  O129  1  0.24041755  1.03330050  0.62730948  1
  O  O130  1  0.75043421  0.49602878  0.07355406  1
  O  O131  1  0.74476627  0.59436314  0.80442653  1
  O  O132  1  0.77240403  0.96005510  0.20231792  1
  O  O133  1  0.71490899  0.98203966  0.63623686  1
  O  O134  1  -0.01655707  0.38960837  0.26116417  1
  O  O135  1  0.03168866  0.41722449  0.72990189  1
  O  O136  1  0.03890637  0.80461489  0.20280405  1
  O  O137  1  0.01500939  0.85268176  0.69950332  1
  O  O138  1  0.58857053  0.39953164  0.35337112  1
  O  O139  1  0.50186427  0.36232252  0.80859330  1
  O  O140  1  0.52504447  0.82229395  0.25507104  1
  O  O141  1  0.40337356  0.88634677  0.83494558  1
  O  O142  1  0.59508375  0.09754942  0.28266260  1
  O  O143  1  0.53393036  -0.00836881  0.67549497  1
  O  O144  1  0.53312714  0.62543245  0.25984806  1
  O  O145  1  0.51951696  0.60338437  0.73131565  1
  O  O146  1  1.05064549  0.11504033  0.24192625  1
  O  O147  1  0.93944516  0.13264305  0.70926032  1
  O  O148  1  0.98982575  0.65337829  0.24258043  1
  O  O149  1  0.98430537  0.62520593  0.69438881  1
  O  O150  1  0.29666532  0.31391310  0.03646830  1
  O  O151  1  0.39746653  0.20082619  0.53648472  1
  O  O152  1  0.38403419  0.76354059  0.02064376  1
  O  O153  1  0.39833584  0.76897322  0.53303501  1
  O  O154  1  0.86405215  0.21217891  0.00167154  1
  O  O155  1  0.90126684  0.25326923  0.54637684  1
  O  O156  1  0.91037546  0.77743021  -0.01189156  1
  O  O157  1  0.79852890  0.80624090  0.37398982  1
  O  O158  1  0.12001183  0.27112407  0.49225919  1
  O  O159  1  0.05379582  0.24126376  0.94564661  1
  O  O160  1  0.16263570  0.75052768  0.47459437  1
  O  O161  1  0.07588087  0.73500510  0.94112037  1
  O  O162  1  0.63743778  0.29610757  0.53941490  1
  O  O163  1  0.62219811  0.21277166  1.01220302  1
  O  O164  1  0.63200935  0.65107058  0.43117457  1
  O  O165  1  0.68645886  0.76874565  0.94221177  1
  O  O166  1  0.56458594  0.21550238  0.17116175  1
  O  O167  1  0.44990029  0.21952309  0.58194018  1
  O  O168  1  0.47236958  0.72180968  0.14884573  1
  O  O169  1  0.49797800  0.76959418  0.67025966  1
  O  O170  1  0.97631771  0.21014119  0.11608126  1
  O  O171  1  0.93413606  0.30010943  0.59910356  1
  O  O172  1  1.02153757  0.70322074  0.08216219  1
  O  O173  1  1.00503839  0.73475248  0.59982522  1
  O  O174  1  -0.00177550  0.27999335  0.37991277  1
  O  O175  1  -0.05530335  0.38338480  0.93298332  1
  O  O176  1  -0.03804578  0.79913030  0.42456485  1
  O  O177  1  0.00201780  0.75944927  0.81569042  1
  O  O178  1  0.52158571  0.19295745  0.43420437  1
  O  O179  1  0.49562544  0.23239422  0.96870456  1
  O  O180  1  0.48796913  0.71415639  0.37124409  1
  O  O181  1  0.50427451  0.71638171  0.85890419  1
  O  O182  1  0.23093587  0.15104505  0.46488748  1
  O  O183  1  0.16698965  0.13530806  0.93473640  1
  O  O184  1  0.22970601  0.73862605  0.48017029  1
  O  O185  1  0.21664265  0.67863400  1.00188352  1
  O  O186  1  0.76432552  0.11898551  0.49871416  1
  O  O187  1  0.80437874  0.04082384  1.02032135  1
  O  O188  1  0.72318888  0.60840638  0.54761196  1
  O  O189  1  0.79367774  0.67593457  1.01143446  1
  O  O190  1  0.33466338  0.36541447  0.06416403  1
  O  O191  1  0.28852050  0.32994918  0.53689316  1
  O  O192  1  0.24305194  0.89372008  -0.00525692  1
  O  O193  1  0.28182506  0.90557836  0.53924184  1
  O  O194  1  0.73808588  0.35270084  0.02271454  1
  O  O195  1  0.74578861  0.45024731  0.58414213  1
  O  O196  1  0.80374511  0.86191574  -0.01426999  1
  O  O197  1  0.67521962  0.89578375  0.52185802  1
  O  O198  1  0.16319420  0.44518308  0.18745430  1
  O  O199  1  0.15307338  0.51334095  0.70873421  1
  O  O200  1  0.16038366  1.00453222  0.29018493  1
  O  O201  1  0.13932482  1.03083844  0.71763276  1
  O  O202  1  0.58503351  0.43540116  0.29220330  1
  O  O203  1  0.63242163  0.38417594  0.77527006  1
  O  O204  1  0.62609182  0.94423872  0.34188026  1
  O  O205  1  0.65839414  0.99649798  0.77809463  1
  O  O206  1  0.42823420  -0.06838757  0.28428033  1
  O  O207  1  0.34739484  0.03303070  0.73867341  1
  O  O208  1  0.37713435  0.44072795  0.32633475  1
  O  O209  1  0.35367781  0.51487214  0.71588803  1
  O  O210  1  0.79199480  -0.07883052  0.26014587  1
  O  O211  1  0.86580247  -0.00836082  0.73619111  1
  O  O212  1  0.92970297  0.51889779  0.19161426  1
  O  O213  1  0.85865552  0.50293309  0.69147819  1
  O  O214  1  0.11367611  0.37949311  0.38355507  1
  O  O215  1  0.14135936  0.41270746  0.83884080  1
  O  O216  1  0.08929167  0.86942434  0.37406608  1
  O  O217  1  0.10002560  0.87353272  0.84383299  1
  O  O218  1  0.69394637  0.38231834  0.39864840  1
  O  O219  1  0.60712318  0.29863860  0.89364763  1
  O  O220  1  0.60085726  0.87750163  0.37906246  1
  O  O221  1  0.58311184  0.86339207  0.86943472  1
  O  O222  1  0.47451104  0.13848396  0.22477231  1
  O  O223  1  0.50313347  0.13166589  0.59476026  1
  O  O224  1  0.33479161  0.65405333  0.12911731  1
  O  O225  1  0.41059009  0.64476660  0.62210101  1
  O  O226  1  0.92581688  0.07351930  0.15972644  1
  O  O227  1  0.77458182  0.24573051  0.65646559  1
  O  O228  1  0.89830028  0.58273017  0.15285391  1
  O  O229  1  0.88211242  0.63046643  0.58325334  1
  O  O230  1  0.26591268  0.26835964  0.15524267  1
  O  O231  1  0.31042669  0.25689913  0.66528267  1
  O  O232  1  0.27278003  0.78484410  0.12512282  1
  O  O233  1  0.23017332  0.77399141  0.64636841  1
  O  O234  1  0.74726322  0.30393980  0.08267271  1
  O  O235  1  0.76626085  0.31509716  0.65208158  1
  O  O236  1  0.70492663  0.80211131  0.20880368  1
  O  O237  1  0.76999848  0.79874607  0.58686572  1
  O  O238  1  0.22988018  0.29019497  0.36364224  1
  O  O239  1  0.23839604  0.26758112  0.86567358  1
  O  O240  1  0.19192641  0.67149847  0.34025391  1
  O  O241  1  0.20013458  0.74489547  0.84362158  1
  O  O242  1  0.77088179  0.23560733  0.37813106  1
  O  O243  1  0.65469626  0.15969431  0.89056287  1
  O  O244  1  0.77376154  0.74921351  0.40845302  1
  O  O245  1  0.80722262  0.74453180  0.86157823  1
  O  O246  1  -0.00165041  0.09113745  -0.03169888  1
  O  O247  1  0.03404504  0.13819124  0.49983056  1
  O  O248  1  -0.04698484  0.59843083  -0.08310020  1
  O  O249  1  -0.01844340  0.61600420  0.47167650  1
  O  O250  1  0.53162885  0.09194398  0.09025693  1
  O  O251  1  0.47166195  0.08573614  0.55003154  1
  O  O252  1  0.48090094  0.62766681  0.01857101  1
  O  O253  1  0.50878341  0.61620956  0.51554421  1
  O  O254  1  0.50418964  0.39229783  0.50047871  1
  O  O255  1  0.47428218  0.41604585  0.99647704  1
  O  O256  1  0.45035380  0.92930044  0.54569869  1
  O  O257  1  0.54810712  0.78667297  0.98418039  1
  O  O258  1  0.98086498  0.40432180  0.47134775  1
  O  O259  1  0.98145270  0.42235248  0.88732239  1
  O  O260  1  1.00819862  0.91670013  0.50921310  1
  O  O261  1  1.01216662  0.88433527  1.02502912  1
  O  O262  1  0.48087079  0.51584859  0.40166754  1
  O  O263  1  0.46190120  0.51257832  0.86367030  1
  O  O264  1  0.47295771  1.04184554  0.38241101  1
  O  O265  1  0.49634288  0.95130367  0.97115233  1
  O  O266  1  0.96380719  0.49584487  0.36387810  1
  O  O267  1  0.81089115  0.45341909  0.74208442  1
  O  O268  1  1.01730774  1.01181272  0.40454143  1
  O  O269  1  0.99832981  0.97929104  0.80312585  1
  O  O270  1  0.04497226  0.02476709  0.09676786  1
  O  O271  1  0.04075010  0.02635702  0.61662021  1
  O  O272  1  0.04444672  0.46803587  0.10602446  1
  O  O273  1  -0.02128547  0.51773657  0.57707323  1
  O  O274  1  0.54224553  0.01023732  0.18896801  1
  O  O275  1  0.50287288  -0.05547003  0.71928935  1
  O  O276  1  0.45618584  0.50672433  0.15582481  1
  O  O277  1  0.49933161  0.50628531  0.61455338  1
  O  O278  1  0.30406714  0.31951551  0.18674929  1
  O  O279  1  0.24275576  0.41732313  0.73557243  1
  O  O280  1  0.25404550  0.87650404  0.29217330  1
  O  O281  1  0.25743212  0.91162484  0.72020868  1
  O  O282  1  0.76616967  0.39738415  0.21711730  1
  O  O283  1  0.65044611  0.25275320  0.75191259  1
  O  O284  1  0.64030993  0.81983804  0.37228621  1
  O  O285  1  0.76729983  0.88005585  0.70665813  1
  O  O286  1  0.23281905  0.15527805  0.27935573  1
  O  O287  1  0.23838961  0.13965111  0.76804616  1
  O  O288  1  0.25380629  0.68081785  0.31263700  1
  O  O289  1  0.24385927  0.62339929  0.71745775  1
  O  O290  1  0.77454116  0.11970441  0.29105925  1
  O  O291  1  0.76926893  0.09781403  0.74265114  1
  O  O292  1  0.77836978  0.64132604  0.19441554  1
  O  O293  1  0.71945573  0.59181502  0.73842366  1
  O  O294  1  0.35202011  0.19415953  0.37583530  1
  O  O295  1  0.32325446  0.14564898  0.91081673  1
  O  O296  1  0.36126775  0.61067141  0.40523380  1
  O  O297  1  0.25987116  0.64442045  0.96014432  1
  O  O298  1  0.86545434  0.15705253  0.41698167  1
  O  O299  1  0.88770593  0.08389017  0.85720250  1
  O  O300  1  0.87066999  0.65302624  0.33025590  1
  O  O301  1  0.88463441  0.55764938  0.93512007  1
  O  O302  1  0.10196832  0.35961342  0.06877444  1
  O  O303  1  0.12265824  0.42171625  0.60233373  1
  O  O304  1  0.14306406  0.85096305  0.10074408  1
  O  O305  1  0.14412173  0.90115422  0.60971790  1
  O  O306  1  0.63397003  0.39917317  0.13277254  1
  O  O307  1  0.53585932  0.29710401  0.69900735  1
  O  O308  1  0.71205087  0.83204085  0.14358568  1
  O  O309  1  0.65137595  0.83891029  0.64384399  1
  O  O310  1  0.10647369  0.27592820  0.26114662  1
  O  O311  1  0.14061550  0.30640386  0.71834726  1
  O  O312  1  0.14166166  0.68622677  0.18362613  1
  O  O313  1  0.09704225  0.71841715  0.73577411  1
  O  O314  1  0.68897843  0.27049818  0.26035977  1
  O  O315  1  0.53010243  0.21394505  0.82691935  1
  O  O316  1  0.59221170  0.68616361  0.25967368  1
  O  O317  1  0.63639116  0.74397225  0.79008791  1
  O  O318  1  0.53610749  0.25747675  0.40554845  1
  O  O319  1  0.34994642  0.29853189  0.71602896  1
  O  O320  1  0.38757591  0.74407447  0.25933065  1
  O  O321  1  0.36678859  0.73837397  0.73931273  1
  O  O322  1  0.82313146  0.20523698  0.16040443  1
  O  O323  1  0.84963897  0.22843443  0.79000019  1
  O  O324  1  0.88132707  0.75861299  0.21100214  1
  O  O325  1  0.89317384  0.74627118  0.70963451  1
  O  O326  1  0.38936761  0.49450574  0.50990162  1
  O  O327  1  0.36096021  0.51975516  0.99754094  1
  O  O328  1  0.34429663  1.03179136  0.44726153  1
  O  O329  1  0.56028596  0.87726861  1.09774885  1
  O  O330  1  0.85983117  0.50311745  0.47753014  1
  O  O331  1  0.85718727  0.51733009  0.88133187  1
  O  O332  1  0.91821366  1.03942024  0.52158178  1
  O  O333  1  0.92423860  0.96191796  0.95724677  1
  O  O334  1  0.10438047  -0.01185347  -0.04482822  1
  O  O335  1  0.14314865  0.04142865  0.51698389  1
  O  O336  1  0.13528576  0.49042207  -0.00968517  1
  O  O337  1  0.11947665  0.50706688  0.47627423  1
  O  O338  1  0.64869760  -0.04862602  -0.01609791  1
  O  O339  1  0.60508067  0.03474272  0.48495054  1
  O  O340  1  0.59252379  0.51716120  0.04294534  1
  O  O341  1  0.60839355  0.50769750  0.50365666  1
  O  O342  1  0.47816231  0.36244157  0.17321755  1
  O  O343  1  0.38463266  0.36109404  0.68820072  1
  O  O344  1  0.39638757  0.85720731  0.14805227  1
  O  O345  1  0.36482828  0.85146681  0.64093199  1
  O  O346  1  0.89750404  0.34544253  0.09694338  1
  O  O347  1  0.89479620  0.36095579  0.61326932  1
  O  O348  1  0.89392950  0.89899910  0.11332702  1
  O  O349  1  0.81030277  0.92382747  0.55549363  1
  O  O350  1  0.11963823  0.17715691  0.38084287  1
  O  O351  1  0.05765494  0.14407719  0.81983448  1
  O  O352  1  0.11664749  0.53724872  0.28822037  1
  O  O353  1  0.10768471  0.61371319  0.85462047  1
  O  O354  1  0.67006706  0.13904460  0.40390290  1
  O  O355  1  0.54011172  0.10952753  0.93591252  1
  O  O356  1  0.69561152  0.54096476  0.30793586  1
  O  O357  1  0.60540381  0.62641068  0.92816771  1
