# generated using pymatgen
data_V51Zn51O256
_symmetry_space_group_name_H-M   'P 1'
_cell_length_a   17.65938678
_cell_length_b   17.37624578
_cell_length_c   17.34910771
_cell_angle_alpha   91.44558122
_cell_angle_beta   90.37906378
_cell_angle_gamma   88.60636662
_symmetry_Int_Tables_number   1
_chemical_formula_structural   V51Zn51O256
_chemical_formula_sum   'V51 Zn51 O256'
_cell_volume   5320.27589031
_cell_formula_units_Z   1
loop_
 _symmetry_equiv_pos_site_id
 _symmetry_equiv_pos_as_xyz
  1  'x, y, z'
loop_
 _atom_site_type_symbol
 _atom_site_label
 _atom_site_symmetry_multiplicity
 _atom_site_fract_x
 _atom_site_fract_y
 _atom_site_fract_z
 _atom_site_occupancy
  V  V0  1  0.47312012  0.27390087  0.73015216  1
  V  V1  1  0.38312228  0.87446995  0.54393517  1
  V  V2  1  0.75840221  0.47410115  0.73706500  1
  V  V3  1  0.11474215  0.08001175  0.13691005  1
  V  V4  1  0.43300795  0.38529762  -0.00307344  1
  V  V5  1  0.50856392  0.10263525  0.63026813  1
  V  V6  1  0.27844894  0.01203326  0.24322569  1
  V  V7  1  0.25373990  0.86455258  0.15933842  1
  V  V8  1  0.87203333  0.74723470  0.58951439  1
  V  V9  1  0.67478318  0.70478236  -0.10578935  1
  V  V10  1  0.51114570  0.38643774  0.38300802  1
  V  V11  1  0.34381386  0.62608919  0.76457381  1
  V  V12  1  0.17664938  0.88740118  0.64945906  1
  V  V13  1  0.73542421  0.23153687  0.52179625  1
  V  V14  1  0.38728337  0.05614925  0.89163974  1
  V  V15  1  0.30881390  0.15099360  0.74640166  1
  V  V16  1  0.61864209  0.23063756  0.38382469  1
  V  V17  1  0.13851481  0.12604763  0.49809110  1
  V  V18  1  0.76914960  0.11778468  0.38015452  1
  V  V19  1  0.40195227  0.25935366  0.13140568  1
  V  V20  1  0.61850133  0.05208801  -0.03993671  1
  V  V21  1  0.41622290  0.51291305  0.88613189  1
  V  V22  1  0.64167731  0.84676621  0.68579075  1
  V  V23  1  0.39930182  0.59526717  0.28792460  1
  V  V24  1  0.89363770  0.87171073  0.46187432  1
  V  V25  1  0.56372289  0.52581550  0.59563764  1
  V  V26  1  0.00717037  -0.00409460  0.46733067  1
  V  V27  1  -0.04084854  0.74415183  0.75821902  1
  V  V28  1  0.07870259  0.38806723  0.24387810  1
  V  V29  1  0.37582190  0.73039963  0.14093813  1
  V  V30  1  0.41241041  0.86652256  -0.10983884  1
  V  V31  1  0.25453955  0.27665998  0.50238704  1
  V  V32  1  0.63315087  0.51384881  0.18148493  1
  V  V33  1  0.88895864  0.47925524  0.89952174  1
  V  V34  1  0.87211950  0.57678511  0.23532296  1
  V  V35  1  0.49700373  0.08725577  0.12172584  1
  V  V36  1  -0.01601376  0.48733233  0.50193119  1
  V  V37  1  0.11875634  0.59170177  0.49723041  1
  V  V38  1  0.64320513  0.86427920  0.24721736  1
  V  V39  1  0.13676866  0.41526938  0.77194717  1
  V  V40  1  0.87269651  0.86458570  0.05308866  1
  V  V41  1  0.85002307  0.49931187  0.39066792  1
  V  V42  1  0.85291881  0.14889394  0.22932494  1
  V  V43  1  0.78357621  0.90364615  0.60778572  1
  V  V44  1  0.08477790  0.64246473  0.00849066  1
  V  V45  1  0.21857848  0.80082094  0.47248603  1
  V  V46  1  -0.00022041  0.63337909  0.61589803  1
  V  V47  1  0.22701524  0.58878228  0.36743951  1
  V  V48  1  0.64630937  0.34969018  0.26191986  1
  V  V49  1  -0.01517238  0.35739691  0.38260734  1
  V  V50  1  0.64393092  0.65033588  0.48653543  1
  Zn  Zn51  1  0.35631793  0.71180227  0.41891418  1
  Zn  Zn52  1  0.29719009  0.57611872  0.56753122  1
  Zn  Zn53  1  0.63531715  0.20998283  0.66539621  1
  Zn  Zn54  1  0.39915034  0.46387320  0.69283065  1
  Zn  Zn55  1  0.23421959  0.19360908  0.15188997  1
  Zn  Zn56  1  0.68890821  0.64647849  0.66372228  1
  Zn  Zn57  1  0.81477536  0.56090593  0.56941075  1
  Zn  Zn58  1  0.46800815  0.42577759  0.19411186  1
  Zn  Zn59  1  0.69819590  0.66067178  0.28342808  1
  Zn  Zn60  1  0.25751889  0.98395534  0.43646362  1
  Zn  Zn61  1  0.96142369  0.98361624  0.16119534  1
  Zn  Zn62  1  0.43849890  0.91303172  0.19899081  1
  Zn  Zn63  1  0.26161626  0.61821562  0.01970509  1
  Zn  Zn64  1  0.51509593  0.09977664  0.81080032  1
  Zn  Zn65  1  0.49463841  0.20269939  0.98406144  1
  Zn  Zn66  1  0.25783457  0.78582426  0.79639937  1
  Zn  Zn67  1  0.21757500  0.73460949  0.27677574  1
  Zn  Zn68  1  0.07561958  0.84474578  0.08143329  1
  Zn  Zn69  1  0.97338911  0.90383405  0.66672273  1
  Zn  Zn70  1  0.16754904  0.41748363  0.41530669  1
  Zn  Zn71  1  0.77902423  0.77351696  0.75545723  1
  Zn  Zn72  1  0.05427054  0.80779986  0.54063473  1
  Zn  Zn73  1  0.11986686  0.04574963  0.32827024  1
  Zn  Zn74  1  0.27787228  0.02948704  1.05202447  1
  Zn  Zn75  1  0.28750785  0.03403181  0.59509487  1
  Zn  Zn76  1  0.34218922  0.31300835  0.32096442  1
  Zn  Zn77  1  0.93540918  0.66839247  0.42495531  1
  Zn  Zn78  1  0.97154176  0.15235160  0.40154785  1
  Zn  Zn79  1  0.58135635  0.55933019  0.33616257  1
  Zn  Zn80  1  0.93734903  0.46136907  0.69015559  1
  Zn  Zn81  1  1.08078156  0.28765381  0.90832434  1
  Zn  Zn82  1  0.46934219  0.23498370  0.49060036  1
  Zn  Zn83  1  0.58484452  0.87855347  0.86791768  1
  Zn  Zn84  1  0.72109524  0.92236334  0.42557671  1
  Zn  Zn85  1  0.78161420  0.05801165  0.06506725  1
  Zn  Zn86  1  0.46059069  0.92819200  0.71919035  1
  Zn  Zn87  1  0.16567317  0.23189187  0.65765839  1
  Zn  Zn88  1  0.85885501  0.06669604  0.54103009  1
  Zn  Zn89  1  0.59769040  0.01990235  0.38591330  1
  Zn  Zn90  1  0.40809423  0.69450549  0.96057112  1
  Zn  Zn91  1  0.58056129  0.32449626  0.07826796  1
  Zn  Zn92  1  0.65000058  0.13227989  0.24431380  1
  Zn  Zn93  1  0.58632084  0.54898168  0.78608813  1
  Zn  Zn94  1  0.58102258  0.34191207  0.56092542  1
  Zn  Zn95  1  0.76671408  0.35436369  0.40463068  1
  Zn  Zn96  1  0.79685463  0.54693415  0.07068335  1
  Zn  Zn97  1  0.03865476  0.55373185  0.32007191  1
  Zn  Zn98  1  0.33990565  0.33779454  0.81723127  1
  Zn  Zn99  1  0.16811458  0.47937795  0.93772404  1
  Zn  Zn100  1  0.58107448  0.85926139  0.52694453  1
  Zn  Zn101  1  0.86036720  0.35793808  0.26251838  1
  O  O102  1  0.12860115  0.17837848  0.15618765  1
  O  O103  1  0.11055211  0.16728017  0.58470733  1
  O  O104  1  0.16191667  0.62179474  0.08173203  1
  O  O105  1  0.10310889  0.62301742  0.59606959  1
  O  O106  1  0.63670785  0.00832112  0.10190076  1
  O  O107  1  0.60464938  0.11025813  0.62288173  1
  O  O108  1  0.55439231  0.59158726  0.02357853  1
  O  O109  1  0.59795387  0.58171458  0.67290527  1
  O  O110  1  0.41610520  0.38217693  0.36102763  1
  O  O111  1  0.38239425  0.40908443  0.89387336  1
  O  O112  1  0.41703317  0.84663011  0.34353084  1
  O  O113  1  0.32339503  0.84924181  0.85541862  1
  O  O114  1  0.87953463  0.38172190  0.38121332  1
  O  O115  1  0.86886480  0.38097139  0.89777769  1
  O  O116  1  0.88347957  0.87616385  0.36925750  1
  O  O117  1  0.90046826  0.84956508  0.95895840  1
  O  O118  1  0.23353793  0.02616776  0.33904429  1
  O  O119  1  0.33027330  0.07144765  0.97304977  1
  O  O120  1  0.23008240  0.49265495  0.36074287  1
  O  O121  1  0.25899185  0.52704209  0.95815959  1
  O  O122  1  0.76152994  0.02012976  0.39105582  1
  O  O123  1  0.86242620  0.00969215  0.79475375  1
  O  O124  1  0.76040826  0.47528468  0.40972336  1
  O  O125  1  0.80164897  0.50420378  0.84647721  1
  O  O126  1  0.22146454  0.41627946  0.08601930  1
  O  O127  1  0.31992130  0.46403288  0.60444965  1
  O  O128  1  0.28993996  0.96551581  0.13817080  1
  O  O129  1  0.21069460  0.97805258  0.64883639  1
  O  O130  1  0.61738379  0.60388996  0.22966443  1
  O  O131  1  0.82520688  0.48897107  0.65424473  1
  O  O132  1  0.69188822  1.03577337  0.14028786  1
  O  O133  1  0.79910543  0.99895932  0.61125918  1
  O  O134  1  -0.02141082  0.36680171  0.27274659  1
  O  O135  1  0.04166477  0.43173886  0.74821815  1
  O  O136  1  0.01333710  0.89927527  0.23198475  1
  O  O137  1  -0.02844540  0.84320451  0.75741548  1
  O  O138  1  0.53508141  0.37042980  0.27378298  1
  O  O139  1  0.41339224  0.35887141  0.72315688  1
  O  O140  1  0.53977993  0.85959889  0.24015853  1
  O  O141  1  0.55221799  0.84187558  0.64995069  1
  O  O142  1  0.55722850  0.11145944  0.19475932  1
  O  O143  1  0.49024172  0.15976254  0.71961789  1
  O  O144  1  0.48457722  0.62002264  0.32276099  1
  O  O145  1  0.46360915  0.62677564  0.74452066  1
  O  O146  1  0.95894622  0.12329707  0.25050903  1
  O  O147  1  1.00177598  0.06645785  0.68087027  1
  O  O148  1  0.95701095  0.61306756  0.27272054  1
  O  O149  1  0.99366542  0.63925970  0.71429034  1
  O  O150  1  0.41754950  0.28940944  -0.02693250  1
  O  O151  1  0.36031270  0.27145185  0.47851766  1
  O  O152  1  0.43767211  0.79764520  -0.04425840  1
  O  O153  1  0.33305281  0.79301597  0.49664341  1
  O  O154  1  1.01010572  0.23762755  -0.02415135  1
  O  O155  1  0.96900583  0.23634330  0.63993375  1
  O  O156  1  0.89312052  0.77831184  0.09479268  1
  O  O157  1  0.90111600  0.76288144  0.48358777  1
  O  O158  1  0.18130321  0.21877261  0.46663348  1
  O  O159  1  0.17250237  0.24792654  0.95800934  1
  O  O160  1  0.13530038  0.75202902  0.48739139  1
  O  O161  1  0.07948963  0.74385637  1.03291847  1
  O  O162  1  0.63346879  0.24796856  0.50367130  1
  O  O163  1  0.60956180  0.24553959  0.98841127  1
  O  O164  1  0.61899856  0.74356534  0.50332768  1
  O  O165  1  0.61379799  0.77997494  0.91061501  1
  O  O166  1  0.50112440  0.24900292  0.09711671  1
  O  O167  1  0.54572115  0.28576384  0.65534216  1
  O  O168  1  0.46695384  0.72282371  0.12865224  1
  O  O169  1  0.43848971  0.68222771  0.57941513  1
  O  O170  1  0.95154577  0.25297811  0.08995801  1
  O  O171  1  0.97052596  0.30864073  0.63462638  1
  O  O172  1  1.04199953  0.83884364  0.19850311  1
  O  O173  1  0.99558688  0.73729127  0.60462032  1
  O  O174  1  -0.02042086  0.26277065  0.39480409  1
  O  O175  1  0.02575427  0.29277966  0.81923408  1
  O  O176  1  0.01053775  0.74628648  0.37797116  1
  O  O177  1  -0.06760680  0.72562936  0.84436543  1
  O  O178  1  0.52541289  0.20879218  0.39521312  1
  O  O179  1  0.51579578  0.28411346  0.81272894  1
  O  O180  1  0.43795785  0.77817989  0.35644052  1
  O  O181  1  0.46512719  0.70384999  0.73381643  1
  O  O182  1  0.22716016  0.07753033  0.50509832  1
  O  O183  1  0.24076773  0.27854191  0.94386918  1
  O  O184  1  0.22330942  0.60230451  0.48987876  1
  O  O185  1  0.17397255  0.66464296  0.95673686  1
  O  O186  1  0.78373735  0.13710163  0.49557087  1
  O  O187  1  0.71095113  0.07359803  0.98442425  1
  O  O188  1  0.71774290  0.61707639  0.54939545  1
  O  O189  1  0.76781728  0.64797830  1.01525214  1
  O  O190  1  0.17513752  0.40519028  0.03234998  1
  O  O191  1  0.22940540  0.37087547  0.49033737  1
  O  O192  1  0.11608307  0.92165618  -0.05806585  1
  O  O193  1  0.19806052  0.88743506  0.43617330  1
  O  O194  1  0.78653940  0.21458500  -0.05776943  1
  O  O195  1  0.78158019  0.31528122  0.50654292  1
  O  O196  1  0.78151327  0.83453665  0.04429954  1
  O  O197  1  0.79106770  0.87845246  0.49561135  1
  O  O198  1  0.08943092  0.48587122  0.24641009  1
  O  O199  1  0.14269256  0.51047034  0.82323602  1
  O  O200  1  0.14081844  1.02733265  0.21874267  1
  O  O201  1  0.07772944  1.13291340  0.86345371  1
  O  O202  1  0.65046795  0.46151845  0.26780434  1
  O  O203  1  0.66483633  0.47011168  0.75818195  1
  O  O204  1  0.60923929  0.95983365  0.28064399  1
  O  O205  1  0.81338702  1.02617987  0.84223870  1
  O  O206  1  0.36834386  -0.01919097  0.26615508  1
  O  O207  1  0.31179816  0.08670287  0.82529737  1
  O  O208  1  0.40392022  0.50699844  0.24430156  1
  O  O209  1  0.35649861  0.52161994  0.78339742  1
  O  O210  1  0.92054551  0.05289856  0.24742449  1
  O  O211  1  1.04454694  0.03981854  0.73266391  1
  O  O212  1  0.85412061  0.48585500  0.28079826  1
  O  O213  1  0.91820471  0.49575815  0.80193220  1
  O  O214  1  0.08594114  0.37077587  0.36126601  1
  O  O215  1  0.12598264  0.38773439  0.87760218  1
  O  O216  1  0.11017924  0.77842958  0.30947374  1
  O  O217  1  0.09987088  0.78307760  0.83917731  1
  O  O218  1  0.61819788  0.33823879  0.38251003  1
  O  O219  1  0.63870254  0.28512169  0.92301108  1
  O  O220  1  0.65611475  0.83883778  0.35000269  1
  O  O221  1  0.63397177  0.89873999  0.77045405  1
  O  O222  1  0.41436233  0.14569309  0.12598825  1
  O  O223  1  0.33750450  0.10406844  0.66325216  1
  O  O224  1  0.33942690  0.68587107  0.05114528  1
  O  O225  1  0.31760908  0.61582885  0.66922086  1
  O  O226  1  0.83661252  0.12120697  0.13428557  1
  O  O227  1  0.74905147  0.13562901  0.75225887  1
  O  O228  1  0.88140603  0.55623471  0.13868312  1
  O  O229  1  0.89335577  0.64136686  0.58319318  1
  O  O230  1  0.30829241  0.24868714  0.09967392  1
  O  O231  1  0.25363617  0.26389274  0.59966428  1
  O  O232  1  0.25238935  0.76104518  0.17739853  1
  O  O233  1  0.22448605  0.83016553  0.57985471  1
  O  O234  1  0.84044110  0.21168821  -0.01289018  1
  O  O235  1  0.73308542  0.22782470  0.62004474  1
  O  O236  1  0.69709889  0.65424077  -0.00761626  1
  O  O237  1  0.78007119  0.75372708  0.57942236  1
  O  O238  1  0.32038611  0.24191065  0.41036176  1
  O  O239  1  0.27222505  0.25915131  0.87744358  1
  O  O240  1  0.24987594  0.74079258  0.38681743  1
  O  O241  1  0.09274485  0.93636388  0.87672690  1
  O  O242  1  0.72755397  0.22058649  0.39934638  1
  O  O243  1  0.89633650  0.18363852  0.83456222  1
  O  O244  1  0.85769792  0.74911891  0.30901983  1
  O  O245  1  0.75608702  0.73651736  0.85435541  1
  O  O246  1  -0.05931929  0.07157239  -0.07318323  1
  O  O247  1  -0.03990112  0.09329890  0.49388882  1
  O  O248  1  0.00927196  0.63946631  0.07022734  1
  O  O249  1  0.00884956  0.60614244  0.48991627  1
  O  O250  1  0.54364519  0.09770462  0.02598097  1
  O  O251  1  0.46434251  0.14659430  0.55233475  1
  O  O252  1  0.53625144  0.65505558  -0.00166138  1
  O  O253  1  0.40405476  0.64554867  0.52720366  1
  O  O254  1  0.50311058  0.34396709  0.48039933  1
  O  O255  1  0.52853932  0.38825069  0.99956983  1
  O  O256  1  0.47125398  0.86766597  0.50648483  1
  O  O257  1  0.48191727  0.86511617  0.81568134  1
  O  O258  1  0.99804329  0.38861711  0.49376821  1
  O  O259  1  0.99633478  0.28178420  1.04351025  1
  O  O260  1  1.00183231  0.88598627  0.48049732  1
  O  O261  1  0.97744246  0.89200787  1.06111097  1
  O  O262  1  0.53446615  0.47959222  0.39624933  1
  O  O263  1  0.50366900  0.50668887  0.84530962  1
  O  O264  1  0.47939022  1.02828958  0.39845426  1
  O  O265  1  0.44185018  1.01560265  0.80499602  1
  O  O266  1  0.97745218  0.49050934  0.39306654  1
  O  O267  1  0.97988921  0.44914969  0.92144535  1
  O  O268  1  1.02685220  0.99663020  0.37112453  1
  O  O269  1  0.96972077  1.02955205  0.87674050  1
  O  O270  1  0.02256049  0.05318172  0.11182494  1
  O  O271  1  -0.05503455  0.01679186  0.65362653  1
  O  O272  1  -0.16674629  0.38799773  0.13540333  1
  O  O273  1  -0.01234677  0.51765128  0.60755525  1
  O  O274  1  0.47198160  -0.00555695  0.13392851  1
  O  O275  1  0.48846162  0.00786699  0.64394318  1
  O  O276  1  0.55038599  0.47986599  0.14231427  1
  O  O277  1  0.47535833  0.50020249  0.62195929  1
  O  O278  1  0.23023634  0.34544740  0.31218091  1
  O  O279  1  0.23519986  0.39040723  0.79342076  1
  O  O280  1  0.23049915  0.89969844  0.24835285  1
  O  O281  1  0.19407446  0.84767222  0.73764048  1
  O  O282  1  0.74412845  0.34730535  0.29209483  1
  O  O283  1  0.78901871  0.38310436  0.74575524  1
  O  O284  1  0.73177740  0.90431583  0.24524209  1
  O  O285  1  0.77356475  0.87457417  0.70334137  1
  O  O286  1  0.28020167  0.10491311  0.21101022  1
  O  O287  1  0.21539051  0.17755199  0.73924334  1
  O  O288  1  0.21623715  0.62034832  0.27628223  1
  O  O289  1  0.26779891  0.67684327  0.80492540  1
  O  O290  1  0.75788428  0.12381324  0.26712888  1
  O  O291  1  0.66394714  0.22962721  0.77819926  1
  O  O292  1  0.79409726  0.63907339  0.24178530  1
  O  O293  1  0.76075812  0.58309490  0.72005573  1
  O  O294  1  0.44254536  0.07571799  0.35914818  1
  O  O295  1  0.44792407  0.13425497  0.90404720  1
  O  O296  1  0.33782933  0.60749606  0.37448693  1
  O  O297  1  0.38976702  0.61609992  0.88586571  1
  O  O298  1  0.86303237  0.13984046  0.36034617  1
  O  O299  1  0.92989827  0.16011617  0.77677952  1
  O  O300  1  0.85398493  0.59954486  0.39331891  1
  O  O301  1  0.90483580  0.57201794  0.93899678  1
  O  O302  1  0.08041837  0.36132475  0.15308670  1
  O  O303  1  0.16695527  0.45822782  0.69021588  1
  O  O304  1  0.17635946  0.87036242  0.09553880  1
  O  O305  1  0.07750121  0.88330749  0.62817607  1
  O  O306  1  0.64821298  0.34102217  0.16299642  1
  O  O307  1  0.61864745  0.44414354  0.58171665  1
  O  O308  1  0.64567173  0.86404231  0.14857668  1
  O  O309  1  0.67833974  0.89085045  0.59627809  1
  O  O310  1  0.18875177  0.33619468  0.24790069  1
  O  O311  1  0.13203707  0.32163455  0.73055114  1
  O  O312  1  0.05867411  0.72628416  0.32197843  1
  O  O313  1  0.08026365  0.73529284  0.78829782  1
  O  O314  1  0.62936080  0.24207817  0.27805124  1
  O  O315  1  0.68041132  0.34059702  0.94074272  1
  O  O316  1  0.66449379  0.76407162  0.24459805  1
  O  O317  1  0.67628444  0.75052536  0.70236072  1
  O  O318  1  0.39500666  0.27627078  0.22789400  1
  O  O319  1  0.36669876  0.23299186  0.76365334  1
  O  O320  1  0.36716037  0.66870356  0.22464136  1
  O  O321  1  0.39296832  0.73001191  0.75260271  1
  O  O322  1  0.85918933  0.24607786  0.23143598  1
  O  O323  1  0.72875432  0.19145431  0.79675270  1
  O  O324  1  0.90248091  0.77131148  0.26170425  1
  O  O325  1  0.87102898  0.73879598  0.70099424  1
  O  O326  1  0.36055954  0.49158986  0.48601314  1
  O  O327  1  0.42477504  0.50228768  0.98642703  1
  O  O328  1  0.33657736  0.96248016  0.51456980  1
  O  O329  1  0.41211389  0.95846934  0.93515663  1
  O  O330  1  0.88164265  0.49414255  0.49981643  1
  O  O331  1  0.83739095  0.47660852  0.98847331  1
  O  O332  1  0.90017366  0.97513498  0.48541232  1
  O  O333  1  0.83674059  0.96293999  1.03294122  1
  O  O334  1  0.17291403  0.05711495  0.05932082  1
  O  O335  1  0.08999641  0.02224581  0.51488671  1
  O  O336  1  0.08977816  0.53967426  -0.00514439  1
  O  O337  1  0.10676054  0.49342858  0.49848194  1
  O  O338  1  0.60685537  -0.04436241  -0.05252428  1
  O  O339  1  0.61772835  -0.06195137  0.45378586  1
  O  O340  1  0.70600362  0.51471261  0.11571106  1
  O  O341  1  0.56638829  0.59206927  0.51357024  1
  O  O342  1  0.41016322  0.37319101  0.10338737  1
  O  O343  1  0.36215264  0.43814255  0.53564625  1
  O  O344  1  0.36768263  0.83637276  0.15265394  1
  O  O345  1  0.38844180  0.87771243  0.64186935  1
  O  O346  1  0.80100368  0.34093689  0.09226119  1
  O  O347  1  0.91367114  0.35030511  0.67207121  1
  O  O348  1  0.87222386  0.91741536  0.14925858  1
  O  O349  1  0.88680638  0.85993370  0.60279849  1
  O  O350  1  0.08758322  0.12800088  0.40556767  1
  O  O351  1  0.13894228  0.09846266  0.85887188  1
  O  O352  1  0.12030703  0.60412849  0.38954657  1
  O  O353  1  0.04143168  0.65030389  0.92178328  1
  O  O354  1  0.64307356  0.11511448  0.36395925  1
  O  O355  1  0.60483256  0.09340153  0.87198551  1
  O  O356  1  0.65799171  0.63228560  0.38618938  1
  O  O357  1  0.63359530  0.63244984  0.84278161  1
