# generated using pymatgen
data_V51Zn51O256
_symmetry_space_group_name_H-M   'P 1'
_cell_length_a   17.33275572
_cell_length_b   17.18869139
_cell_length_c   17.42774280
_cell_angle_alpha   90.67375247
_cell_angle_beta   91.07706291
_cell_angle_gamma   89.99766228
_symmetry_Int_Tables_number   1
_chemical_formula_structural   V51Zn51O256
_chemical_formula_sum   'V51 Zn51 O256'
_cell_volume   5190.92553329
_cell_formula_units_Z   1
loop_
 _symmetry_equiv_pos_site_id
 _symmetry_equiv_pos_as_xyz
  1  'x, y, z'
loop_
 _atom_site_type_symbol
 _atom_site_label
 _atom_site_symmetry_multiplicity
 _atom_site_fract_x
 _atom_site_fract_y
 _atom_site_fract_z
 _atom_site_occupancy
  V  V0  1  0.87374634  0.10789732  0.76641992  1
  V  V1  1  0.25679767  0.87855639  0.58321423  1
  V  V2  1  0.87385209  0.61559387  0.23431914  1
  V  V3  1  0.76816494  0.39055401  0.63175435  1
  V  V4  1  0.88926251  0.12610275  0.15285448  1
  V  V5  1  0.37002127  0.00261193  0.38985566  1
  V  V6  1  0.24466758  0.17221761  0.87362790  1
  V  V7  1  0.52145236  0.37620699  0.37511268  1
  V  V8  1  0.39514916  0.83597643  0.47522317  1
  V  V9  1  0.25424008  0.00343827  0.71854549  1
  V  V10  1  0.70361261  0.25606486  -0.02290390  1
  V  V11  1  0.89049691  0.40915922  0.51144878  1
  V  V12  1  0.40378927  0.23354558  0.12698052  1
  V  V13  1  -0.05873406  -0.04472904  0.53127820  1
  V  V14  1  0.14057400  0.62239684  -0.00168612  1
  V  V15  1  0.50966088  0.09943637  0.13383280  1
  V  V16  1  0.37007775  0.12847721  0.26083491  1
  V  V17  1  0.90083839  0.21956488  0.63532753  1
  V  V18  1  0.01638972  0.75457978  0.22810612  1
  V  V19  1  0.60464156  -0.02078516  0.64079352  1
  V  V20  1  -0.01422201  0.90188010  0.35277780  1
  V  V21  1  0.13611993  0.12653760  0.53188243  1
  V  V22  1  0.21905389  0.25655446  0.02058735  1
  V  V23  1  0.11168529  0.76901630  0.39249776  1
  V  V24  1  0.16103728  0.49849587  0.14194776  1
  V  V25  1  0.60485284  0.75795009  0.85609616  1
  V  V26  1  0.04178503  0.75340122  0.75829539  1
  V  V27  1  0.00491159  0.22335401  0.80704774  1
  V  V28  1  0.00704962  0.61443108  0.11282075  1
  V  V29  1  0.04096483  0.42267883  0.86357345  1
  V  V30  1  0.89866330  0.48455613  0.35000827  1
  V  V31  1  0.87212584  -0.01654569  0.87668095  1
  V  V32  1  0.13701148  0.23859323  0.37694081  1
  V  V33  1  0.46203559  0.25244276  0.60688200  1
  V  V34  1  0.75570534  0.61169197  0.37905488  1
  V  V35  1  0.36784555  -0.01495813  0.88695294  1
  V  V36  1  0.71486861  0.10630708  0.41786386  1
  V  V37  1  0.35753739  0.64825534  0.25248872  1
  V  V38  1  0.14565327  0.46929708  0.60430857  1
  V  V39  1  0.23899588  -0.00811140  0.25538109  1
  V  V40  1  0.06125702  0.86920161  0.88369476  1
  V  V41  1  0.85881148  0.86985811  -0.00421882  1
  V  V42  1  0.90500880  0.39372404  -0.01364627  1
  V  V43  1  0.61795493  0.50636610  0.11214637  1
  V  V44  1  0.86881079  0.74844567  0.11102906  1
  V  V45  1  0.50837622  -0.03424486  0.02452800  1
  V  V46  1  0.28455137  0.36522442  0.14540053  1
  V  V47  1  0.35436469  0.49869504  0.35890953  1
  V  V48  1  0.79751192  0.74809771  0.47510601  1
  V  V49  1  0.54465388  0.51879250  0.48851433  1
  V  V50  1  0.37193974  0.62302066  0.71493700  1
  Zn  Zn51  1  0.79887350  0.04462686  0.59989753  1
  Zn  Zn52  1  0.57238076  0.82539670  0.55767341  1
  Zn  Zn53  1  0.33190968  0.10399329  0.56442547  1
  Zn  Zn54  1  0.57542228  0.56071580  0.30780508  1
  Zn  Zn55  1  0.90612987  0.13546551  0.45317527  1
  Zn  Zn56  1  0.70107739  0.57489121  0.56897401  1
  Zn  Zn57  1  0.04744613  0.34119522  0.05639381  1
  Zn  Zn58  1  0.54356817  -0.04301174  0.83354897  1
  Zn  Zn59  1  0.54038032  0.06174921  0.32947030  1
  Zn  Zn60  1  0.03971503  0.28291295  0.54621110  1
  Zn  Zn61  1  0.46385882  0.45070938  0.64341008  1
  Zn  Zn62  1  0.22877796  0.22513516  0.22906492  1
  Zn  Zn63  1  0.07960214  0.11047744  0.23014217  1
  Zn  Zn64  1  0.16935238  0.95605182  0.42399547  1
  Zn  Zn65  1  0.37792773  0.12136442  0.77122432  1
  Zn  Zn66  1  0.41698804  0.94111891  0.71574400  1
  Zn  Zn67  1  0.09148359  0.04866066  0.83640918  1
  Zn  Zn68  1  0.20024827  0.43523027  0.96628338  1
  Zn  Zn69  1  0.82823812  0.79676780  0.30504872  1
  Zn  Zn70  1  0.06612449  0.56661124  0.29035644  1
  Zn  Zn71  1  0.18318850  0.41981375  0.41152159  1
  Zn  Zn72  1  0.55888680  0.67663189  0.67177253  1
  Zn  Zn73  1  0.41938330  0.20540634  0.43227680  1
  Zn  Zn74  1  0.90676647  0.17305446  -0.04287182  1
  Zn  Zn75  1  0.81735347  0.56312105  0.05846677  1
  Zn  Zn76  1  0.90873439  0.91893567  0.19927085  1
  Zn  Zn77  1  0.28057707  0.80168221  0.74024599  1
  Zn  Zn78  1  0.97004035  0.38514793  0.68805150  1
  Zn  Zn79  1  0.44682558  0.43615074  0.21082263  1
  Zn  Zn80  1  0.42003299  0.64554248  0.43678699  1
  Zn  Zn81  1  0.68327653  0.94460244  0.93823662  1
  Zn  Zn82  1  0.40466309  0.13592948  0.97651212  1
  Zn  Zn83  1  0.29034666  0.81611275  0.32259224  1
  Zn  Zn84  1  0.37876746  0.95758042  0.16440217  1
  Zn  Zn85  1  0.81369869  0.78673503  0.83290624  1
  Zn  Zn86  1  0.18944048  0.69525553  0.15124625  1
  Zn  Zn87  1  0.97695517  0.93792916  0.71625494  1
  Zn  Zn88  1  0.27360318  0.06679779  0.06738425  1
  Zn  Zn89  1  0.69379139  0.68057106  0.16962253  1
  Zn  Zn90  1  0.60327424  0.34441102  0.51950864  1
  Zn  Zn91  1  0.30015687  0.57173897  0.53241410  1
  Zn  Zn92  1  0.95012409  0.67977216  0.41213615  1
  Zn  Zn93  1  0.93144534  0.43242911  0.16085721  1
  Zn  Zn94  1  0.77810313  0.37437322  0.83721156  1
  Zn  Zn95  1  0.71305119  0.43246271  0.42786787  1
  Zn  Zn96  1  0.18654204  0.68734713  0.62864404  1
  Zn  Zn97  1  0.62468006  0.43524656  0.92906552  1
  Zn  Zn98  1  0.25728124  0.82120566  0.91716885  1
  Zn  Zn99  1  0.50683516  0.76907257  0.00175748  1
  Zn  Zn100  1  0.14045062  0.15773456  0.71816816  1
  Zn  Zn101  1  0.98851827  0.73343780  0.95885439  1
  O  O102  1  0.13634094  0.12573226  0.12364681  1
  O  O103  1  0.09279340  0.13657851  0.61984614  1
  O  O104  1  0.11169548  0.60220230  0.12859857  1
  O  O105  1  0.12598274  0.56833863  0.61244707  1
  O  O106  1  0.60163989  0.08952936  0.14850382  1
  O  O107  1  0.58069371  0.06928356  0.60312946  1
  O  O108  1  0.62193011  0.61403263  0.11256879  1
  O  O109  1  0.64724329  0.62862814  0.64667779  1
  O  O110  1  0.40251094  0.41217249  0.36832463  1
  O  O111  1  0.44472649  0.40048371  0.98606553  1
  O  O112  1  0.35748857  0.88922756  0.39287207  1
  O  O113  1  0.34898550  0.88986235  0.88560973  1
  O  O114  1  0.89760693  0.37303398  0.36221306  1
  O  O115  1  0.86883249  0.35533635  0.90222240  1
  O  O116  1  0.88603677  0.88994342  0.30612642  1
  O  O117  1  0.87445144  0.86086962  0.88491351  1
  O  O118  1  0.25211497  0.00374067  0.36249245  1
  O  O119  1  0.28525660  0.01100925  0.81843691  1
  O  O120  1  0.25729460  0.47802399  0.36142251  1
  O  O121  1  0.29916049  0.53473343  0.89717753  1
  O  O122  1  0.75425259  0.01147995  0.42904911  1
  O  O123  1  0.77676544  -0.01684253  0.87614014  1
  O  O124  1  0.77687291  0.50867728  0.36846757  1
  O  O125  1  0.71964327  0.45178580  0.88961052  1
  O  O126  1  0.26074878  0.46767714  0.14408701  1
  O  O127  1  0.24537071  0.47989659  0.57684348  1
  O  O128  1  0.27371958  0.99293752  0.14744239  1
  O  O129  1  0.31954710  1.07174604  0.67739360  1
  O  O130  1  0.71890099  0.51935181  0.09071758  1
  O  O131  1  0.75614218  0.48883256  0.61673504  1
  O  O132  1  0.82087373  1.04209035  0.11939837  1
  O  O133  1  0.70267226  1.00442485  0.64381538  1
  O  O134  1  0.01313229  0.36214624  0.23055948  1
  O  O135  1  -0.00564873  0.35999113  0.79287556  1
  O  O136  1  0.00799893  0.85617678  0.23484001  1
  O  O137  1  0.04175668  0.86035056  0.76549402  1
  O  O138  1  0.52114415  0.38198614  0.27584143  1
  O  O139  1  0.51805517  0.40743530  0.73825953  1
  O  O140  1  0.64870004  0.93251108  0.28615445  1
  O  O141  1  0.49197224  0.88305094  0.76840505  1
  O  O142  1  0.47468248  0.09565648  0.23912024  1
  O  O143  1  0.42589631  0.20427464  0.70707873  1
  O  O144  1  0.51582887  0.65036162  0.25768782  1
  O  O145  1  0.47521990  0.62909723  0.72806074  1
  O  O146  1  0.97348908  0.11729226  0.20854687  1
  O  O147  1  1.01245301  0.12011217  0.78886995  1
  O  O148  1  0.99481416  0.62883654  0.22488390  1
  O  O149  1  0.89984913  0.64372607  0.87885053  1
  O  O150  1  0.39968742  0.24127629  0.02905450  1
  O  O151  1  0.34022049  0.36799954  0.49131607  1
  O  O152  1  0.32693171  0.80164317  0.07580610  1
  O  O153  1  0.37018528  0.74080470  0.46554337  1
  O  O154  1  0.77453659  0.32210420  0.02019070  1
  O  O155  1  0.92273128  0.19773374  0.54134398  1
  O  O156  1  0.88408932  0.75753978  0.00463172  1
  O  O157  1  0.89198618  0.72181865  0.49444443  1
  O  O158  1  0.09602907  0.21163554  0.47647665  1
  O  O159  1  0.12275543  0.26194865  1.03779317  1
  O  O160  1  0.10248858  0.75600714  0.48407574  1
  O  O161  1  0.18273672  0.89164085  1.07520316  1
  O  O162  1  0.54514659  0.25720822  0.55865363  1
  O  O163  1  0.65425510  0.17311578  0.94532959  1
  O  O164  1  0.66623426  0.76609894  0.51831720  1
  O  O165  1  0.61708891  0.76540088  0.96279526  1
  O  O166  1  0.50074152  0.21397769  0.14113596  1
  O  O167  1  0.43238790  0.34648033  0.62200041  1
  O  O168  1  0.57622747  0.84386594  0.16174471  1
  O  O169  1  0.51591618  0.75038858  0.60864046  1
  O  O170  1  0.98886593  0.30904643  0.27130061  1
  O  O171  1  0.98887755  0.27920321  0.64752089  1
  O  O172  1  0.99019417  0.73450713  0.12538617  1
  O  O173  1  0.95805226  0.72200222  0.72584261  1
  O  O174  1  -0.04845786  0.20511438  0.37324706  1
  O  O175  1  -0.01250955  0.23004567  0.90382764  1
  O  O176  1  0.00867176  0.74842682  0.34057768  1
  O  O177  1  0.04558352  0.75085239  0.86244206  1
  O  O178  1  0.48244775  0.28577167  0.39732856  1
  O  O179  1  0.49047060  0.23455044  0.87912702  1
  O  O180  1  0.52539659  0.81553042  0.31622603  1
  O  O181  1  0.50555788  0.78001252  0.87651438  1
  O  O182  1  0.23057035  0.14579282  0.54884439  1
  O  O183  1  0.25351390  0.16004303  1.00753842  1
  O  O184  1  0.21945699  0.64317361  0.53532792  1
  O  O185  1  0.19376539  0.69947858  1.03875228  1
  O  O186  1  0.74660278  0.10775491  0.52426374  1
  O  O187  1  0.79213209  0.20524583  0.96275543  1
  O  O188  1  0.75423200  0.62873548  0.47901888  1
  O  O189  1  0.76770877  0.63240701  0.97917489  1
  O  O190  1  0.25248941  0.36170888  0.03428452  1
  O  O191  1  0.27468520  0.34537178  0.47147476  1
  O  O192  1  0.30122940  0.85313817  0.02322937  1
  O  O193  1  0.21800717  0.87673601  0.49387175  1
  O  O194  1  0.62885270  0.33173325  -0.02774868  1
  O  O195  1  0.79626165  0.37892749  0.49102148  1
  O  O196  1  0.76240623  0.88089419  -0.00543694  1
  O  O197  1  0.79424475  0.84102903  0.45776275  1
  O  O198  1  0.14470914  0.51163193  0.23788979  1
  O  O199  1  0.18503626  0.45325479  0.69426578  1
  O  O200  1  0.14401015  1.01911794  0.24653957  1
  O  O201  1  0.16071169  1.03801514  0.74034983  1
  O  O202  1  0.63061344  0.51932127  0.21513021  1
  O  O203  1  0.69692589  0.53371791  0.77258315  1
  O  O204  1  0.59823212  0.97732211  0.25938043  1
  O  O205  1  0.59861864  0.99833546  0.73911969  1
  O  O206  1  0.35893897  0.00459240  0.27229330  1
  O  O207  1  0.43019269  0.02218148  0.79761368  1
  O  O208  1  0.38643073  0.51788925  0.25776836  1
  O  O209  1  0.38399540  0.51626126  0.69934749  1
  O  O210  1  0.84970821  0.02424881  0.19136144  1
  O  O211  1  0.89398206  -0.00629635  0.76919100  1
  O  O212  1  0.88205031  0.51088101  0.22457053  1
  O  O213  1  0.91166541  0.55620676  0.71756618  1
  O  O214  1  0.12124136  0.33718839  0.37635283  1
  O  O215  1  0.14057588  0.41510327  0.87754990  1
  O  O216  1  0.09331779  0.87601230  0.37513198  1
  O  O217  1  0.15812375  0.87549706  0.89967648  1
  O  O218  1  0.62568951  0.36185168  0.40558029  1
  O  O219  1  0.53530076  0.44800019  0.86242805  1
  O  O220  1  0.58202583  0.79839634  0.35530922  1
  O  O221  1  0.62590955  0.86873773  0.85829007  1
  O  O222  1  0.37664511  0.13075000  0.13345226  1
  O  O223  1  0.28779275  0.28117387  0.64289316  1
  O  O224  1  0.46125621  0.64334416  0.20404645  1
  O  O225  1  0.37000344  0.61600877  0.61024894  1
  O  O226  1  0.91934424  0.15350180  0.06155814  1
  O  O227  1  0.87106453  0.11069104  0.65731611  1
  O  O228  1  0.88649407  0.63036746  0.11672239  1
  O  O229  1  0.89294278  0.58688733  0.65710369  1
  O  O230  1  0.26987066  0.25451313  0.12111822  1
  O  O231  1  0.29484334  0.31311772  0.70615463  1
  O  O232  1  0.16758001  0.84794529  0.12763181  1
  O  O233  1  0.23279752  0.79348472  0.63457260  1
  O  O234  1  0.67270236  0.23091633  0.06664134  1
  O  O235  1  0.82320074  0.27693548  0.62729465  1
  O  O236  1  0.77224800  0.73426702  0.11075401  1
  O  O237  1  0.72669223  0.75827162  0.56534205  1
  O  O238  1  0.22957006  0.22473894  0.39367252  1
  O  O239  1  0.22639839  0.26741151  0.91582140  1
  O  O240  1  0.20593863  0.75853323  0.36652580  1
  O  O241  1  0.25546687  0.75509562  0.83087784  1
  O  O242  1  0.65767305  0.18321071  0.44952951  1
  O  O243  1  0.70694511  0.29014086  0.87684309  1
  O  O244  1  0.78670787  0.71784673  0.37063336  1
  O  O245  1  0.70637201  0.75858436  0.84319451  1
  O  O246  1  0.10446675  0.08692488  0.06273439  1
  O  O247  1  -0.05035229  0.04357882  0.48859663  1
  O  O248  1  0.03082255  0.64050870  0.01026895  1
  O  O249  1  0.04609052  0.61496101  0.43514225  1
  O  O250  1  0.49656036  0.09061312  0.02765983  1
  O  O251  1  0.40211425  0.19219611  0.54188270  1
  O  O252  1  0.47856714  0.66789992  0.00453729  1
  O  O253  1  0.52265873  0.61680213  0.46346768  1
  O  O254  1  0.51149358  0.41476422  0.48690910  1
  O  O255  1  0.42259590  0.46823356  0.97922220  1
  O  O256  1  0.49254212  0.84221522  0.47837870  1
  O  O257  1  0.47738044  0.86908970  1.02807073  1
  O  O258  1  0.96508422  0.34851417  0.49123988  1
  O  O259  1  1.00586664  0.40775321  0.96263615  1
  O  O260  1  0.95656434  0.88797095  0.44964246  1
  O  O261  1  1.01902477  0.84662144  0.97013723  1
  O  O262  1  0.52829195  0.49459430  0.37683476  1
  O  O263  1  0.55770479  0.45101350  0.78730371  1
  O  O264  1  0.46950608  0.99856467  0.38409264  1
  O  O265  1  0.47414957  0.97572376  0.92230661  1
  O  O266  1  0.99410400  0.48939098  0.33153945  1
  O  O267  1  1.01960408  0.51152315  0.84011197  1
  O  O268  1  0.99542157  0.99434130  0.33954420  1
  O  O269  1  1.02722875  0.96628932  0.87208237  1
  O  O270  1  -0.00433970  -0.01595665  0.12428215  1
  O  O271  1  0.00096462  -0.05408143  0.61111170  1
  O  O272  1  -0.01316329  0.51915119  0.10644090  1
  O  O273  1  0.04783319  0.45900870  0.63384211  1
  O  O274  1  0.47786306  -0.01161455  0.12692593  1
  O  O275  1  0.50109253  -0.03877532  0.64190238  1
  O  O276  1  0.51945287  0.49550806  0.13165549  1
  O  O277  1  0.52060785  0.52310205  0.58747166  1
  O  O278  1  0.24466539  0.34326404  0.23038780  1
  O  O279  1  0.33450165  0.37284679  0.85773481  1
  O  O280  1  0.24064702  0.89158280  0.25559215  1
  O  O281  1  0.31265318  0.90716930  0.71339210  1
  O  O282  1  0.85431274  0.39381906  0.29958539  1
  O  O283  1  0.77386491  0.38273944  0.73042259  1
  O  O284  1  0.72564170  0.81867279  0.24325259  1
  O  O285  1  0.79868884  0.79084419  0.71581993  1
  O  O286  1  0.26895918  0.11774340  0.24447055  1
  O  O287  1  0.23982967  0.18336734  0.77575841  1
  O  O288  1  0.27752881  0.64105040  0.19325702  1
  O  O289  1  0.26767344  0.63239397  0.69862154  1
  O  O290  1  0.71959474  0.11738313  0.32023366  1
  O  O291  1  0.78156323  0.11704806  0.77748019  1
  O  O292  1  0.77488329  0.62566401  0.23291617  1
  O  O293  1  0.75616557  0.57155111  0.76681362  1
  O  O294  1  0.37974054  0.12337144  0.36486030  1
  O  O295  1  0.35021364  0.15262984  0.87762565  1
  O  O296  1  0.34912586  0.61811703  0.34874346  1
  O  O297  1  0.34875541  0.59870259  0.80573325  1
  O  O298  1  0.80536102  0.16042041  0.40883019  1
  O  O299  1  0.89138644  0.08802325  0.88168356  1
  O  O300  1  0.88521874  0.60564686  0.34174727  1
  O  O301  1  0.73407622  0.59059899  0.92787970  1
  O  O302  1  0.10884287  0.41814579  0.11764906  1
  O  O303  1  0.13354118  0.36525358  0.58377154  1
  O  O304  1  0.04201519  0.93873556  0.09410356  1
  O  O305  1  0.21696137  0.96445433  0.62222181  1
  O  O306  1  0.64142206  0.40882373  0.12312549  1
  O  O307  1  0.68280269  0.35104138  0.59771934  1
  O  O308  1  0.57801934  0.77994197  0.12774094  1
  O  O309  1  0.62520363  0.87436875  0.65788089  1
  O  O310  1  0.12980302  0.20433757  0.27616023  1
  O  O311  1  0.09643111  0.24501447  0.77958297  1
  O  O312  1  0.11356325  0.73817649  0.22286049  1
  O  O313  1  0.11325703  0.70973619  0.70444277  1
  O  O314  1  0.56816283  0.16764082  0.32800267  1
  O  O315  1  0.50549093  0.20979735  0.69715849  1
  O  O316  1  0.67602987  0.76271265  0.24908409  1
  O  O317  1  0.58507811  0.74883102  0.75848824  1
  O  O318  1  0.37794918  0.22710326  0.24517133  1
  O  O319  1  0.51924481  0.28191160  0.83516965  1
  O  O320  1  0.36406597  0.74543585  0.27318006  1
  O  O321  1  0.37780835  0.72570151  0.72321005  1
  O  O322  1  0.83404283  0.19384049  0.19000385  1
  O  O323  1  0.90533848  0.21394171  0.75703100  1
  O  O324  1  0.88763340  0.73423921  0.22506337  1
  O  O325  1  0.85350802  0.67384633  0.83128137  1
  O  O326  1  0.37318961  0.53725951  0.46219155  1
  O  O327  1  0.32381883  0.59534032  0.92455849  1
  O  O328  1  0.35479374  1.02687289  0.48444209  1
  O  O329  1  0.34178877  1.02690498  0.97623738  1
  O  O330  1  0.90635059  0.49557442  0.45673631  1
  O  O331  1  0.86210419  0.47978604  1.00357433  1
  O  O332  1  0.84946048  0.95304160  0.56799130  1
  O  O333  1  0.89667334  0.96433960  0.98192471  1
  O  O334  1  0.14940892  0.03662727  0.03005171  1
  O  O335  1  0.12450614  0.04064003  0.48236806  1
  O  O336  1  0.17875292  0.52710355  0.02797508  1
  O  O337  1  0.13012937  0.47221844  0.49984043  1
  O  O338  1  0.60549509  -0.04167005  0.02253225  1
  O  O339  1  0.60939672  -0.06327057  0.54235253  1
  O  O340  1  0.59242252  0.50096033  0.01384296  1
  O  O341  1  0.64662028  0.50784550  0.49099324  1
  O  O342  1  0.38766457  0.35345020  0.15096528  1
  O  O343  1  0.39555674  0.38840829  0.82705663  1
  O  O344  1  0.36650345  0.83147101  0.13443741  1
  O  O345  1  0.36080168  0.87452278  0.56527827  1
  O  O346  1  0.93414942  0.35179779  0.08068602  1
  O  O347  1  0.88973343  0.41772981  0.61338906  1
  O  O348  1  0.87602268  0.85727467  0.10874510  1
  O  O349  1  0.84217122  0.83330530  0.67676884  1
  O  O350  1  0.01473191  0.17459586  0.35157632  1
  O  O351  1  0.16977808  0.10984091  0.88949800  1
  O  O352  1  0.09988037  0.63375939  0.38433209  1
  O  O353  1  0.15533870  0.62427054  0.90723842  1
  O  O354  1  0.62598934  0.05176295  0.41057981  1
  O  O355  1  0.62078404  0.01865430  0.88223897  1
  O  O356  1  0.66361629  0.61801848  0.34756091  1
  O  O357  1  0.60099747  0.65983039  0.86804587  1
