# generated using pymatgen
data_V51Zn51O256
_symmetry_space_group_name_H-M   'P 1'
_cell_length_a   17.66786892
_cell_length_b   17.48233327
_cell_length_c   17.78662265
_cell_angle_alpha   89.85833317
_cell_angle_beta   88.55033510
_cell_angle_gamma   90.05702153
_symmetry_Int_Tables_number   1
_chemical_formula_structural   V51Zn51O256
_chemical_formula_sum   'V51 Zn51 O256'
_cell_volume   5492.07501020
_cell_formula_units_Z   1
loop_
 _symmetry_equiv_pos_site_id
 _symmetry_equiv_pos_as_xyz
  1  'x, y, z'
loop_
 _atom_site_type_symbol
 _atom_site_label
 _atom_site_symmetry_multiplicity
 _atom_site_fract_x
 _atom_site_fract_y
 _atom_site_fract_z
 _atom_site_occupancy
  V  V0  1  0.61089760  0.12467210  0.47448243  1
  V  V1  1  0.56052159  0.85382152  0.39194518  1
  V  V2  1  0.39918365  0.26483342  0.65734315  1
  V  V3  1  0.60441328  0.02329324  0.12653326  1
  V  V4  1  0.61692520  0.37498710  0.75002711  1
  V  V5  1  0.65654343  0.00246017  0.62742431  1
  V  V6  1  0.57175302  0.76193059  0.79301082  1
  V  V7  1  0.51245270  0.09875665  0.63539472  1
  V  V8  1  0.74093142  0.17055741  0.86787167  1
  V  V9  1  -0.02650728  0.23576460  0.26879387  1
  V  V10  1  0.47195990  0.69903746  0.33685920  1
  V  V11  1  0.85497375  0.88756480  0.01838536  1
  V  V12  1  0.39569979  0.06995442  0.76160334  1
  V  V13  1  0.25246582  0.09937824  0.87018815  1
  V  V14  1  0.14244956  0.89061840  0.29954297  1
  V  V15  1  0.75757757  -0.00501746  0.79038309  1
  V  V16  1  0.28659430  0.23818638  -0.00468233  1
  V  V17  1  0.23511377  0.75437186  0.05816857  1
  V  V18  1  0.76876410  0.40302773  0.10380054  1
  V  V19  1  0.22198311  -0.00530339  0.74285194  1
  V  V20  1  0.77138786  0.71960995  -0.02336562  1
  V  V21  1  0.91072717  0.47500760  0.88040431  1
  V  V22  1  -0.02894332  0.49121531  0.45189207  1
  V  V23  1  0.42892520  0.84448340  0.56891579  1
  V  V24  1  0.77946128  0.07279242  0.29965627  1
  V  V25  1  0.86893555  0.19477260  0.74182871  1
  V  V26  1  -0.03771488  0.00730892  -0.03575868  1
  V  V27  1  0.21796998  0.87279335  0.63967786  1
  V  V28  1  0.34840154  0.49284898  0.84315127  1
  V  V29  1  0.09087908  0.38765157  0.22251172  1
  V  V30  1  0.23652209  0.75858340  0.51334051  1
  V  V31  1  0.72228079  0.57565163  0.36016732  1
  V  V32  1  0.87821456  0.58404853  0.73206612  1
  V  V33  1  0.92921136  0.85127486  0.65856799  1
  V  V34  1  -0.02898793  0.77262994  0.29151633  1
  V  V35  1  0.88355481  0.75419964  0.13402225  1
  V  V36  1  0.39743857  -0.03879919  0.43366572  1
  V  V37  1  0.01071163  0.66656889  0.67250546  1
  V  V38  1  -0.03527006  0.12675795  0.11693314  1
  V  V39  1  0.70842902  0.39416570  0.60086351  1
  V  V40  1  0.22423228  0.46133919  0.71205994  1
  V  V41  1  0.13002994  0.23144378  0.90507796  1
  V  V42  1  0.36858449  0.39255278  -0.00151391  1
  V  V43  1  0.06946332  -0.04399509  0.07441493  1
  V  V44  1  0.55918922  0.49876395  0.07285194  1
  V  V45  1  0.25285309  0.50435046  0.23520898  1
  V  V46  1  0.60213150  0.36916369  0.21283435  1
  V  V47  1  0.22086117  0.61033691  0.82119929  1
  V  V48  1  0.77649311  0.24721605  0.00902951  1
  V  V49  1  0.73264520  0.25744295  0.47853672  1
  V  V50  1  0.03171503  0.78467939  0.80922229  1
  Zn  Zn51  1  0.23997977  0.93598079  0.44746308  1
  Zn  Zn52  1  0.76278909  1.03733872  0.98540155  1
  Zn  Zn53  1  0.67469486  0.21782528  0.69891489  1
  Zn  Zn54  1  0.20337889  0.09302046  0.06493854  1
  Zn  Zn55  1  0.42885023  0.44469387  0.17040594  1
  Zn  Zn56  1  0.89654780  0.40247812  0.23592570  1
  Zn  Zn57  1  0.50652580  0.33184734  0.04088814  1
  Zn  Zn58  1  0.57859965  0.27493524  0.58450075  1
  Zn  Zn59  1  0.85211389  0.82115110  0.83578698  1
  Zn  Zn60  1  0.69426784  0.96098913  0.45185426  1
  Zn  Zn61  1  0.42974548  0.16470034  0.91877834  1
  Zn  Zn62  1  0.53362442  0.45130847  0.88545818  1
  Zn  Zn63  1  0.05915520  0.82018394  0.55813225  1
  Zn  Zn64  1  -0.00980803  0.57117413  0.25100101  1
  Zn  Zn65  1  0.71823850  0.58024790  0.14984413  1
  Zn  Zn66  1  0.53435618  0.52079836  0.29861559  1
  Zn  Zn67  1  0.93057872  0.18881393  0.92571949  1
  Zn  Zn68  1  0.09016362  0.07152574  0.21360299  1
  Zn  Zn69  1  0.34302368  0.02120848  0.58388864  1
  Zn  Zn70  1  0.25455843  0.55061213  0.53407783  1
  Zn  Zn71  1  0.28946883  0.30628716  0.81100596  1
  Zn  Zn72  1  0.06643236  0.53007658  0.78836980  1
  Zn  Zn73  1  0.61055960  0.02437618  0.30753236  1
  Zn  Zn74  1  0.78919101  0.25272166  0.29812053  1
  Zn  Zn75  1  0.84850275  0.56248371  0.02665363  1
  Zn  Zn76  1  0.18602408  0.70357967  0.70737404  1
  Zn  Zn77  1  0.24233905  0.19966487  0.18634191  1
  Zn  Zn78  1  0.59619177  0.08444915  0.77996063  1
  Zn  Zn79  1  0.89694523  0.32565629  0.41044291  1
  Zn  Zn80  1  0.77339298  0.73006375  0.66034366  1
  Zn  Zn81  1  0.20093172  0.41483064  0.89882039  1
  Zn  Zn82  1  0.62985229  0.81350834  0.56163390  1
  Zn  Zn83  1  0.41601147  0.86484908  0.76272294  1
  Zn  Zn84  1  0.10450517  0.24157671  0.09996548  1
  Zn  Zn85  1  0.25294594  0.54467222  0.04494302  1
  Zn  Zn86  1  0.65826052  0.85425916  0.03367071  1
  Zn  Zn87  1  0.31099994  0.81093158  0.32849379  1
  Zn  Zn88  1  0.38165017  0.66727041  0.50757178  1
  Zn  Zn89  1  0.09536720  0.51145657  0.59841603  1
  Zn  Zn90  1  0.67615384  0.19816290  0.17766191  1
  Zn  Zn91  1  0.67395583  0.39167041  0.39765766  1
  Zn  Zn92  1  0.71789463  0.38046362  0.90664872  1
  Zn  Zn93  1  0.88061319  0.92425171  0.21686389  1
  Zn  Zn94  1  0.44728155  0.44647287  0.69392530  1
  Zn  Zn95  1  0.07428613  0.76468903  0.16955784  1
  Zn  Zn96  1  0.26504838  0.81407158  0.83477193  1
  Zn  Zn97  1  0.93812883  1.03163079  0.75950409  1
  Zn  Zn98  1  0.76726306  0.14793238  0.58702620  1
  Zn  Zn99  1  0.13388788  0.93097390  0.89661622  1
  Zn  Zn100  1  0.27837883  0.35008030  0.25299552  1
  Zn  Zn101  1  0.83094254  0.38482103  0.71404904  1
  O  O102  1  0.15298456  0.14770073  0.15435135  1
  O  O103  1  0.10235503  0.12181536  0.59289607  1
  O  O104  1  0.08375491  0.65476200  -0.01176526  1
  O  O105  1  0.07731349  0.62163386  0.61740483  1
  O  O106  1  0.61392340  0.12585525  0.11721901  1
  O  O107  1  0.60663774  0.13016544  0.66850791  1
  O  O108  1  0.61970717  0.55863621  0.12030690  1
  O  O109  1  0.59939177  0.56636488  0.67280321  1
  O  O110  1  0.43553522  0.30880791  0.36705279  1
  O  O111  1  0.32089600  0.39632100  0.88391768  1
  O  O112  1  0.47202460  0.87627694  0.42918309  1
  O  O113  1  0.36984088  0.82135070  0.84523314  1
  O  O114  1  0.84081908  0.35198789  0.31945111  1
  O  O115  1  0.87734904  0.37195429  0.88680517  1
  O  O116  1  0.89721488  0.95019945  0.41539970  1
  O  O117  1  0.88696586  0.86579951  0.93062568  1
  O  O118  1  0.31316940  0.01640996  0.47811871  1
  O  O119  1  0.21919335  -0.00072502  0.85347035  1
  O  O120  1  0.25393161  0.56534331  0.30444949  1
  O  O121  1  0.22479753  0.48719166  0.81585152  1
  O  O122  1  0.84181378  0.10732957  0.35657595  1
  O  O123  1  0.75037691  0.04751020  0.87603708  1
  O  O124  1  0.74858836  0.47625325  0.36529900  1
  O  O125  1  0.81973151  0.41252533  0.84730566  1
  O  O126  1  0.23837989  0.54980415  0.15064317  1
  O  O127  1  0.26470090  0.48440787  0.62581388  1
  O  O128  1  0.16080907  0.99445147  0.07955501  1
  O  O129  1  0.26152273  0.97414521  0.64466988  1
  O  O130  1  0.78018130  0.50300421  0.09502619  1
  O  O131  1  0.70474615  0.48504440  0.57990815  1
  O  O132  1  0.67263628  1.03037224  0.20757649  1
  O  O133  1  0.74309675  1.04378153  0.61072517  1
  O  O134  1  -0.00470066  0.34142776  0.24076216  1
  O  O135  1  0.06172572  0.33562940  0.63759269  1
  O  O136  1  -0.05675161  0.86980123  0.28073478  1
  O  O137  1  0.08164270  0.86742823  0.82755936  1
  O  O138  1  0.43811301  0.17865160  0.20101455  1
  O  O139  1  0.53003638  0.42750004  0.75832639  1
  O  O140  1  0.55322376  0.76273211  0.34717778  1
  O  O141  1  0.52947377  0.84411959  0.76248746  1
  O  O142  1  0.37612900  0.02200374  0.13886729  1
  O  O143  1  0.48782695  0.10729109  0.76790770  1
  O  O144  1  0.50082046  0.62176368  0.28226953  1
  O  O145  1  0.64260612  0.64596110  0.83779074  1
  O  O146  1  0.99816504  0.14067789  0.22404565  1
  O  O147  1  0.95345187  0.14182503  0.74966087  1
  O  O148  1  1.01157852  0.67953851  0.24452145  1
  O  O149  1  0.98638061  0.60240632  0.75395358  1
  O  O150  1  0.38471763  0.23753072  -0.01345720  1
  O  O151  1  0.33355892  0.37158969  0.47550948  1
  O  O152  1  0.31932173  0.69064452  0.05189090  1
  O  O153  1  0.36931734  0.77904901  0.52489683  1
  O  O154  1  0.87162441  0.25088267  0.00108900  1
  O  O155  1  0.82822401  0.26904909  0.48021139  1
  O  O156  1  0.84304953  0.76743307  0.03086524  1
  O  O157  1  0.96258497  0.87231766  0.56511481  1
  O  O158  1  0.18975874  0.30323882  0.49346556  1
  O  O159  1  0.15944432  0.22571687  0.99994707  1
  O  O160  1  0.13888556  0.75729270  0.51897498  1
  O  O161  1  0.18436971  0.78911247  0.97189058  1
  O  O162  1  0.59001241  0.22278109  0.48857487  1
  O  O163  1  0.55258075  0.23430846  0.99516527  1
  O  O164  1  0.68503764  0.73236836  0.60390007  1
  O  O165  1  0.68540775  0.75099057  1.01499840  1
  O  O166  1  0.43924809  0.19316364  0.13311265  1
  O  O167  1  0.48684922  0.22084558  0.63690628  1
  O  O168  1  0.58363507  0.75406112  0.18404238  1
  O  O169  1  0.58335606  0.70773836  0.71110966  1
  O  O170  1  0.99930974  0.21610496  0.09317196  1
  O  O171  1  1.14395662  0.25645167  0.51914843  1
  O  O172  1  0.97655077  0.75153353  0.11258937  1
  O  O173  1  0.99865204  0.76431073  0.64032487  1
  O  O174  1  -0.03760923  0.24130063  0.36372400  1
  O  O175  1  0.03499827  0.22312308  0.90643082  1
  O  O176  1  -0.04489716  0.74860111  0.37837315  1
  O  O177  1  0.01195322  0.74098136  0.88807630  1
  O  O178  1  0.47578984  0.25669094  0.34342740  1
  O  O179  1  0.53358672  0.21025483  0.92866538  1
  O  O180  1  0.45256661  0.66487083  0.42435428  1
  O  O181  1  0.57438731  0.77923206  0.88923293  1
  O  O182  1  0.28137293  0.17994443  0.58606256  1
  O  O183  1  0.25608150  0.08793126  0.96444055  1
  O  O184  1  0.26929604  0.66156187  0.53349291  1
  O  O185  1  0.26098918  0.65628584  1.00857802  1
  O  O186  1  0.71651963  0.14918077  0.48007526  1
  O  O187  1  0.75707605  0.14994839  0.97750049  1
  O  O188  1  0.74676693  0.58281045  0.45362034  1
  O  O189  1  0.77333725  0.62152777  0.97797744  1
  O  O190  1  0.27525250  0.33583902  0.01343999  1
  O  O191  1  0.30026278  0.38735853  0.41774207  1
  O  O192  1  0.27514371  0.85505834  0.06154211  1
  O  O193  1  0.24781728  0.86797436  0.53827029  1
  O  O194  1  0.75246121  0.36397203  0.01055040  1
  O  O195  1  0.69189120  0.35707282  0.49923024  1
  O  O196  1  0.75623708  0.90153658  0.01214502  1
  O  O197  1  0.79421778  0.91845789  0.48503593  1
  O  O198  1  0.05889553  0.48039771  0.22245150  1
  O  O199  1  0.12177048  0.47640759  0.70002769  1
  O  O200  1  0.12245845  0.97877702  0.25919318  1
  O  O201  1  0.13641617  1.02204084  0.72740763  1
  O  O202  1  0.51838564  0.43272446  0.23589681  1
  O  O203  1  0.66653957  0.57590065  0.68421167  1
  O  O204  1  0.54516307  1.02770122  0.21175482  1
  O  O205  1  0.66730540  1.00358110  0.73877914  1
  O  O206  1  0.33312595  -0.09002790  0.37783691  1
  O  O207  1  0.40597921  -0.02371087  0.77313347  1
  O  O208  1  0.33785235  0.44473399  0.23258722  1
  O  O209  1  0.35317989  0.48201753  0.74611437  1
  O  O210  1  0.82516497  0.01256331  0.23484625  1
  O  O211  1  0.82634886  0.03926746  0.74064572  1
  O  O212  1  0.90399621  0.51043709  0.22786890  1
  O  O213  1  0.86157762  0.49510979  0.69882035  1
  O  O214  1  0.12157168  0.30596006  0.29600276  1
  O  O215  1  0.15400314  0.32099952  0.86866817  1
  O  O216  1  0.15034756  0.90745288  0.39547869  1
  O  O217  1  0.21458917  0.85227070  0.93207589  1
  O  O218  1  0.62904780  0.37211973  0.30420602  1
  O  O219  1  0.63314232  0.40734957  0.85051070  1
  O  O220  1  0.63595930  0.86071140  0.45700451  1
  O  O221  1  0.61619018  0.96040578  0.88952354  1
  O  O222  1  0.39166598  -0.04413698  0.12067914  1
  O  O223  1  0.40395112  0.08399255  0.65432799  1
  O  O224  1  0.50995969  0.68487464  0.02126250  1
  O  O225  1  0.44213826  0.59381735  0.64806063  1
  O  O226  1  0.87352007  0.12770097  0.12527231  1
  O  O227  1  0.84837127  0.17610772  0.64869807  1
  O  O228  1  0.86474484  0.64199323  0.11742341  1
  O  O229  1  0.92054912  0.63540002  0.64317881  1
  O  O230  1  0.27896551  0.18135618  0.07898794  1
  O  O231  1  0.32013172  0.24215267  0.58396397  1
  O  O232  1  0.16424994  0.72723933  0.11778705  1
  O  O233  1  0.23736200  0.77262433  0.64105029  1
  O  O234  1  0.74226666  0.24277004  0.10041076  1
  O  O235  1  0.70183493  0.24482640  0.59376053  1
  O  O236  1  0.79081873  0.66731787  0.13844827  1
  O  O237  1  0.83742187  0.82027995  0.65442826  1
  O  O238  1  0.31098457  0.22657292  0.41905193  1
  O  O239  1  0.27017679  0.22402519  0.89392438  1
  O  O240  1  0.25557345  0.76657945  0.41994873  1
  O  O241  1  0.22790789  0.71181715  0.81643043  1
  O  O242  1  0.71592972  0.27254973  0.38351546  1
  O  O243  1  0.73150160  0.26590201  0.90959891  1
  O  O244  1  0.66882763  0.65800377  0.37464232  1
  O  O245  1  0.78532083  0.74763025  0.88494720  1
  O  O246  1  -0.03286101  0.10160227  0.00025609  1
  O  O247  1  0.04513963  0.16071061  0.58953283  1
  O  O248  1  0.02959796  0.62660682  0.02157100  1
  O  O249  1  -0.06518752  0.57398372  0.49180581  1
  O  O250  1  0.43833391  0.07291054  0.00981186  1
  O  O251  1  0.51753463  0.10842368  0.54005317  1
  O  O252  1  0.45482185  0.69106882  -0.01857080  1
  O  O253  1  0.44482316  0.65546202  0.60599247  1
  O  O254  1  0.50975398  0.38296801  0.49892896  1
  O  O255  1  0.45787379  0.38078458  0.95104757  1
  O  O256  1  0.51962160  0.81111426  0.56893110  1
  O  O257  1  0.55857301  0.86796441  1.00739745  1
  O  O258  1  0.99195998  0.38781279  0.43072739  1
  O  O259  1  1.09651061  0.47151127  1.01086269  1
  O  O260  1  0.99363772  1.01778678  0.54038904  1
  O  O261  1  0.96922917  0.92556499  1.03344091  1
  O  O262  1  0.43390864  0.49146750  0.39300814  1
  O  O263  1  0.43979092  0.50680969  0.86347383  1
  O  O264  1  0.58102407  0.91880900  0.32484007  1
  O  O265  1  0.55509951  0.98402206  0.86496419  1
  O  O266  1  0.95226445  0.52876150  0.36079604  1
  O  O267  1  0.99904576  0.46093207  0.84279412  1
  O  O268  1  1.05513068  1.03956599  0.43280699  1
  O  O269  1  0.95084179  1.00784743  0.87027669  1
  O  O270  1  0.01902315  0.03011018  0.13003256  1
  O  O271  1  -0.04334835  0.07624467  0.53302280  1
  O  O272  1  0.07916465  0.50737086  0.06891291  1
  O  O273  1  0.00149631  0.47653944  0.54640971  1
  O  O274  1  0.52436141  0.02182509  0.07864635  1
  O  O275  1  0.54395454  0.00554427  0.64686632  1
  O  O276  1  0.46759286  0.52191216  0.09948836  1
  O  O277  1  0.46753139  0.52843224  0.61569025  1
  O  O278  1  0.18899773  0.42167596  0.25814452  1
  O  O279  1  0.23964352  0.36542286  0.72802867  1
  O  O280  1  0.22872101  0.85646446  0.26969050  1
  O  O281  1  0.22928784  0.88645026  0.74869336  1
  O  O282  1  0.69736524  0.39736388  0.17496751  1
  O  O283  1  0.71143495  0.40002414  0.71711488  1
  O  O284  1  0.71540395  1.01386267  0.35550572  1
  O  O285  1  0.78340952  0.90346039  0.80658974  1
  O  O286  1  0.33620392  0.16192908  0.41251152  1
  O  O287  1  0.28295500  0.08059551  0.75489180  1
  O  O288  1  0.11807448  0.64530962  0.33029539  1
  O  O289  1  0.22362592  0.59669090  0.72333160  1
  O  O290  1  0.73591048  0.16199183  0.26013459  1
  O  O291  1  0.75584380  0.19324663  0.76586384  1
  O  O292  1  0.70572981  0.57449142  0.25987592  1
  O  O293  1  0.80309364  0.64794708  0.72608751  1
  O  O294  1  0.44520930  0.02596848  0.38659295  1
  O  O295  1  0.36472424  0.10625887  0.85848730  1
  O  O296  1  0.37256323  0.52604378  0.41111070  1
  O  O297  1  0.30756960  0.58420060  0.87133630  1
  O  O298  1  1.01572046  0.09602218  0.42199056  1
  O  O299  1  0.85120031  0.16940899  0.85385856  1
  O  O300  1  0.80739644  0.61184781  0.32832774  1
  O  O301  1  0.87255745  0.55624438  0.83428301  1
  O  O302  1  0.11746804  0.34669301  0.13812530  1
  O  O303  1  0.16597240  0.49390896  0.51922632  1
  O  O304  1  0.08049965  0.87122378  0.11708811  1
  O  O305  1  0.12487546  0.88305072  0.63040958  1
  O  O306  1  0.57167893  0.39721310  0.09910874  1
  O  O307  1  0.60522169  0.36785716  0.63636538  1
  O  O308  1  0.62207316  0.92241192  0.12323936  1
  O  O309  1  0.66760010  0.90898002  0.61278835  1
  O  O310  1  0.09205801  0.23857466  0.27683365  1
  O  O311  1  0.00167956  0.30626844  0.61899328  1
  O  O312  1  0.07790734  0.81089140  0.27732575  1
  O  O313  1  0.08205374  0.71782367  0.74475772  1
  O  O314  1  0.59382028  0.27327603  0.19565739  1
  O  O315  1  0.60598053  0.27932217  0.76247495  1
  O  O316  1  0.65246266  0.76529860  0.18660652  1
  O  O317  1  0.66509627  0.78928159  0.78270905  1
  O  O318  1  0.29739382  0.24845065  0.25583430  1
  O  O319  1  0.36426964  0.25014340  0.74685750  1
  O  O320  1  0.39579366  0.74745437  0.30219093  1
  O  O321  1  0.49636194  0.70137840  0.81252969  1
  O  O322  1  0.88332832  0.23789744  0.23761403  1
  O  O323  1  0.88611039  0.29230139  0.74399428  1
  O  O324  1  0.88051317  0.74825964  0.23174529  1
  O  O325  1  0.93907995  0.80184751  0.76805212  1
  O  O326  1  0.36358609  0.54248064  0.49012325  1
  O  O327  1  0.34065326  0.48525786  1.00537805  1
  O  O328  1  0.41999493  0.94496844  0.54033938  1
  O  O329  1  0.44635506  1.00553196  0.99180706  1
  O  O330  1  0.88045020  0.43959493  0.45609030  1
  O  O331  1  0.91990513  0.50231144  0.97290462  1
  O  O332  1  0.85210658  0.96940771  0.46735948  1
  O  O333  1  0.86097216  0.99701346  1.00702943  1
  O  O334  1  0.07045568  -0.01360536  -0.03180363  1
  O  O335  1  0.17897034  0.11979095  0.43960835  1
  O  O336  1  0.18166567  0.48012337  -0.01337212  1
  O  O337  1  0.06354434  0.51142349  0.42358834  1
  O  O338  1  0.67289354  0.02748723  0.05125571  1
  O  O339  1  0.63338305  0.02931514  0.51982360  1
  O  O340  1  0.57135234  0.50251062  -0.02274802  1
  O  O341  1  0.54516856  0.40622578  0.44261716  1
  O  O342  1  0.40332883  0.36678291  0.08841240  1
  O  O343  1  0.41211218  0.35797002  0.63882991  1
  O  O344  1  0.29903515  0.81639609  0.12300367  1
  O  O345  1  0.39554218  0.84962759  0.66041900  1
  O  O346  1  0.84977025  0.37230288  0.14033623  1
  O  O347  1  0.80381586  0.37007899  0.60794424  1
  O  O348  1  0.86163156  0.86146392  0.12764182  1
  O  O349  1  0.94245716  0.93958260  0.69924433  1
  O  O350  1  0.15974706  0.16534932  0.39114447  1
  O  O351  1  0.16352668  0.14604647  0.85242962  1
  O  O352  1  0.11632348  0.66818842  0.39534200  1
  O  O353  1  0.13081528  0.59133659  0.85552498  1
  O  O354  1  0.58992245  0.10442992  0.38476789  1
  O  O355  1  0.64726983  0.14451700  0.85428287  1
  O  O356  1  0.62496887  0.52661054  0.36740315  1
  O  O357  1  0.61552469  0.58140104  0.84668636  1
