# generated using pymatgen
data_V51Zn51O256
_symmetry_space_group_name_H-M   'P 1'
_cell_length_a   17.50616868
_cell_length_b   17.73405870
_cell_length_c   17.26237075
_cell_angle_alpha   89.64458723
_cell_angle_beta   89.38316076
_cell_angle_gamma   88.61455442
_symmetry_Int_Tables_number   1
_chemical_formula_structural   V51Zn51O256
_chemical_formula_sum   'V51 Zn51 O256'
_cell_volume   5357.22477503
_cell_formula_units_Z   1
loop_
 _symmetry_equiv_pos_site_id
 _symmetry_equiv_pos_as_xyz
  1  'x, y, z'
loop_
 _atom_site_type_symbol
 _atom_site_label
 _atom_site_symmetry_multiplicity
 _atom_site_fract_x
 _atom_site_fract_y
 _atom_site_fract_z
 _atom_site_occupancy
  V  V0  1  0.14620980  0.61488237  -0.00435634  1
  V  V1  1  0.00300918  0.12097591  0.12815478  1
  V  V2  1  0.48047919  0.12623399  0.65936170  1
  V  V3  1  0.75989211  0.30621557  0.48223499  1
  V  V4  1  0.08300747  -0.04825617  0.13578759  1
  V  V5  1  0.49244139  0.50337792  0.01863112  1
  V  V6  1  0.89878490  0.27720130  0.59946624  1
  V  V7  1  0.04330748  0.00350515  0.50769935  1
  V  V8  1  0.86723540  0.49498243  0.33608550  1
  V  V9  1  0.35818213  0.74193067  0.15427201  1
  V  V10  1  0.37449153  0.44978859  0.38672270  1
  V  V11  1  0.52633346  0.37270314  0.82108303  1
  V  V12  1  0.63408194  0.22355728  0.40018393  1
  V  V13  1  0.72693462  0.50896629  0.77545486  1
  V  V14  1  0.25693697  0.74153707  -0.02245215  1
  V  V15  1  -0.01622420  0.62513734  0.10693446  1
  V  V16  1  0.22224837  0.84980104  0.14151335  1
  V  V17  1  0.15605000  0.85103401  0.75931367  1
  V  V18  1  0.00258563  0.53731784  0.45324590  1
  V  V19  1  0.59801499  0.76345663  0.90203471  1
  V  V20  1  0.03126672  0.83228812  0.86551537  1
  V  V21  1  0.49583543  0.48961394  0.51795122  1
  V  V22  1  0.61043681  0.63081969  0.01501176  1
  V  V23  1  0.48345122  0.69906375  0.79571508  1
  V  V24  1  0.78858775  0.63381661  0.40567099  1
  V  V25  1  0.72416929  0.38112876  0.11941731  1
  V  V26  1  0.73888710  0.63233101  0.89711974  1
  V  V27  1  -0.04598749  0.44331615  0.02413948  1
  V  V28  1  0.37469308  0.74975915  0.62634476  1
  V  V29  1  -0.01804810  -0.02786059  -0.00882528  1
  V  V30  1  0.05409218  0.32690331  0.35286915  1
  V  V31  1  0.28583317  0.88959319  0.61613829  1
  V  V32  1  0.17000963  0.49762115  0.72239991  1
  V  V33  1  0.48658750  0.62979990  0.16315103  1
  V  V34  1  0.37628041  0.38515643  0.02503700  1
  V  V35  1  0.46828683  0.91801066  0.33198972  1
  V  V36  1  0.70627415  0.89066724  0.14197555  1
  V  V37  1  0.69127403  0.07656117  0.50866346  1
  V  V38  1  0.41609040  0.52115961  0.84050028  1
  V  V39  1  0.24434939  -0.01559609  0.82044534  1
  V  V40  1  0.61326576  0.50745092  0.15941261  1
  V  V41  1  0.76004942  -0.06057350  0.74340903  1
  V  V42  1  0.85213871  0.63207124  0.21920415  1
  V  V43  1  0.74038309  0.14036729  0.87101905  1
  V  V44  1  0.37093029  0.87516729  0.01032489  1
  V  V45  1  0.83482243  0.22504850  0.12299994  1
  V  V46  1  0.64947986  0.72875403  0.38608826  1
  V  V47  1  0.16752860  0.37686831  0.23630763  1
  V  V48  1  0.87446081  0.12797168  0.26955698  1
  V  V49  1  0.60843532  0.33727992  0.25877374  1
  V  V50  1  0.88234993  0.09012774  0.76001762  1
  Zn  Zn51  1  0.25687664  1.01006015  0.51645543  1
  Zn  Zn52  1  0.17608160  0.46608805  0.38192291  1
  Zn  Zn53  1  0.10166326  0.18613952  0.27047244  1
  Zn  Zn54  1  0.46566595  0.24848994  0.91449189  1
  Zn  Zn55  1  0.17257058  0.91226752  0.96285568  1
  Zn  Zn56  1  0.78602681  0.96975546  0.95425516  1
  Zn  Zn57  1  0.53840934  0.52014486  0.69524648  1
  Zn  Zn58  1  0.06267009  0.78633421  0.04254200  1
  Zn  Zn59  1  0.32328103  0.58197975  0.06409617  1
  Zn  Zn60  1  0.41578576  0.37821836  0.21410928  1
  Zn  Zn61  1  0.29679649  0.82225895  0.31525294  1
  Zn  Zn62  1  1.04896995  0.99686275  0.79015227  1
  Zn  Zn63  1  0.44232202  0.27159263  0.46002233  1
  Zn  Zn64  1  0.79811015  0.55263936  0.06195465  1
  Zn  Zn65  1  0.75516698  0.81483351  0.84773971  1
  Zn  Zn66  1  0.05752524  0.44677448  0.84908527  1
  Zn  Zn67  1  0.88594506  0.12636649  0.96207253  1
  Zn  Zn68  1  0.84824826  0.02461905  0.58662846  1
  Zn  Zn69  1  0.12265984  0.83099673  0.57190381  1
  Zn  Zn70  1  0.48640542  0.77601082  0.45244936  1
  Zn  Zn71  1  0.81332905  0.80121584  0.29612118  1
  Zn  Zn72  1  0.53455139  0.79951658  0.08357817  1
  Zn  Zn73  1  0.65811279  0.45508072  0.94954493  1
  Zn  Zn74  1  0.52368977  0.58930057  0.36564997  1
  Zn  Zn75  1  0.34393082  0.81617418  0.81843359  1
  Zn  Zn76  1  0.57811253  0.30849546  0.56140368  1
  Zn  Zn77  1  0.27974715  0.02225801  0.08753910  1
  Zn  Zn78  1  0.63872720  0.08446302  0.75888122  1
  Zn  Zn79  1  0.23388594  0.46859132  0.90608106  1
  Zn  Zn80  1  0.97223715  0.19131746  0.43653753  1
  Zn  Zn81  1  0.17346688  0.66115610  0.17362108  1
  Zn  Zn82  1  0.79958017  0.30759576  0.29314575  1
  Zn  Zn83  1  0.67464493  0.46973222  0.40809671  1
  Zn  Zn84  1  -0.08098189  0.39371577  0.48267747  1
  Zn  Zn85  1  0.61043874  0.92024772  0.44189728  1
  Zn  Zn86  1  0.03559021  0.32123937  0.15764476  1
  Zn  Zn87  1  0.64178873  0.65930702  0.72895959  1
  Zn  Zn88  1  0.90212139  0.93689243  0.20033919  1
  Zn  Zn89  1  0.67168099  0.69724364  0.18906763  1
  Zn  Zn90  1  0.35347282  0.05282182  0.68640474  1
  Zn  Zn91  1  0.76036628  0.17632578  0.65374101  1
  Zn  Zn92  1  0.19722647  0.44163202  1.07108149  1
  Zn  Zn93  1  0.01527530  0.02108877  0.29746042  1
  Zn  Zn94  1  0.43315629  0.68132966  0.96305249  1
  Zn  Zn95  1  0.60503969  0.61866773  0.51753509  1
  Zn  Zn96  1  1.00873396  0.44663359  0.63584007  1
  Zn  Zn97  1  0.68829001  0.15396349  0.22380360  1
  Zn  Zn98  1  0.35414677  0.54643506  0.65016404  1
  Zn  Zn99  1  0.87284169  0.55372664  0.55561565  1
  Zn  Zn100  1  0.64690814  0.28930643  -0.04894820  1
  Zn  Zn101  1  0.05001757  0.54122722  0.26850469  1
  O  O102  1  0.08398162  0.05487007  0.11822394  1
  O  O103  1  0.17796253  0.17267199  0.56261962  1
  O  O104  1  0.10364351  0.62328548  0.09402121  1
  O  O105  1  0.07890609  0.70549732  0.60294309  1
  O  O106  1  0.53654885  0.21591194  0.06415372  1
  O  O107  1  0.67982709  0.12396390  0.59483329  1
  O  O108  1  0.59913365  0.63223417  0.13539589  1
  O  O109  1  0.64640033  0.67671471  0.61309480  1
  O  O110  1  0.39440208  0.36184589  0.42546415  1
  O  O111  1  0.43803958  0.41671721  0.84914523  1
  O  O112  1  0.37007358  0.89606518  0.34686018  1
  O  O113  1  0.37043257  0.87065549  0.91049709  1
  O  O114  1  0.84315457  0.40268849  0.33005391  1
  O  O115  1  0.91183815  0.40350963  0.78040154  1
  O  O116  1  0.78550111  0.90608736  0.39503273  1
  O  O117  1  0.91681429  0.84458919  0.82813014  1
  O  O118  1  0.25168835  0.00187994  0.38814874  1
  O  O119  1  0.23478381  -0.00880241  0.91887792  1
  O  O120  1  0.28118417  0.47571184  0.40622280  1
  O  O121  1  0.32342747  0.51938088  0.86491282  1
  O  O122  1  0.74946837  -0.03555116  0.37747101  1
  O  O123  1  0.75967113  -0.07890528  0.86284499  1
  O  O124  1  0.76613582  0.53290484  0.37915980  1
  O  O125  1  0.71994653  0.52178221  0.88428062  1
  O  O126  1  0.26237757  0.51973026  0.14211525  1
  O  O127  1  0.26352131  0.50377417  0.68860316  1
  O  O128  1  0.20507241  0.94994705  0.11822540  1
  O  O129  1  0.28240347  0.99212285  0.63106970  1
  O  O130  1  0.72459392  0.48294273  0.12422527  1
  O  O131  1  0.79470866  0.52861398  0.63473434  1
  O  O132  1  0.66684030  0.97907110  0.16293741  1
  O  O133  1  0.79886790  0.95247873  0.65039175  1
  O  O134  1  0.00337742  0.35375310  0.27221529  1
  O  O135  1  -0.01189469  0.44149472  0.75578957  1
  O  O136  1  -0.10956577  0.87088300  0.28432490  1
  O  O137  1  0.05322633  0.88281073  0.76102156  1
  O  O138  1  0.51184856  0.33041976  0.24412170  1
  O  O139  1  0.54816105  0.41265875  0.73436876  1
  O  O140  1  0.47116982  0.91693991  0.23424118  1
  O  O141  1  0.53354871  0.90049504  0.73476632  1
  O  O142  1  0.46133152  0.11082412  0.18002875  1
  O  O143  1  0.55165894  0.14003333  0.72630534  1
  O  O144  1  0.49209759  0.62248831  0.26076269  1
  O  O145  1  0.51996976  0.63648016  0.72920425  1
  O  O146  1  1.02409099  0.11905379  0.23690271  1
  O  O147  1  0.97861435  0.07163825  0.75312312  1
  O  O148  1  0.98858895  0.61302823  0.20777581  1
  O  O149  1  1.03522045  0.68382086  0.65445253  1
  O  O150  1  0.39060221  0.30583237  -0.03014362  1
  O  O151  1  0.33370974  0.21868007  0.46988106  1
  O  O152  1  0.35653142  0.74022630  0.02046553  1
  O  O153  1  0.43190123  0.76322805  0.54534663  1
  O  O154  1  0.87093917  0.21289845  0.03127126  1
  O  O155  1  0.85606753  0.30878104  0.45840117  1
  O  O156  1  0.87672126  0.79155546  -0.14268018  1
  O  O157  1  0.89160448  0.81186065  0.48662157  1
  O  O158  1  0.20326546  0.31970840  0.51854699  1
  O  O159  1  0.13072685  0.23990337  0.95582869  1
  O  O160  1  0.14641068  0.76767549  0.48189446  1
  O  O161  1  0.15464960  0.73083607  0.99558347  1
  O  O162  1  0.65680135  0.26181167  0.49779038  1
  O  O163  1  0.55733095  0.22413326  0.97635624  1
  O  O164  1  0.63691355  0.81540585  0.43046509  1
  O  O165  1  0.59468192  0.73508017  1.01405194  1
  O  O166  1  0.59376545  0.20922512  0.10647499  1
  O  O167  1  0.48311186  0.24916163  0.56806601  1
  O  O168  1  0.47225014  0.73489876  0.14748809  1
  O  O169  1  0.55843907  0.86518448  0.67934594  1
  O  O170  1  1.03155521  0.20789873  0.10819596  1
  O  O171  1  0.95739657  0.22150988  0.54075736  1
  O  O172  1  0.98665113  0.71726662  0.08241366  1
  O  O173  1  0.96122117  0.81233541  0.64348970  1
  O  O174  1  0.05619771  0.22616320  0.36862689  1
  O  O175  1  -0.07941440  0.34100061  0.81183172  1
  O  O176  1  0.08896418  0.70298751  0.31780359  1
  O  O177  1  0.03166129  0.74330717  0.84839317  1
  O  O178  1  0.53758406  0.23925858  0.40882570  1
  O  O179  1  0.50516089  0.27827720  0.81567342  1
  O  O180  1  0.48277777  0.81465110  0.34213362  1
  O  O181  1  0.49204654  0.74796758  0.89590291  1
  O  O182  1  0.30212917  0.15320389  0.46118740  1
  O  O183  1  0.24243261  0.12483524  1.01749108  1
  O  O184  1  0.29681579  0.62610586  0.34176514  1
  O  O185  1  0.25546215  0.63326860  0.99349655  1
  O  O186  1  0.78684094  0.05766690  0.49815328  1
  O  O187  1  0.78471601  0.07881828  0.94788792  1
  O  O188  1  0.83300067  0.63888779  0.49184979  1
  O  O189  1  0.71351190  0.61902416  1.01868956  1
  O  O190  1  0.27770758  0.40605979  -0.00267223  1
  O  O191  1  0.24803137  0.32957668  0.57131874  1
  O  O192  1  0.24968857  0.84190685  0.01359767  1
  O  O193  1  0.28634598  0.89902136  0.51743442  1
  O  O194  1  0.68212845  0.36450849  0.02852674  1
  O  O195  1  0.72877148  0.39763999  0.48381060  1
  O  O196  1  0.72271229  0.91213865  0.04307929  1
  O  O197  1  0.73779303  0.76830640  0.57881455  1
  O  O198  1  0.13879993  0.47513538  0.27075988  1
  O  O199  1  0.11505184  0.44258866  0.66045353  1
  O  O200  1  0.08205719  0.95515455  0.23506163  1
  O  O201  1  0.15839889  1.00956323  0.77835888  1
  O  O202  1  0.62389142  0.53025328  0.25009679  1
  O  O203  1  0.64503641  0.54191971  0.72622856  1
  O  O204  1  0.62257674  1.07534521  0.19961688  1
  O  O205  1  0.67187044  0.98311007  0.73804661  1
  O  O206  1  0.22403433  0.10077107  0.20934979  1
  O  O207  1  0.31832258  0.03914890  0.79272948  1
  O  O208  1  0.39111492  0.45080618  0.28908453  1
  O  O209  1  0.42774933  0.52357272  0.74090656  1
  O  O210  1  0.90812308  0.02854405  0.26518779  1
  O  O211  1  0.84258962  0.00414429  0.78126482  1
  O  O212  1  0.86361331  0.51920235  0.23929681  1
  O  O213  1  0.81769129  0.52624592  0.70947171  1
  O  O214  1  0.15125210  0.35677086  0.35133876  1
  O  O215  1  0.07755660  0.27987492  0.82447676  1
  O  O216  1  0.18437239  0.80665888  0.42672772  1
  O  O217  1  0.13560144  0.85554791  0.87176918  1
  O  O218  1  0.62351104  0.38946163  0.33802088  1
  O  O219  1  0.60140694  0.37885493  0.89111024  1
  O  O220  1  0.56867222  0.94243483  0.33339904  1
  O  O221  1  0.60334770  0.85433098  0.90636639  1
  O  O222  1  0.29504957  0.09369737  0.17522010  1
  O  O223  1  0.39223989  0.15964886  0.69081022  1
  O  O224  1  0.37997123  0.63359451  0.14448528  1
  O  O225  1  0.37222048  0.65409206  0.64043161  1
  O  O226  1  0.89879219  0.12979886  0.15270545  1
  O  O227  1  0.85554195  0.10947953  0.65938936  1
  O  O228  1  0.87799499  0.61301014  0.11145722  1
  O  O229  1  0.95037823  0.77391311  0.49603662  1
  O  O230  1  0.25530115  0.19003159  0.03947278  1
  O  O231  1  0.16091985  0.27981078  0.68779198  1
  O  O232  1  0.24707130  0.73542054  0.13994917  1
  O  O233  1  0.28163349  0.77293098  0.60335575  1
  O  O234  1  0.74686855  0.18802730  0.12937681  1
  O  O235  1  0.79156687  0.26339159  0.58299892  1
  O  O236  1  0.71856793  0.78846017  0.12791459  1
  O  O237  1  0.86332672  0.68226564  0.66201269  1
  O  O238  1  0.36544338  0.10912136  0.32295809  1
  O  O239  1  0.22140454  0.17695838  0.79991397  1
  O  O240  1  0.24272445  0.76528142  0.39512310  1
  O  O241  1  0.27542199  0.74612522  0.88244888  1
  O  O242  1  0.73745641  0.26866813  0.38508283  1
  O  O243  1  0.72682862  0.22932642  0.90800959  1
  O  O244  1  0.76122062  0.73272053  0.36720540  1
  O  O245  1  0.70649290  0.73681672  0.90441660  1
  O  O246  1  -0.02982224  0.07338293  0.02316650  1
  O  O247  1  0.03331032  0.09874103  0.47117107  1
  O  O248  1  -0.00440443  0.55570170  0.02148075  1
  O  O249  1  -0.00255131  0.62859189  0.44127633  1
  O  O250  1  0.41703262  0.13382533  -0.04536084  1
  O  O251  1  0.50476609  0.17012743  0.56248318  1
  O  O252  1  0.49514933  0.61898572  0.03430724  1
  O  O253  1  0.55091295  0.68770609  0.42699220  1
  O  O254  1  0.53243588  0.39939093  0.52211526  1
  O  O255  1  0.48883484  0.40534922  1.02465468  1
  O  O256  1  0.48986230  0.90686808  0.44153989  1
  O  O257  1  0.46559144  0.86270811  1.03123189  1
  O  O258  1  1.01521003  0.36396378  0.43507557  1
  O  O259  1  0.96819616  0.36522599  1.08214709  1
  O  O260  1  1.05203952  0.90510181  0.52353232  1
  O  O261  1  1.00513480  0.84439989  0.96470413  1
  O  O262  1  0.44200911  0.51964114  0.42352065  1
  O  O263  1  0.49574042  0.52027197  0.91868516  1
  O  O264  1  0.43646709  1.00998643  0.34058338  1
  O  O265  1  0.55550091  1.02952434  1.04025910  1
  O  O266  1  0.97496441  0.50694751  0.34575022  1
  O  O267  1  0.99447146  0.42520820  0.93346788  1
  O  O268  1  1.02997193  0.98852888  0.40253904  1
  O  O269  1  1.00288260  0.98270236  0.89434511  1
  O  O270  1  -0.01785317  -0.06056770  0.12030059  1
  O  O271  1  0.04883564  0.03720930  0.60150948  1
  O  O272  1  0.00817234  0.50624561  0.09100433  1
  O  O273  1  -0.01744716  0.52894611  0.56284104  1
  O  O274  1  0.41749980  0.12773217  0.02660885  1
  O  O275  1  0.46277157  0.03324530  0.64572011  1
  O  O276  1  0.50630479  0.52204560  0.14212911  1
  O  O277  1  0.54675082  0.54807054  0.58398799  1
  O  O278  1  0.26090844  0.37040776  0.23218342  1
  O  O279  1  0.16298841  0.45033739  0.82248482  1
  O  O280  1  0.22639933  0.85911239  0.23884465  1
  O  O281  1  0.25804672  0.88573346  0.78402222  1
  O  O282  1  0.71265646  0.33553530  0.21614647  1
  O  O283  1  0.72701427  0.41782579  0.77107954  1
  O  O284  1  0.71982791  0.86926012  0.24385873  1
  O  O285  1  0.75028538  0.84110124  0.73872913  1
  O  O286  1  0.21782668  0.15699197  0.25863079  1
  O  O287  1  0.19859173  0.13989793  0.62237097  1
  O  O288  1  0.23563684  0.55959914  0.20122365  1
  O  O289  1  0.12837217  0.58037630  0.73185741  1
  O  O290  1  0.77901588  0.11528464  0.27737696  1
  O  O291  1  0.74124010  0.14391256  0.76342719  1
  O  O292  1  0.75626612  0.62794460  0.20510717  1
  O  O293  1  0.73585243  0.63545063  0.79381162  1
  O  O294  1  0.42628568  0.12709813  0.34969586  1
  O  O295  1  0.25853210  0.20313570  0.85282967  1
  O  O296  1  0.32433500  0.63954102  0.40502616  1
  O  O297  1  0.42786542  0.63059938  0.85332877  1
  O  O298  1  0.90433701  0.15592219  0.35915260  1
  O  O299  1  0.86807978  0.14565330  0.84569597  1
  O  O300  1  0.86276848  0.62278361  0.33293500  1
  O  O301  1  0.82917997  0.63126172  0.91752108  1
  O  O302  1  0.13111112  0.39508269  0.13911591  1
  O  O303  1  0.10017339  0.27647780  0.65380817  1
  O  O304  1  0.11942996  0.83877545  0.12613923  1
  O  O305  1  0.17927652  0.87659452  0.65199424  1
  O  O306  1  0.60930626  0.40588259  0.16447335  1
  O  O307  1  0.64855551  0.33274794  0.65598018  1
  O  O308  1  0.60838934  0.86370460  0.13340814  1
  O  O309  1  0.66951607  0.76035412  0.59582558  1
  O  O310  1  0.12476337  0.28221282  0.22457457  1
  O  O311  1  0.04872130  0.22085411  0.80440349  1
  O  O312  1  0.09358092  0.76481201  0.28264160  1
  O  O313  1  0.15812175  0.76086039  0.75005089  1
  O  O314  1  0.63244168  0.23503536  0.28859936  1
  O  O315  1  0.66428850  0.27833568  0.70028049  1
  O  O316  1  0.62939721  0.72553764  0.28970771  1
  O  O317  1  0.58666360  0.73918171  0.79551913  1
  O  O318  1  0.43829778  0.17617590  0.18804683  1
  O  O319  1  0.30609426  0.30826163  0.74210231  1
  O  O320  1  0.35350747  0.74754364  0.25205636  1
  O  O321  1  0.41355716  0.75701345  0.74799528  1
  O  O322  1  0.86245331  0.23846162  0.22890401  1
  O  O323  1  0.91225946  0.24860554  0.68890193  1
  O  O324  1  0.86491437  0.72634530  0.22544974  1
  O  O325  1  0.89038790  0.68060111  0.72724847  1
  O  O326  1  0.41259024  0.48838686  0.57157543  1
  O  O327  1  0.38735790  0.49943596  1.03009272  1
  O  O328  1  0.32986955  1.09379358  0.50600849  1
  O  O329  1  0.35623180  0.96916665  1.03282849  1
  O  O330  1  0.89307448  0.49574566  0.45472624  1
  O  O331  1  0.85899693  0.46939711  1.01879828  1
  O  O332  1  0.94231893  0.99646524  0.52782230  1
  O  O333  1  0.88799344  0.94644466  0.99265199  1
  O  O334  1  0.08520228  -0.05150759  0.02043517  1
  O  O335  1  0.14438849  0.00703896  0.49947734  1
  O  O336  1  0.16920385  0.51410922  -0.00910902  1
  O  O337  1  0.09732949  0.50952188  0.44562059  1
  O  O338  1  0.61701627  0.05871693  0.02594466  1
  O  O339  1  0.64242952  -0.00669753  0.50908813  1
  O  O340  1  0.60336839  0.51748394  0.03039055  1
  O  O341  1  0.58419103  0.52840145  0.44033352  1
  O  O342  1  0.37172384  0.35537787  0.11832018  1
  O  O343  1  0.34735172  0.33822010  0.69376748  1
  O  O344  1  0.33870382  0.84185830  0.12734951  1
  O  O345  1  0.37313246  0.86314414  0.65557317  1
  O  O346  1  0.81111527  0.33249097  0.11026935  1
  O  O347  1  0.93206898  0.37348110  0.59575121  1
  O  O348  1  0.80476297  0.91528380  0.14846174  1
  O  O349  1  0.89621671  0.83896807  0.63945727  1
  O  O350  1  0.21529509  0.05930512  0.36459969  1
  O  O351  1  0.11064025  0.17465614  0.94773674  1
  O  O352  1  0.13015271  0.63954579  0.28116627  1
  O  O353  1  0.09232437  0.62123964  0.92015785  1
  O  O354  1  0.65520597  0.12885206  0.41948292  1
  O  O355  1  0.65335918  0.09926813  0.87500269  1
  O  O356  1  0.68713514  0.64500251  0.44112027  1
  O  O357  1  0.60877424  0.62878009  0.91564336  1
