# generated using pymatgen
data_V51Zn51O256
_symmetry_space_group_name_H-M   'P 1'
_cell_length_a   17.58318333
_cell_length_b   17.88055304
_cell_length_c   17.72438404
_cell_angle_alpha   90.84004973
_cell_angle_beta   89.25008138
_cell_angle_gamma   90.65355512
_symmetry_Int_Tables_number   1
_chemical_formula_structural   V51Zn51O256
_chemical_formula_sum   'V51 Zn51 O256'
_cell_volume   5571.06723601
_cell_formula_units_Z   1
loop_
 _symmetry_equiv_pos_site_id
 _symmetry_equiv_pos_as_xyz
  1  'x, y, z'
loop_
 _atom_site_type_symbol
 _atom_site_label
 _atom_site_symmetry_multiplicity
 _atom_site_fract_x
 _atom_site_fract_y
 _atom_site_fract_z
 _atom_site_occupancy
  V  V0  1  0.85353054  0.42924056  0.51122949  1
  V  V1  1  0.90286017  0.84148769  0.01316100  1
  V  V2  1  0.23241463  0.32348047  0.62922419  1
  V  V3  1  0.94818726  0.52372139  0.32288096  1
  V  V4  1  -0.01018756  0.38004903  0.91989411  1
  V  V5  1  -0.01219358  -0.00536486  0.00956431  1
  V  V6  1  0.00826472  0.86072143  0.34773439  1
  V  V7  1  0.75687404  0.74167286  -0.00169100  1
  V  V8  1  0.40437664  0.77016958  0.13146249  1
  V  V9  1  0.24717854  0.48297118  0.80356736  1
  V  V10  1  0.07651670  0.24407055  0.33668468  1
  V  V11  1  0.26952865  0.76732660  -0.02218658  1
  V  V12  1  0.57479680  0.11092249  0.45913022  1
  V  V13  1  0.33966787  0.00132026  0.94770777  1
  V  V14  1  0.39936237  0.72036698  0.62161481  1
  V  V15  1  0.82208933  0.40114977  0.02911853  1
  V  V16  1  0.27181068  0.34241770  0.15139918  1
  V  V17  1  0.87199229  0.52909634  0.88483943  1
  V  V18  1  0.65859531  -0.07148259  0.65946651  1
  V  V19  1  0.34938675  0.34118695  0.49263360  1
  V  V20  1  0.28695068  -0.02593847  0.69962475  1
  V  V21  1  0.50041421  0.17919192  0.73750623  1
  V  V22  1  0.59190275  0.04013372  -0.02039615  1
  V  V23  1  0.73651625  0.85702610  0.13786503  1
  V  V24  1  0.15457087  0.48956812  0.60379316  1
  V  V25  1  0.64841637  0.53857560  0.15177593  1
  V  V26  1  0.01624148  0.10642958  0.69344250  1
  V  V27  1  0.17363503  0.23176243  0.90490105  1
  V  V28  1  0.23371200  0.12943733  0.36072083  1
  V  V29  1  0.87810233  0.73790332  0.15762551  1
  V  V30  1  0.48344588  0.60962865  0.07725200  1
  V  V31  1  -0.00627563  -0.02901439  0.50548927  1
  V  V32  1  0.35120914  0.20499710  0.65043257  1
  V  V33  1  0.46721138  0.86345234  0.88717981  1
  V  V34  1  0.87324327  -0.01378188  0.36568902  1
  V  V35  1  0.08439533  0.00942579  0.15252059  1
  V  V36  1  0.12336242  0.83669330  0.75403451  1
  V  V37  1  0.60962358  0.42451700  0.26612422  1
  V  V38  1  0.12120056  0.39365944  0.23566016  1
  V  V39  1  0.65458515  0.61592443  0.00191365  1
  V  V40  1  0.90900018  0.82110855  0.49198746  1
  V  V41  1  0.10809514  0.34678155  0.77605090  1
  V  V42  1  0.07355573  0.14730031  0.50950516  1
  V  V43  1  0.49483592  0.44665676  0.54025869  1
  V  V44  1  -0.05132838  0.61771633  0.65048217  1
  V  V45  1  0.13334547  -0.06457875  0.59869704  1
  V  V46  1  0.86390975  -0.10325137  0.83363029  1
  V  V47  1  0.73979931  0.74508851  0.50462649  1
  V  V48  1  0.71170174  0.66237079  0.35810022  1
  V  V49  1  0.25239829  0.68085088  0.39794238  1
  V  V50  1  0.54264165  0.40784164  0.83930338  1
  Zn  Zn51  1  0.66395479  0.71683553  0.17731829  1
  Zn  Zn52  1  0.79682586  0.39814186  0.33609738  1
  Zn  Zn53  1  0.76176352  -0.04852123  -0.01558726  1
  Zn  Zn54  1  0.56612696  0.60991941  0.31681617  1
  Zn  Zn55  1  0.48262741  0.12526910  0.91243397  1
  Zn  Zn56  1  0.20496970  0.11302564  0.61060730  1
  Zn  Zn57  1  0.37393485  0.14401322  0.49413356  1
  Zn  Zn58  1  0.91901186  0.70633199  0.33520021  1
  Zn  Zn59  1  0.16227358  0.95441760  0.40701858  1
  Zn  Zn60  1  0.62472395  0.41839776  0.01005445  1
  Zn  Zn61  1  0.41378435  0.71382077  0.31819605  1
  Zn  Zn62  1  0.87441058  0.71901754  0.86407545  1
  Zn  Zn63  1  0.42565797  0.60674434  0.45003604  1
  Zn  Zn64  1  0.64505015  0.49995789  0.44678061  1
  Zn  Zn65  1  0.96314443  0.87745613  0.67542891  1
  Zn  Zn66  1  -0.01628172  0.45137471  0.72822220  1
  Zn  Zn67  1  0.77872658  0.94015038  0.50064106  1
  Zn  Zn68  1  0.24752295  0.39907027  0.96817882  1
  Zn  Zn69  1  0.27961471  0.78673642  0.77762088  1
  Zn  Zn70  1  0.01673478  0.02096265  0.83693890  1
  Zn  Zn71  1  0.82713935  0.78046480  0.66965561  1
  Zn  Zn72  1  0.54723078  0.55061415  0.89296666  1
  Zn  Zn73  1  0.72675394  0.39004781  0.86355844  1
  Zn  Zn74  1  0.17339008  0.64334745  0.70658626  1
  Zn  Zn75  1  0.46588606  0.93295413  0.05818404  1
  Zn  Zn76  1  0.90999649  0.93243128  0.18585810  1
  Zn  Zn77  1  0.31348200  0.12829292  0.82287928  1
  Zn  Zn78  1  0.05207107  0.06216200  0.34465248  1
  Zn  Zn79  1  0.17114711  0.07701854  0.01834969  1
  Zn  Zn80  1  0.58817961  0.78629655  0.60150378  1
  Zn  Zn81  1  0.39208784  0.40734379  0.69911505  1
  Zn  Zn82  1  0.60725116  0.10048279  0.65746328  1
  Zn  Zn83  1  0.57001389  0.78976675  0.04578770  1
  Zn  Zn84  1  0.93769455  0.44544134  0.18711795  1
  Zn  Zn85  1  0.28934751  0.64330351  0.07940836  1
  Zn  Zn86  1  0.23939750  0.74939499  0.23170246  1
  Zn  Zn87  1  0.05453121  0.83089303  0.17808832  1
  Zn  Zn88  1  0.49637508  0.26927385  0.55576323  1
  Zn  Zn89  1  0.46050632  0.90393071  0.66333601  1
  Zn  Zn90  1  0.82935713  0.56522247  0.08312090  1
  Zn  Zn91  1  0.10203030  0.33932088  0.05566616  1
  Zn  Zn92  1  0.78996357  0.84343971  0.33507671  1
  Zn  Zn93  1  0.45349281  0.42680344  0.16408881  1
  Zn  Zn94  1  0.14549594  0.92741270  0.93605789  1
  Zn  Zn95  1  0.03094980  0.27311725  0.64481810  1
  Zn  Zn96  1  0.08390506  0.42187994  0.42732271  1
  Zn  Zn97  1  0.19602497  0.16875795  0.19091098  1
  Zn  Zn98  1  0.70140215  0.34154550  0.14006293  1
  Zn  Zn99  1  0.54733066  0.00995363  0.78818385  1
  Zn  Zn100  1  0.23880469  0.31418639  0.34508218  1
  Zn  Zn101  1  0.87055276  0.61922122  0.47928870  1
  O  O102  1  0.02906126  0.25074215  0.05747494  1
  O  O103  1  0.08969701  0.10796733  0.61892949  1
  O  O104  1  0.13581358  0.75405828  0.19259109  1
  O  O105  1  0.18975911  0.57997072  0.61720225  1
  O  O106  1  0.54751501  0.30908717  0.09346657  1
  O  O107  1  0.61875817  0.12243488  0.55499311  1
  O  O108  1  0.60869139  0.63072946  0.12153803  1
  O  O109  1  0.73755883  0.48116665  0.67995832  1
  O  O110  1  0.33045765  0.33040644  0.39872069  1
  O  O111  1  0.44619982  0.35942549  0.85326528  1
  O  O112  1  0.48494521  0.80341003  0.36164366  1
  O  O113  1  0.37873206  0.92237278  0.90174273  1
  O  O114  1  0.88171723  0.44868479  0.29872273  1
  O  O115  1  0.88792087  0.36742468  0.96713502  1
  O  O116  1  0.89620066  0.86539081  0.37874787  1
  O  O117  1  0.90048416  0.82495476  0.89752822  1
  O  O118  1  0.16776542  0.05164003  0.36189515  1
  O  O119  1  0.23822034  0.00648889  0.95331210  1
  O  O120  1  0.19316613  0.60647114  0.37694678  1
  O  O121  1  0.25494922  0.47704618  0.90133595  1
  O  O122  1  0.77787801  -0.05168422  0.39171772  1
  O  O123  1  0.77960979  -0.07811541  0.87293190  1
  O  O124  1  0.64178693  0.59620322  0.40034885  1
  O  O125  1  0.76917046  0.50013900  0.85605483  1
  O  O126  1  0.25986309  0.54674593  0.14930267  1
  O  O127  1  0.22625945  0.42369109  0.63149663  1
  O  O128  1  0.15982554  1.08351028  0.12969865  1
  O  O129  1  0.22066524  1.00007024  0.62095656  1
  O  O130  1  0.73953472  0.55737891  0.16550018  1
  O  O131  1  0.68593972  0.43770112  0.66515832  1
  O  O132  1  0.74258496  0.94519430  0.10203904  1
  O  O133  1  0.71686143  0.95747916  0.58781840  1
  O  O134  1  0.02573248  0.38411728  0.20620483  1
  O  O135  1  0.01558608  0.34954270  0.72752314  1
  O  O136  1  -0.01338185  0.88344830  0.25251921  1
  O  O137  1  0.02930145  0.81708695  0.74145647  1
  O  O138  1  0.51951828  0.39599874  0.24898924  1
  O  O139  1  0.46804701  0.35295835  0.77678807  1
  O  O140  1  0.62759922  1.05157681  0.21970624  1
  O  O141  1  0.48052789  0.91132256  0.77965191  1
  O  O142  1  0.44939230  0.12009214  0.15112452  1
  O  O143  1  0.49735838  0.08104350  0.72034895  1
  O  O144  1  0.57232490  0.89282833  0.26656694  1
  O  O145  1  0.54784367  0.67449958  0.81653702  1
  O  O146  1  1.01815640  0.21088977  0.12243083  1
  O  O147  1  1.06130308  0.09560804  0.78149945  1
  O  O148  1  1.09614869  0.67806872  0.19890783  1
  O  O149  1  0.93766987  0.68937567  0.72715056  1
  O  O150  1  0.41453147  0.25122609  0.05014639  1
  O  O151  1  0.37950422  0.24660890  0.53902155  1
  O  O152  1  0.35555625  0.77736023  0.02291365  1
  O  O153  1  0.42609124  0.68442239  0.53166820  1
  O  O154  1  0.79312396  0.32702873  0.08589394  1
  O  O155  1  0.92770788  0.36363431  0.46137103  1
  O  O156  1  0.86530528  0.74524774  0.01814039  1
  O  O157  1  0.90946274  0.73090321  0.45852948  1
  O  O158  1  0.04938596  0.23433358  0.54145298  1
  O  O159  1  0.17540853  0.31133385  0.96590684  1
  O  O160  1  0.06732444  0.65878270  0.57522614  1
  O  O161  1  0.18158597  0.80049011  1.03430274  1
  O  O162  1  0.53778174  0.20653683  0.47262033  1
  O  O163  1  0.62111078  0.30997632  1.05886787  1
  O  O164  1  0.64275591  0.76083748  0.51390653  1
  O  O165  1  0.64621652  0.72106690  1.00137628  1
  O  O166  1  0.50825141  0.36860835  0.07297612  1
  O  O167  1  0.46242541  0.23076161  0.65506429  1
  O  O168  1  0.48592800  0.71808939  0.09034543  1
  O  O169  1  0.50130470  0.73214975  0.64331041  1
  O  O170  1  0.96176167  0.22745119  0.16357021  1
  O  O171  1  0.97264556  0.19292770  0.68807546  1
  O  O172  1  0.97439783  0.75891197  0.15052943  1
  O  O173  1  1.05381362  0.67110411  0.65317202  1
  O  O174  1  -0.01243364  0.26554239  0.32598366  1
  O  O175  1  -0.00235035  0.29007984  0.90901368  1
  O  O176  1  0.01224355  0.76511991  0.34076416  1
  O  O177  1  0.07756611  0.71643069  0.93063563  1
  O  O178  1  0.50277627  0.23620168  0.28268508  1
  O  O179  1  0.49291759  0.19625647  0.83366211  1
  O  O180  1  0.52781239  0.79605094  0.41650243  1
  O  O181  1  0.43451719  0.78138913  0.86726338  1
  O  O182  1  0.16958057  0.13555660  0.50422041  1
  O  O183  1  0.36817757  0.20361001  1.02988205  1
  O  O184  1  0.30931052  0.61447354  0.44527197  1
  O  O185  1  0.23966741  0.67472486  0.99187834  1
  O  O186  1  0.64628244  0.15081916  0.40791533  1
  O  O187  1  0.77391113  0.17370738  0.92556957  1
  O  O188  1  0.76101405  0.65255525  0.46810830  1
  O  O189  1  0.75232012  0.63208612  1.02369336  1
  O  O190  1  0.28841776  0.38002641  0.06074039  1
  O  O191  1  0.24396324  0.30894244  0.53431712  1
  O  O192  1  0.21393704  0.86499586  0.00299755  1
  O  O193  1  0.27522886  0.92499490  0.42827781  1
  O  O194  1  0.73370259  0.40450412  -0.02640552  1
  O  O195  1  0.75389574  0.45664844  0.47418112  1
  O  O196  1  0.74867495  0.83882674  0.00864784  1
  O  O197  1  0.80021477  0.83097080  0.49585490  1
  O  O198  1  0.13509642  0.48164930  0.25256744  1
  O  O199  1  0.07964892  0.47930096  0.66503547  1
  O  O200  1  0.05427383  1.04837130  0.23674444  1
  O  O201  1  0.12592113  0.92340981  0.70413828  1
  O  O202  1  0.60480633  0.52952968  0.24834631  1
  O  O203  1  0.59533020  0.58030804  0.66542309  1
  O  O204  1  0.68769442  1.04465444  0.25349567  1
  O  O205  1  0.63316505  1.01133769  0.71202887  1
  O  O206  1  0.45440823  -0.00946494  0.25513224  1
  O  O207  1  0.37881580  -0.02854454  0.66453511  1
  O  O208  1  0.30280795  0.52904226  0.20158008  1
  O  O209  1  0.33548543  0.47388453  0.76368099  1
  O  O210  1  0.87024846  -0.00850976  0.26898292  1
  O  O211  1  0.86416967  -0.13565085  0.73588280  1
  O  O212  1  0.97802258  0.54373076  0.23385394  1
  O  O213  1  0.80985994  0.53299230  0.79681506  1
  O  O214  1  0.11632991  0.34622840  0.34661966  1
  O  O215  1  0.07148004  0.40359525  0.84923911  1
  O  O216  1  0.10509084  0.88398901  0.35113863  1
  O  O217  1  0.14025959  0.86122345  0.84555745  1
  O  O218  1  0.62183003  0.43129334  0.36079515  1
  O  O219  1  0.62854030  0.36429561  0.82388805  1
  O  O220  1  0.43828884  0.93376283  0.40397786  1
  O  O221  1  0.54363649  0.86915982  0.81208697  1
  O  O222  1  0.49545555  0.16989747  0.13609341  1
  O  O223  1  0.34535930  0.12000272  0.60110561  1
  O  O224  1  0.38993208  0.60494530  0.05784027  1
  O  O225  1  0.39496131  0.63139131  0.65667437  1
  O  O226  1  0.82632644  0.14485078  0.16224686  1
  O  O227  1  0.95181981  0.03811965  0.68395901  1
  O  O228  1  0.87889420  0.64452888  0.13688484  1
  O  O229  1  0.87587764  0.64095395  0.59658976  1
  O  O230  1  0.25979859  0.24683647  0.14248404  1
  O  O231  1  0.24629124  0.21076743  0.65060808  1
  O  O232  1  0.30643959  0.72818376  0.14985747  1
  O  O233  1  0.30916990  0.73306924  0.58877940  1
  O  O234  1  0.84211146  0.13980579  0.09489001  1
  O  O235  1  0.65586767  0.30998879  0.55219085  1
  O  O236  1  0.76392715  0.74892535  0.12610564  1
  O  O237  1  0.76226286  0.73248327  0.59750472  1
  O  O238  1  0.19347327  0.21897511  0.37727344  1
  O  O239  1  0.26295963  0.21246623  0.87384953  1
  O  O240  1  0.33887128  0.74183517  0.40607592  1
  O  O241  1  0.27900616  0.77671496  0.88239560  1
  O  O242  1  0.77622420  0.38267376  0.44266250  1
  O  O243  1  0.80202748  0.34271264  0.79345744  1
  O  O244  1  0.73634432  0.75989263  0.38387175  1
  O  O245  1  0.76846069  0.72890196  0.90435826  1
  O  O246  1  -0.03530396  0.07965908  -0.00841085  1
  O  O247  1  -0.00118322  0.06899199  0.51209995  1
  O  O248  1  0.09671191  0.57577529  0.00475938  1
  O  O249  1  0.01491768  0.60552749  0.55472703  1
  O  O250  1  0.56088095  0.13237016  -0.01074764  1
  O  O251  1  0.47716525  0.10404355  0.50572198  1
  O  O252  1  0.53002891  0.60251566  -0.01077224  1
  O  O253  1  0.45678207  0.52212170  0.49755393  1
  O  O254  1  0.46212721  0.35834334  0.49620245  1
  O  O255  1  0.54810089  0.43910142  0.93549713  1
  O  O256  1  0.45649784  0.92254318  0.46989580  1
  O  O257  1  0.51169009  0.85647276  0.97757533  1
  O  O258  1  0.99437823  0.37392857  0.49455536  1
  O  O259  1  1.03599780  0.40590521  1.00098447  1
  O  O260  1  1.00200979  0.86014827  0.46909052  1
  O  O261  1  0.99461938  0.84037891  1.02566377  1
  O  O262  1  0.46625911  0.63026068  0.35422825  1
  O  O263  1  0.54061005  0.49501672  0.79846654  1
  O  O264  1  0.40183679  1.03083193  0.27570856  1
  O  O265  1  0.53991411  1.01397936  0.89489411  1
  O  O266  1  1.02055615  0.48725320  0.37193844  1
  O  O267  1  0.93828623  0.45985529  0.85398757  1
  O  O268  1  0.98793064  0.97921034  0.39043208  1
  O  O269  1  1.03975148  0.96158886  0.92211918  1
  O  O270  1  -0.01857771  -0.01077014  0.11787787  1
  O  O271  1  0.02301201  -0.06602962  0.60033181  1
  O  O272  1  0.13734792  0.62466851  0.17993616  1
  O  O273  1  -0.06960261  0.53447395  0.69316003  1
  O  O274  1  0.55758454  -0.00861871  0.05662356  1
  O  O275  1  0.56737874  -0.10721751  0.62775598  1
  O  O276  1  0.49035367  0.52836170  0.13121197  1
  O  O277  1  0.47152581  0.44223360  0.63478627  1
  O  O278  1  0.22705498  0.35793522  0.24963438  1
  O  O279  1  0.19700229  0.39682768  0.77574955  1
  O  O280  1  0.33864160  0.87607774  0.28868962  1
  O  O281  1  0.27285010  0.88619552  0.73494186  1
  O  O282  1  0.72697223  0.39105694  0.25418980  1
  O  O283  1  0.72006987  0.29136627  0.57734463  1
  O  O284  1  0.74949896  0.86552085  0.23314954  1
  O  O285  1  0.69345504  0.88106176  0.74333894  1
  O  O286  1  0.26476503  0.13294563  0.26918095  1
  O  O287  1  0.27725628  0.03946470  0.77081336  1
  O  O288  1  0.20152613  0.74683759  0.34316084  1
  O  O289  1  0.20635006  0.56568103  0.77793015  1
  O  O290  1  0.78864762  0.18338187  0.30975936  1
  O  O291  1  0.76261520  0.29199460  0.74466593  1
  O  O292  1  0.77928216  0.61834105  0.31371938  1
  O  O293  1  0.64380625  0.62901475  0.67789970  1
  O  O294  1  0.31350925  0.11288076  0.41358455  1
  O  O295  1  0.37713590  0.08468593  0.90535056  1
  O  O296  1  0.29946174  0.66691323  0.30125908  1
  O  O297  1  0.36759196  0.63370970  0.85717256  1
  O  O298  1  0.86631511  0.07176940  0.39953944  1
  O  O299  1  0.91775684  -0.02466249  0.83201682  1
  O  O300  1  0.91774077  0.60615505  0.37242482  1
  O  O301  1  0.90805348  0.61827941  0.88303944  1
  O  O302  1  0.16168756  0.37574600  0.13682254  1
  O  O303  1  0.13894726  0.30728551  0.67189472  1
  O  O304  1  0.11921858  0.92252867  0.16838083  1
  O  O305  1  0.16517996  0.85315986  0.57875582  1
  O  O306  1  0.63929160  0.43537714  0.15258647  1
  O  O307  1  0.59570712  0.30911209  0.60141026  1
  O  O308  1  0.63740911  0.82028056  0.13168908  1
  O  O309  1  0.69714945  0.82890056  0.68166943  1
  O  O310  1  0.10807122  0.21732599  0.24840173  1
  O  O311  1  0.12154442  0.26015085  0.82036671  1
  O  O312  1  0.27555094  0.86288764  0.25856344  1
  O  O313  1  0.17983669  0.75056916  0.73386243  1
  O  O314  1  0.66745049  0.32967576  0.25004686  1
  O  O315  1  0.59586249  0.19226564  0.71592031  1
  O  O316  1  0.60650364  0.91089341  0.32366424  1
  O  O317  1  0.60498611  0.71438689  0.80934075  1
  O  O318  1  0.43923544  0.20798936  0.29386613  1
  O  O319  1  0.36997289  0.17738234  0.74230485  1
  O  O320  1  0.42863705  0.75498867  0.22387762  1
  O  O321  1  0.36936526  0.74803174  0.71426513  1
  O  O322  1  0.77039972  0.24122585  0.34349389  1
  O  O323  1  0.80449745  0.24781585  0.70897897  1
  O  O324  1  0.86023075  0.74822615  0.25475314  1
  O  O325  1  0.86107486  0.70435858  0.74943400  1
  O  O326  1  0.33391393  0.42766371  0.52029325  1
  O  O327  1  0.41862398  0.59078270  0.83798544  1
  O  O328  1  0.29725128  0.92755009  0.49524940  1
  O  O329  1  0.37811392  0.99938944  1.03416907  1
  O  O330  1  0.89471989  0.51568444  0.50526555  1
  O  O331  1  0.84892482  0.51251956  0.98000533  1
  O  O332  1  0.89570727  0.95226462  0.51383296  1
  O  O333  1  0.88911189  0.94337204  0.99890176  1
  O  O334  1  0.09228288  -0.00051587  0.03973041  1
  O  O335  1  0.11115258  -0.02884095  0.50284233  1
  O  O336  1  0.13539929  0.54231725  0.04983034  1
  O  O337  1  0.13412811  0.46757643  0.51092197  1
  O  O338  1  0.68896010  0.03119344  -0.02915520  1
  O  O339  1  0.60875284  0.02278479  0.47983581  1
  O  O340  1  0.64973141  0.52173520  0.04457061  1
  O  O341  1  0.59241920  0.45811901  0.53085657  1
  O  O342  1  0.36234563  0.36885276  0.18395007  1
  O  O343  1  0.32830801  0.32021652  0.66670288  1
  O  O344  1  0.42225610  0.86437709  0.12882665  1
  O  O345  1  0.42045946  0.81930576  0.59960132  1
  O  O346  1  0.86292955  0.45766395  0.10737605  1
  O  O347  1  0.84619313  0.40000433  0.59814431  1
  O  O348  1  0.86339704  0.85162903  0.11856684  1
  O  O349  1  0.91448119  0.81304846  0.59145728  1
  O  O350  1  0.05536796  0.15962901  0.40392173  1
  O  O351  1  0.14053432  0.15552332  0.95169079  1
  O  O352  1  0.20779406  0.71776227  0.47437832  1
  O  O353  1  0.10263159  0.67407509  0.88200582  1
  O  O354  1  0.52982315  0.07594757  0.38136986  1
  O  O355  1  0.77423188  0.18610434  0.85769129  1
  O  O356  1  0.64456269  0.68700369  0.28147844  1
  O  O357  1  0.65387400  0.59193106  0.90946920  1
