# generated using pymatgen
data_V51Zn51O256
_symmetry_space_group_name_H-M   'P 1'
_cell_length_a   17.52700109
_cell_length_b   17.59623745
_cell_length_c   18.09249039
_cell_angle_alpha   91.38573438
_cell_angle_beta   89.72969222
_cell_angle_gamma   90.51367987
_symmetry_Int_Tables_number   1
_chemical_formula_structural   V51Zn51O256
_chemical_formula_sum   'V51 Zn51 O256'
_cell_volume   5577.97920108
_cell_formula_units_Z   1
loop_
 _symmetry_equiv_pos_site_id
 _symmetry_equiv_pos_as_xyz
  1  'x, y, z'
loop_
 _atom_site_type_symbol
 _atom_site_label
 _atom_site_symmetry_multiplicity
 _atom_site_fract_x
 _atom_site_fract_y
 _atom_site_fract_z
 _atom_site_occupancy
  V  V0  1  0.61183676  0.51968386  0.59788421  1
  V  V1  1  0.10617381  0.24638247  0.41971729  1
  V  V2  1  0.27453411  0.39615029  0.13008698  1
  V  V3  1  0.38610995  0.27986471  0.54104091  1
  V  V4  1  0.57033195  0.31347679  0.74167763  1
  V  V5  1  -0.02375080  0.26882262  0.19424086  1
  V  V6  1  0.00703052  0.87130444  0.90528828  1
  V  V7  1  0.50056518  0.66189216  0.19710777  1
  V  V8  1  0.36323276  0.57211612  0.72736467  1
  V  V9  1  0.42127755  0.04421066  0.39161341  1
  V  V10  1  0.59627328  0.84378165  0.66928586  1
  V  V11  1  0.51049972  0.51027451  0.44853150  1
  V  V12  1  0.18271969  0.11801068  0.30585385  1
  V  V13  1  0.86927723  0.13932142  0.20541380  1
  V  V14  1  0.64994189  0.35511449  0.20127670  1
  V  V15  1  0.00211658  0.54258100  0.02145390  1
  V  V16  1  0.46469874  0.73497829  0.75893768  1
  V  V17  1  0.23043124  0.37003663  0.62153994  1
  V  V18  1  0.61685829  -0.00277956  0.09814409  1
  V  V19  1  0.48954101  0.50876772  0.01359450  1
  V  V20  1  0.72901801  0.36908267  0.62058067  1
  V  V21  1  -0.05182509  0.31034251  0.73167166  1
  V  V22  1  0.87412038  0.75865424  0.14196834  1
  V  V23  1  0.12146260  0.73790532  0.91629251  1
  V  V24  1  0.30079306  0.22786008  0.04306213  1
  V  V25  1  0.51610160  0.24596604  0.21565127  1
  V  V26  1  0.23925586  0.90507779  0.14266087  1
  V  V27  1  0.60008790  0.66652038  -0.01519219  1
  V  V28  1  0.66975496  0.81021010  0.37699633  1
  V  V29  1  0.65331885  0.45838147  0.81980603  1
  V  V30  1  0.64901588  0.25826992  0.38835195  1
  V  V31  1  0.01676664  0.64625774  0.18130061  1
  V  V32  1  0.35765656  0.76620405  0.11511022  1
  V  V33  1  0.52111030  0.36502985  0.36659622  1
  V  V34  1  0.88508314  0.02267940  0.42152036  1
  V  V35  1  0.27873769  0.46924169  0.28286266  1
  V  V36  1  0.73899716  0.52225098  0.17644758  1
  V  V37  1  0.40811622  0.06505751  0.73856834  1
  V  V38  1  0.85516554  0.23304877  0.61997267  1
  V  V39  1  0.76605929  0.02622440  0.28292990  1
  V  V40  1  0.83853721  0.66557564  0.76980308  1
  V  V41  1  0.77008865  0.02316316  0.77267245  1
  V  V42  1  0.10091132  0.84880512  0.73893925  1
  V  V43  1  0.01862255  0.81569700  0.25030033  1
  V  V44  1  0.86515500  0.46331147  0.40223243  1
  V  V45  1  0.73777784  0.60173878  0.39290088  1
  V  V46  1  0.11486756  0.37893972  0.22007122  1
  V  V47  1  0.29065804  0.64981891  0.96572053  1
  V  V48  1  0.03745547  0.92595335  0.41411838  1
  V  V49  1  0.74088214  0.87789744  0.09578996  1
  V  V50  1  0.16060761  0.13127430  -0.02004660  1
  Zn  Zn51  1  0.89971844  0.93089330  0.20264828  1
  Zn  Zn52  1  0.65390189  0.14279120  0.21483827  1
  Zn  Zn53  1  0.80562836  0.30961143  0.28958384  1
  Zn  Zn54  1  0.64839441  0.70282577  0.53264077  1
  Zn  Zn55  1  0.92507176  0.46372837  0.16339880  1
  Zn  Zn56  1  0.33988366  0.57469263  0.13026621  1
  Zn  Zn57  1  0.36732475  0.26921703  0.71166972  1
  Zn  Zn58  1  0.45181477  0.42000391  0.66962897  1
  Zn  Zn59  1  0.84012274  0.45540833  0.73955936  1
  Zn  Zn60  1  0.68395631  0.42791571  0.44891146  1
  Zn  Zn61  1  1.03428791  0.18810076  0.84405630  1
  Zn  Zn62  1  0.56117219  0.67767401  0.37167976  1
  Zn  Zn63  1  0.68813522  0.71949861  0.19786255  1
  Zn  Zn64  1  0.30019128  0.08515423  0.15985368  1
  Zn  Zn65  1  -0.00525736  0.13374855  0.33231783  1
  Zn  Zn66  1  0.16650041  0.21642441  0.15531764  1
  Zn  Zn67  1  0.00677285  0.91140759  0.60151521  1
  Zn  Zn68  1  0.83282602  0.20453980  0.42615177  1
  Zn  Zn69  1  0.55368465  0.80642877  0.10359941  1
  Zn  Zn70  1  0.82010652  0.02490500  0.09105828  1
  Zn  Zn71  1  0.90486677  0.75013549  0.94439113  1
  Zn  Zn72  1  0.51476696  0.57369399  0.83770035  1
  Zn  Zn73  1  0.01153717  0.49727909  0.30089948  1
  Zn  Zn74  1  0.69465820  0.18622153  0.70533882  1
  Zn  Zn75  1  0.83161281  0.84960786  0.32520190  1
  Zn  Zn76  1  0.42351215  0.92823570  0.14069538  1
  Zn  Zn77  1  0.48244746  0.05519473  0.22357637  1
  Zn  Zn78  1  0.86109969  0.02281505  0.62499375  1
  Zn  Zn79  1  0.31558800  0.97164471  0.28327898  1
  Zn  Zn80  1  0.25939773  0.34188509  0.43524512  1
  Zn  Zn81  1  0.94985419  0.95666949  0.77289059  1
  Zn  Zn82  1  0.39151083  0.86226424  0.69270936  1
  Zn  Zn83  1  0.20293807  0.51700845  1.01613921  1
  Zn  Zn84  1  0.23611094  0.97857728  0.42347362  1
  Zn  Zn85  1  0.27540908  0.13830181  0.63419403  1
  Zn  Zn86  1  0.69411786  0.95137621  0.93423031  1
  Zn  Zn87  1  0.49365299  0.12602369  0.55736503  1
  Zn  Zn88  1  0.11375664  0.00884030  0.82987180  1
  Zn  Zn89  1  0.35176657  0.49017542  0.56345129  1
  Zn  Zn90  1  0.40792140  0.23948501  0.35586942  1
  Zn  Zn91  1  0.59323132  0.52878594  0.27684792  1
  Zn  Zn92  1  0.92025614  0.64606912  0.33519565  1
  Zn  Zn93  1  0.14597786  0.90817293  0.99141824  1
  Zn  Zn94  1  0.00329282  0.61026316  0.85512327  1
  Zn  Zn95  1  0.43153733  0.40097951  0.23177344  1
  Zn  Zn96  1  0.06010333  0.29015837  0.59045088  1
  Zn  Zn97  1  0.27910134  0.72624648  0.80048553  1
  Zn  Zn98  1  0.06504826  0.80201892  0.07933650  1
  Zn  Zn99  1  0.60047419  0.98990764  0.34665385  1
  Zn  Zn100  1  0.56396199  0.40918737  0.92919549  1
  Zn  Zn101  1  0.19268840  0.58449839  0.83147698  1
  O  O102  1  0.14448971  0.14677654  0.07216253  1
  O  O103  1  0.16785042  0.15771395  0.67798439  1
  O  O104  1  0.10853681  0.65038034  0.18271935  1
  O  O105  1  0.11585552  0.52629741  0.75273150  1
  O  O106  1  0.63243903  0.09126636  0.11666970  1
  O  O107  1  0.62526890  0.14993692  0.62016345  1
  O  O108  1  0.57943141  0.71162281  0.15868041  1
  O  O109  1  0.63157893  0.61385198  0.59649608  1
  O  O110  1  0.42675761  0.35910322  0.34133102  1
  O  O111  1  0.35229959  0.30395864  0.83801172  1
  O  O112  1  0.34527114  0.97179270  0.39034485  1
  O  O113  1  0.34220407  0.89028804  0.87873824  1
  O  O114  1  0.86321985  0.37877349  0.35375412  1
  O  O115  1  0.80278877  0.40840533  0.96595227  1
  O  O116  1  0.87885458  0.93040526  0.38985263  1
  O  O117  1  0.91105104  0.85877147  0.90824463  1
  O  O118  1  0.23260755  0.03860048  0.33038054  1
  O  O119  1  0.28015253  -0.08466706  0.85897139  1
  O  O120  1  0.27850295  0.41000763  0.35960834  1
  O  O121  1  0.23997615  0.56550192  0.92323954  1
  O  O122  1  0.78282728  0.04190558  0.37610798  1
  O  O123  1  0.71297591  -0.02725980  0.83610012  1
  O  O124  1  0.76311224  0.50107147  0.41033924  1
  O  O125  1  0.65707884  0.47709417  0.91234590  1
  O  O126  1  0.27194465  0.49249531  0.17003578  1
  O  O127  1  0.25565263  0.46482147  0.60502409  1
  O  O128  1  0.23328056  0.99977225  0.12741771  1
  O  O129  1  0.25928624  0.86866587  0.60889693  1
  O  O130  1  0.73175351  0.50960852  0.08674009  1
  O  O131  1  0.68908644  0.47043980  0.63209186  1
  O  O132  1  0.72166485  0.98311398  0.12088549  1
  O  O133  1  0.77208719  0.98841239  0.68185727  1
  O  O134  1  -0.02982972  0.36809786  0.21109707  1
  O  O135  1  -0.06500675  0.40501168  0.75534362  1
  O  O136  1  0.00650504  0.90326400  0.20690248  1
  O  O137  1  0.01199570  0.85417589  0.78768062  1
  O  O138  1  0.53773448  0.36003689  0.24402060  1
  O  O139  1  0.47208448  0.31938899  0.71632389  1
  O  O140  1  0.38558419  0.80926877  0.31806691  1
  O  O141  1  0.49504394  0.81672885  0.69520757  1
  O  O142  1  0.53880518  0.14513989  0.23285176  1
  O  O143  1  0.50543588  0.07663436  0.74521500  1
  O  O144  1  0.49646642  0.69126639  0.28813666  1
  O  O145  1  0.43781846  0.62760002  0.77664701  1
  O  O146  1  0.97172430  0.15669932  0.22476894  1
  O  O147  1  1.09176615  0.10878834  0.77397203  1
  O  O148  1  0.98924911  0.69994233  0.27243221  1
  O  O149  1  0.94388364  0.66615356  0.78365860  1
  O  O150  1  0.36931154  0.27777794  0.00785749  1
  O  O151  1  0.35421590  0.27274142  0.44684830  1
  O  O152  1  0.33142626  0.73902390  0.02713997  1
  O  O153  1  0.32313880  0.74265619  0.48247012  1
  O  O154  1  0.91916900  0.18090941  -0.13789668  1
  O  O155  1  0.85115992  0.23959913  0.52566608  1
  O  O156  1  0.88339464  0.76057888  0.04612854  1
  O  O157  1  0.98771717  0.65857611  0.58993120  1
  O  O158  1  0.07591176  0.22460906  0.50860966  1
  O  O159  1  0.24117372  0.19023456  0.96383111  1
  O  O160  1  0.18640211  0.71372989  0.58859067  1
  O  O161  1  0.12201575  0.72866253  1.00839345  1
  O  O162  1  0.64447514  0.24465801  0.47596528  1
  O  O163  1  0.68855785  0.24927894  0.91751809  1
  O  O164  1  0.61429336  0.74959005  0.43719595  1
  O  O165  1  0.56631677  0.75496545  1.00581070  1
  O  O166  1  0.50848346  0.25333361  0.12681566  1
  O  O167  1  0.47071589  0.23108379  0.53726025  1
  O  O168  1  0.45004699  0.81888931  0.14103007  1
  O  O169  1  0.51416973  0.67026396  0.66280198  1
  O  O170  1  0.97289736  0.25405399  0.10587409  1
  O  O171  1  0.95692225  0.28504751  0.63119055  1
  O  O172  1  0.99237250  0.75942455  0.14893341  1
  O  O173  1  1.04268967  0.66984052  0.63058486  1
  O  O174  1  0.03019370  0.23969118  0.36068656  1
  O  O175  1  0.02173775  0.27266559  0.78214058  1
  O  O176  1  0.01261862  0.85284406  0.34908936  1
  O  O177  1  0.01606484  0.75651492  0.90708412  1
  O  O178  1  0.53818383  0.26178723  0.36596713  1
  O  O179  1  0.41434670  0.31112782  0.87000233  1
  O  O180  1  0.44268001  0.82401832  0.36127845  1
  O  O181  1  0.49614403  0.76273740  0.83854673  1
  O  O182  1  0.25359023  0.09676877  0.53191653  1
  O  O183  1  0.33906715  0.15061907  1.08640206  1
  O  O184  1  0.26379929  0.65364713  0.42788221  1
  O  O185  1  0.26872820  0.60704814  1.05371220  1
  O  O186  1  0.64438116  0.08280186  0.58655291  1
  O  O187  1  0.89791898  0.15490654  0.92982854  1
  O  O188  1  0.72857675  0.64678724  0.47549444  1
  O  O189  1  0.70639833  0.64813350  1.01531139  1
  O  O190  1  0.25322754  0.42289826  0.04187875  1
  O  O191  1  0.25881314  0.31996922  0.54162610  1
  O  O192  1  0.38415487  1.02248583  -0.06166011  1
  O  O193  1  0.21787273  0.87858822  0.55284192  1
  O  O194  1  0.76192092  0.37655033  0.01034153  1
  O  O195  1  0.72690659  0.36727162  0.52750007  1
  O  O196  1  0.73742680  0.87393211  0.00171099  1
  O  O197  1  0.87343316  0.79770069  0.57287822  1
  O  O198  1  0.09164244  0.43119773  0.29967288  1
  O  O199  1  0.04514940  0.52653379  0.76887435  1
  O  O200  1  0.01724074  1.04100441  0.09237348  1
  O  O201  1  0.14550918  0.93592157  0.75529004  1
  O  O202  1  0.66124179  0.46373395  0.22212883  1
  O  O203  1  0.59905519  0.52562043  0.77869319  1
  O  O204  1  0.66568263  1.03407030  0.27055964  1
  O  O205  1  0.58937973  0.93099224  0.64337677  1
  O  O206  1  0.37853896  0.01596368  0.20494102  1
  O  O207  1  0.40326032  -0.03443817  0.72787128  1
  O  O208  1  0.37666180  0.49084210  0.26934603  1
  O  O209  1  0.38254412  0.47862881  0.74098547  1
  O  O210  1  0.87300546  0.03874820  0.23962727  1
  O  O211  1  0.86493780  0.01928286  0.80332401  1
  O  O212  1  0.82937995  0.49348532  0.20591989  1
  O  O213  1  0.85384633  0.56178491  0.76579254  1
  O  O214  1  0.14552181  0.33443457  0.42044821  1
  O  O215  1  0.18707195  0.30999542  0.83125327  1
  O  O216  1  0.13456885  0.93888009  0.41776113  1
  O  O217  1  0.13273655  0.84205992  0.89982979  1
  O  O218  1  0.64255256  0.36216029  0.37107726  1
  O  O219  1  0.58717672  0.37097926  0.82673108  1
  O  O220  1  0.63711209  0.90200982  0.38855868  1
  O  O221  1  0.63122008  0.82765510  0.77254725  1
  O  O222  1  0.45951738  0.14590115  -0.06744884  1
  O  O223  1  0.43884189  0.09029821  0.64046787  1
  O  O224  1  0.40671334  0.67018045  0.15080934  1
  O  O225  1  0.36957398  0.58277683  0.63489731  1
  O  O226  1  0.86246699  0.12284938  0.11204067  1
  O  O227  1  0.86152381  0.14011950  0.63439605  1
  O  O228  1  0.86550189  0.67079642  0.16623108  1
  O  O229  1  0.84573078  0.66685055  0.67496386  1
  O  O230  1  0.24288064  0.28550518  0.10679986  1
  O  O231  1  0.34178445  0.22090195  0.61123398  1
  O  O232  1  0.28315646  0.76087826  0.16919022  1
  O  O233  1  0.20614506  0.64718797  0.58484253  1
  O  O234  1  0.82819804  0.16406703  -0.05318003  1
  O  O235  1  0.75281177  0.26138492  0.64066834  1
  O  O236  1  0.76176037  0.78721316  0.13995412  1
  O  O237  1  0.86293354  0.74726562  0.52567971  1
  O  O238  1  0.18285062  0.18350734  0.38270530  1
  O  O239  1  0.20843482  0.35389545  0.88078098  1
  O  O240  1  0.27982725  0.78883806  0.45586095  1
  O  O241  1  0.23587875  0.71877403  0.90009927  1
  O  O242  1  0.75347282  0.24851782  0.36823150  1
  O  O243  1  0.74413572  0.26363865  0.87241941  1
  O  O244  1  0.76552635  0.80693887  0.39833569  1
  O  O245  1  0.70819537  0.70776660  0.97161692  1
  O  O246  1  0.08423904  0.16752733  -0.06516036  1
  O  O247  1  0.08616815  0.07587196  0.56097158  1
  O  O248  1  -0.00401910  0.62424269  0.08178883  1
  O  O249  1  -0.01956183  0.68013239  0.43572153  1
  O  O250  1  0.49151580  0.08492640  -0.06006676  1
  O  O251  1  0.62832796  0.09566395  0.41245448  1
  O  O252  1  0.51923224  0.61700270  0.04318472  1
  O  O253  1  0.51994650  0.60599931  0.44428877  1
  O  O254  1  0.51373185  0.38726203  0.45810881  1
  O  O255  1  0.52620436  0.41811683  1.02614933  1
  O  O256  1  0.46041834  0.87912289  0.50026400  1
  O  O257  1  0.46101907  0.89454165  0.97266524  1
  O  O258  1  1.02824650  0.50828403  0.57385833  1
  O  O259  1  0.89379677  0.31752703  0.98143955  1
  O  O260  1  1.01001974  0.89507713  0.49881687  1
  O  O261  1  1.03171268  0.88242071  1.00138343  1
  O  O262  1  0.53027614  0.47970822  0.35393234  1
  O  O263  1  0.48103976  0.50517841  0.91634960  1
  O  O264  1  0.49522324  1.01279892  0.32920404  1
  O  O265  1  0.49423408  0.91490070  0.91692206  1
  O  O266  1  0.93143178  0.53258990  0.36308414  1
  O  O267  1  0.95927402  0.56411324  0.93720399  1
  O  O268  1  0.99438879  1.01862331  0.40469830  1
  O  O269  1  1.01820301  0.96908874  0.87229938  1
  O  O270  1  -0.01549885  0.05727396  0.03504051  1
  O  O271  1  0.10328474  0.02344914  0.60164375  1
  O  O272  1  -0.01096384  0.55294387  0.21346218  1
  O  O273  1  0.09169367  0.52784325  0.59578060  1
  O  O274  1  0.52259224  -0.01613502  0.14048774  1
  O  O275  1  0.46112868  -0.18669287  0.52045642  1
  O  O276  1  0.52552614  0.56932160  0.20149171  1
  O  O277  1  0.52558117  0.49404280  0.63591613  1
  O  O278  1  0.21906860  0.37698556  0.22520655  1
  O  O279  1  0.27943870  0.33583509  0.69690645  1
  O  O280  1  0.24811013  0.89727297  0.23683262  1
  O  O281  1  0.19339231  0.78192022  0.74116506  1
  O  O282  1  0.74740738  0.34567268  0.21016180  1
  O  O283  1  0.74201920  0.44102799  0.78485313  1
  O  O284  1  0.77804892  0.93051136  0.26537040  1
  O  O285  1  0.68766382  0.85507099  0.73187301  1
  O  O286  1  0.22512066  0.15053262  0.22300387  1
  O  O287  1  0.30962147  0.05762256  0.69344373  1
  O  O288  1  0.23251563  0.54557548  0.30910425  1
  O  O289  1  0.27495574  0.61225937  0.76321378  1
  O  O290  1  0.76954985  0.12993411  0.23887489  1
  O  O291  1  0.74075493  0.11664234  0.76795028  1
  O  O292  1  0.71622219  0.61577742  0.19981039  1
  O  O293  1  0.74577653  0.63702490  0.78745811  1
  O  O294  1  0.38960388  0.12813375  0.35999938  1
  O  O295  1  0.39329569  0.06188416  0.82971161  1
  O  O296  1  0.22020437  0.69951735  0.40202957  1
  O  O297  1  0.37556087  0.63377038  0.93236500  1
  O  O298  1  0.90014172  0.12610461  0.39040924  1
  O  O299  1  0.87198458  0.00190879  0.94199905  1
  O  O300  1  0.81120037  0.64352282  0.34630073  1
  O  O301  1  0.85369630  0.68630443  0.87076044  1
  O  O302  1  0.10246890  0.42612508  0.14462147  1
  O  O303  1  0.13125153  0.35812780  0.63270118  1
  O  O304  1  0.16063191  0.86545399  0.09039250  1
  O  O305  1  0.07503414  0.84244014  0.64845980  1
  O  O306  1  0.63716984  0.34845752  0.11266535  1
  O  O307  1  0.63114261  0.34637783  0.67500251  1
  O  O308  1  0.63674692  0.88020800  0.11834390  1
  O  O309  1  0.63170830  0.78619481  0.60013663  1
  O  O310  1  0.08774649  0.27457185  0.20913263  1
  O  O311  1  0.16479817  0.14128118  0.74947043  1
  O  O312  1  0.10935811  0.80156987  0.23893068  1
  O  O313  1  0.12492742  0.74795417  0.76807237  1
  O  O314  1  0.63127569  0.25399026  0.23632388  1
  O  O315  1  0.59765689  0.22432767  0.75681390  1
  O  O316  1  0.65970032  0.77618566  0.28787604  1
  O  O317  1  0.56176201  0.68556671  0.71556896  1
  O  O318  1  0.42149022  0.24582177  0.24880294  1
  O  O319  1  0.37542396  0.16563088  0.75486968  1
  O  O320  1  0.34788947  0.74714041  0.32392750  1
  O  O321  1  0.36567994  0.76972678  0.74994094  1
  O  O322  1  0.87103778  0.24532452  0.22391441  1
  O  O323  1  0.86447582  0.26177669  0.73573474  1
  O  O324  1  0.88563537  0.81677053  0.23493724  1
  O  O325  1  0.81925560  0.76076997  0.76103798  1
  O  O326  1  0.41960343  0.50251981  0.48361369  1
  O  O327  1  0.40914324  0.51469062  1.06455174  1
  O  O328  1  0.45361055  1.05826331  0.47843443  1
  O  O329  1  0.34677862  1.07904003  0.93125256  1
  O  O330  1  0.89350955  0.44678904  0.48558939  1
  O  O331  1  0.95173504  0.46847424  1.06051987  1
  O  O332  1  0.86986162  1.02415755  0.51392095  1
  O  O333  1  0.81106191  1.02359157  0.97217760  1
  O  O334  1  0.16806508  0.02029672  -0.01842756  1
  O  O335  1  0.25296479  0.02219923  0.52951958  1
  O  O336  1  0.09562288  0.51926469  0.00491508  1
  O  O337  1  0.09706878  0.65100534  0.47560783  1
  O  O338  1  0.61560737  -0.01225320  0.00314509  1
  O  O339  1  0.58908249  0.05674864  0.54476132  1
  O  O340  1  0.58517493  0.56531017  0.03812913  1
  O  O341  1  0.60496922  0.49385032  0.49895437  1
  O  O342  1  0.36743785  0.37542453  0.14425049  1
  O  O343  1  0.40304993  0.37166887  0.57970651  1
  O  O344  1  0.32870457  0.88061945  0.09808504  1
  O  O345  1  0.33937020  0.87168464  0.59701938  1
  O  O346  1  0.84957595  0.28466267  0.02255075  1
  O  O347  1  0.81742767  0.40037362  0.64428072  1
  O  O348  1  0.84272736  0.91665094  0.10841203  1
  O  O349  1  0.94775147  0.96969014  0.66655106  1
  O  O350  1  0.09164323  0.09120307  0.29351758  1
  O  O351  1  0.18786103  0.04698601  0.90704129  1
  O  O352  1  0.03855839  0.63016992  0.43892448  1
  O  O353  1  0.10623336  0.64472719  0.86789905  1
  O  O354  1  0.63022043  0.14699437  0.36285632  1
  O  O355  1  0.68205242  0.18270155  0.94388682  1
  O  O356  1  0.64945036  0.60217313  0.34601925  1
  O  O357  1  0.58083873  0.64457616  0.89641885  1
