# generated using pymatgen
data_V51Zn51O256
_symmetry_space_group_name_H-M   'P 1'
_cell_length_a   16.94602829
_cell_length_b   17.22241683
_cell_length_c   17.16208874
_cell_angle_alpha   90.35827627
_cell_angle_beta   90.75007394
_cell_angle_gamma   89.96453904
_symmetry_Int_Tables_number   1
_chemical_formula_structural   V51Zn51O256
_chemical_formula_sum   'V51 Zn51 O256'
_cell_volume   5008.25458114
_cell_formula_units_Z   1
loop_
 _symmetry_equiv_pos_site_id
 _symmetry_equiv_pos_as_xyz
  1  'x, y, z'
loop_
 _atom_site_type_symbol
 _atom_site_label
 _atom_site_symmetry_multiplicity
 _atom_site_fract_x
 _atom_site_fract_y
 _atom_site_fract_z
 _atom_site_occupancy
  V  V0  1  0.13693570  0.24743530  0.90580682  1
  V  V1  1  0.61899886  -0.01358610  0.11252424  1
  V  V2  1  0.71977688  0.15114707  0.32553141  1
  V  V3  1  0.32599315  0.52199727  0.33788653  1
  V  V4  1  0.15192199  -0.03693266  0.09249136  1
  V  V5  1  0.23456289  0.11026757  0.87810834  1
  V  V6  1  0.00287383  0.26452617  0.76749110  1
  V  V7  1  0.41586890  0.36155758  0.49433572  1
  V  V8  1  0.71962923  0.49014604  0.24976645  1
  V  V9  1  0.37075221  0.15097877  0.24388333  1
  V  V10  1  0.13205883  0.27593996  0.35820553  1
  V  V11  1  0.51107008  0.50971798  0.53759228  1
  V  V12  1  0.24032077  0.01393838  0.24339183  1
  V  V13  1  0.75449909  0.01166192  0.76554474  1
  V  V14  1  0.25208377  0.26044966  0.49408096  1
  V  V15  1  0.00240531  0.36793984  0.90736094  1
  V  V16  1  0.25804239  0.49142866  0.73952388  1
  V  V17  1  -0.00814015  0.25154207  0.23498589  1
  V  V18  1  0.84078460  0.38092806  0.51166794  1
  V  V19  1  0.64098500  0.00368297  0.62615905  1
  V  V20  1  0.31676106  0.11120103  0.70844003  1
  V  V21  1  0.75711906  0.35390026  0.06271294  1
  V  V22  1  0.75508700  0.86689840  0.62718395  1
  V  V23  1  0.62871052  0.38378757  0.76147971  1
  V  V24  1  0.00847075  0.84493187  0.87266058  1
  V  V25  1  0.88662625  0.88290365  0.50218314  1
  V  V26  1  0.49546418  0.35348504  0.88596303  1
  V  V27  1  0.64380521  0.13883174  0.49676488  1
  V  V28  1  0.90884887  0.10039786  0.78132442  1
  V  V29  1  -0.01148864  0.37316674  0.39147991  1
  V  V30  1  0.61206562  0.63342649  -0.00250621  1
  V  V31  1  0.48784597  0.77783429  0.22947547  1
  V  V32  1  0.38923928  0.62129055  0.72147921  1
  V  V33  1  0.38930110  0.00955416  0.37715345  1
  V  V34  1  0.09403522  0.50330461  0.62686696  1
  V  V35  1  0.50114549  0.75934358  0.73185798  1
  V  V36  1  0.24879159  0.36836003  0.62674372  1
  V  V37  1  0.38821177  0.24901820  0.62894301  1
  V  V38  1  0.72401825  0.82319716  0.43703468  1
  V  V39  1  0.42155623  0.88232167  0.84918657  1
  V  V40  1  0.09394081  0.52320668  0.14281151  1
  V  V41  1  0.50897176  0.00024113  0.49414102  1
  V  V42  1  0.87846260  0.23694252  0.62023956  1
  V  V43  1  0.24410290  0.13526803  0.37328088  1
  V  V44  1  0.51210578  0.12803867  0.63098316  1
  V  V45  1  0.38572704  0.49697358  0.86853924  1
  V  V46  1  0.15937394  0.84274281  0.24402274  1
  V  V47  1  0.70213071  0.63218543  0.37552369  1
  V  V48  1  0.95311444  0.00878873  0.40727352  1
  V  V49  1  0.90140780  0.10953068  0.25155834  1
  V  V50  1  0.87544262  0.50851381  0.36308506  1
  Zn  Zn51  1  0.32948748  0.33194775  0.31427576  1
  Zn  Zn52  1  0.53938652  0.52952518  0.33734893  1
  Zn  Zn53  1  0.92256730  0.41706785  0.70510807  1
  Zn  Zn54  1  0.93329514  0.92755197  0.69350285  1
  Zn  Zn55  1  0.44101590  0.17797005  0.44267031  1
  Zn  Zn56  1  0.04741556  0.31744989  0.58133247  1
  Zn  Zn57  1  0.43072664  0.97503369  0.18399469  1
  Zn  Zn58  1  0.80479023  0.38414872  0.85719188  1
  Zn  Zn59  1  0.79694260  0.83349206  0.81816352  1
  Zn  Zn60  1  0.28329478  0.52311530  0.04589084  1
  Zn  Zn61  1  0.15604911  0.95394506  0.38728719  1
  Zn  Zn62  1  0.81312467  0.31106937  0.30750471  1
  Zn  Zn63  1  0.10835599  0.15343863  0.64589210  1
  Zn  Zn64  1  0.78733805  0.61431674  0.09959108  1
  Zn  Zn65  1  1.03184276  0.97600675  0.22719798  1
  Zn  Zn66  1  0.01477147  0.56354125  0.94895056  1
  Zn  Zn67  1  0.31386537  0.06888475  0.54850736  1
  Zn  Zn68  1  0.74391864  0.22522794  0.75454065  1
  Zn  Zn69  1  0.52029849  0.18612395  0.97933194  1
  Zn  Zn70  1  0.18349590  0.64341572  0.66576980  1
  Zn  Zn71  1  0.19279011  0.44410613  0.45277293  1
  Zn  Zn72  1  0.52749867  0.82554740  0.00853266  1
  Zn  Zn73  1  0.56561146  0.81959751  0.56116755  1
  Zn  Zn74  1  0.62997713  0.34046851  0.55265627  1
  Zn  Zn75  1  0.55018698  0.04870763  0.80824670  1
  Zn  Zn76  1  0.56191824  0.56363293  0.80190867  1
  Zn  Zn77  1  0.31609632  0.29840290  0.81148161  1
  Zn  Zn78  1  0.32171620  0.54329290  0.54109751  1
  Zn  Zn79  1  0.30774566  0.83681384  0.32517633  1
  Zn  Zn80  1  0.07911921  0.04370038  0.83840931  1
  Zn  Zn81  1  0.90238943  0.71271127  0.41953640  1
  Zn  Zn82  1  0.65727204  0.20402633  0.12943036  1
  Zn  Zn83  1  0.54893952  0.34692891  0.08819557  1
  Zn  Zn84  1  0.45207975  0.42297300  0.69636029  1
  Zn  Zn85  1  0.91510304  0.41414844  0.18934163  1
  Zn  Zn86  1  0.82829258  0.06171476  0.55767003  1
  Zn  Zn87  1  0.82827283  -0.00796993  0.08948634  1
  Zn  Zn88  1  0.65835998  0.67405145  0.19291122  1
  Zn  Zn89  1  0.71898608  0.48866286  0.46238225  1
  Zn  Zn90  1  0.19841727  0.42406896  0.91593344  1
  Zn  Zn91  1  0.21716508  0.91767542  0.89547632  1
  Zn  Zn92  1  0.02529575  0.58085989  0.33378656  1
  Zn  Zn93  1  0.43942606  0.96206077  0.69658105  1
  Zn  Zn94  1  0.42581568  0.68627752  0.90721289  1
  Zn  Zn95  1  0.70499182  0.91081335  0.94959075  1
  Zn  Zn96  1  0.64105379  0.41986795  0.96919721  1
  Zn  Zn97  1  0.78979602  0.96678299  0.33743128  1
  Zn  Zn98  1  0.83959244  0.58911015  0.52690703  1
  Zn  Zn99  1  0.35893176  0.10046653  0.03936344  1
  Zn  Zn100  1  1.00693998  0.18167486  0.46661031  1
  Zn  Zn101  1  0.22555238  0.64807615  0.20552087  1
  O  O102  1  -0.01259815  0.14154895  0.03756410  1
  O  O103  1  0.06813616  0.05109597  0.60558042  1
  O  O104  1  0.08414813  0.63063230  0.14426939  1
  O  O105  1  0.08364880  0.60327005  0.64123947  1
  O  O106  1  0.62437673  0.08705854  0.10427753  1
  O  O107  1  0.61711748  0.12250509  0.62054005  1
  O  O108  1  0.59661221  0.62369688  0.10098843  1
  O  O109  1  0.72015565  0.60376069  0.68766341  1
  O  O110  1  0.41154946  0.35207710  0.39604236  1
  O  O111  1  0.38694269  0.37866812  0.86094201  1
  O  O112  1  0.36839908  0.91368512  0.38100259  1
  O  O113  1  0.32150616  0.89137850  0.85921014  1
  O  O114  1  0.87833438  0.37305864  0.39201687  1
  O  O115  1  0.90249628  0.34429681  0.89733078  1
  O  O116  1  0.88288519  0.92524710  0.39212151  1
  O  O117  1  0.90100970  0.85189048  0.86854065  1
  O  O118  1  0.25597192  0.02891806  0.37296149  1
  O  O119  1  0.19521308  0.01789004  0.84168219  1
  O  O120  1  0.27919065  0.51865801  0.43218933  1
  O  O121  1  0.26133389  0.48229900  0.84351247  1
  O  O122  1  0.79807262  0.07645044  0.31286717  1
  O  O123  1  0.74302267  -0.01611615  0.85843715  1
  O  O124  1  0.75846493  0.51737587  0.35663384  1
  O  O125  1  0.88302646  0.56473176  0.96855920  1
  O  O126  1  0.20231534  0.55344225  0.13411323  1
  O  O127  1  0.27179002  0.46997281  0.62141379  1
  O  O128  1  0.22410992  1.02858282  0.14256336  1
  O  O129  1  0.23315646  0.97957070  0.55300050  1
  O  O130  1  0.74537956  0.52484184  0.15815091  1
  O  O131  1  0.77196993  0.55535527  0.70004313  1
  O  O132  1  0.72038545  0.97447442  0.13840873  1
  O  O133  1  0.74401176  1.01209308  0.62903437  1
  O  O134  1  -0.03070760  0.35173592  0.27318875  1
  O  O135  1  0.00397251  0.36439959  0.77955716  1
  O  O136  1  0.06127607  0.86298404  0.25170993  1
  O  O137  1  -0.02068053  0.85400448  0.76595061  1
  O  O138  1  0.55064964  0.33688938  0.27419521  1
  O  O139  1  0.51935100  0.36177978  0.76783493  1
  O  O140  1  0.47721815  0.88466969  0.22993092  1
  O  O141  1  0.44588589  0.85685280  0.73446481  1
  O  O142  1  0.48760175  0.15296979  0.26788726  1
  O  O143  1  0.49512258  0.11398743  0.72691256  1
  O  O144  1  0.46159111  0.68192643  0.22635226  1
  O  O145  1  0.49828253  0.64242546  0.74717009  1
  O  O146  1  1.00023543  0.14127961  0.23290882  1
  O  O147  1  1.00750527  0.07657769  0.75850557  1
  O  O148  1  1.02757635  0.69815761  0.30776581  1
  O  O149  1  0.94534194  0.61964596  0.74672532  1
  O  O150  1  0.32350589  0.30543189  0.00467585  1
  O  O151  1  0.38077692  0.25365988  0.50850231  1
  O  O152  1  0.43719728  0.75454063  -0.00505928  1
  O  O153  1  0.26943975  0.71158077  0.56623421  1
  O  O154  1  0.76848221  0.11805754  -0.04155780  1
  O  O155  1  0.86933770  0.27771113  0.52289684  1
  O  O156  1  0.87848419  0.77808662  0.06265058  1
  O  O157  1  0.83575685  0.79202886  0.45774144  1
  O  O158  1  0.15385668  0.26855862  0.48359784  1
  O  O159  1  0.14545106  0.24721226  0.99962984  1
  O  O160  1  0.16282518  0.66126886  0.40130450  1
  O  O161  1  0.20987549  0.77221334  1.02833232  1
  O  O162  1  0.63529836  0.23596728  0.50651054  1
  O  O163  1  0.56817066  0.23653855  1.06626714  1
  O  O164  1  0.63768876  0.79931694  0.47969166  1
  O  O165  1  0.60480984  0.73514536  1.00882247  1
  O  O166  1  0.38872506  0.39047231  0.11604550  1
  O  O167  1  0.49138152  0.23440804  0.62984522  1
  O  O168  1  0.48168382  0.79080683  0.12558027  1
  O  O169  1  0.50699567  0.76147620  0.63010449  1
  O  O170  1  0.98809485  0.27228534  0.14364644  1
  O  O171  1  0.95662310  0.30163252  0.65777601  1
  O  O172  1  0.88665553  0.71816278  0.20573745  1
  O  O173  1  0.92811506  0.69078896  0.59241831  1
  O  O174  1  0.02349968  0.26422249  0.38476241  1
  O  O175  1  0.02556011  0.24833003  0.87162514  1
  O  O176  1  0.00153810  0.74686893  0.35890664  1
  O  O177  1  0.02773837  0.74892556  0.85459727  1
  O  O178  1  0.51066045  0.18855283  0.33018399  1
  O  O179  1  0.48371295  0.25650634  0.89535590  1
  O  O180  1  0.52336286  0.78704663  0.32455205  1
  O  O181  1  0.44870634  0.77514987  0.84220339  1
  O  O182  1  0.26308221  0.14997783  0.48083901  1
  O  O183  1  0.26971487  0.09832094  0.96951727  1
  O  O184  1  0.24046854  0.63719512  0.55154465  1
  O  O185  1  0.22349767  0.61506723  0.97859848  1
  O  O186  1  0.74109291  0.11939089  0.51137348  1
  O  O187  1  0.79480802  0.10774668  1.02507715  1
  O  O188  1  0.73760909  0.60378065  0.47624800  1
  O  O189  1  0.71790591  0.64104961  1.00086931  1
  O  O190  1  0.22762973  0.43413940  0.01961880  1
  O  O191  1  0.27711530  0.36631253  0.50238474  1
  O  O192  1  0.24367359  0.79001974  -0.03234104  1
  O  O193  1  0.15621944  0.80812876  0.49246363  1
  O  O194  1  0.75678122  0.38707721  -0.03704029  1
  O  O195  1  0.73807812  0.37870320  0.49729948  1
  O  O196  1  0.78374260  0.90620447  0.03001568  1
  O  O197  1  0.75876269  0.89129739  0.51798156  1
  O  O198  1  0.09103619  0.54117414  0.24820011  1
  O  O199  1  0.15508969  0.48831938  0.71831493  1
  O  O200  1  0.14294644  1.00252033  0.27415250  1
  O  O201  1  0.08962147  0.98842060  0.64673274  1
  O  O202  1  0.61862699  0.49190865  0.26405773  1
  O  O203  1  0.63731114  0.48309813  0.77235714  1
  O  O204  1  0.60912881  0.97968866  0.21423082  1
  O  O205  1  0.64191941  1.01599830  0.73603207  1
  O  O206  1  0.37318551  0.02494910  0.26417111  1
  O  O207  1  0.33807918  0.01629624  0.68097040  1
  O  O208  1  0.42765540  0.53279559  0.34040472  1
  O  O209  1  0.37378630  0.49335810  0.74650220  1
  O  O210  1  0.94623798  0.01611392  0.29305864  1
  O  O211  1  0.86735936  0.00508429  0.74243810  1
  O  O212  1  0.87240215  0.49138946  0.26499668  1
  O  O213  1  0.84980964  0.45217814  0.78091350  1
  O  O214  1  0.12215803  0.37779688  0.37816451  1
  O  O215  1  0.12626597  0.35057700  0.88027763  1
  O  O216  1  0.19342719  0.85285380  0.34789172  1
  O  O217  1  0.11466418  0.86047087  0.86129835  1
  O  O218  1  0.60319015  0.31896787  0.32437393  1
  O  O219  1  0.60523139  0.36733758  0.87608629  1
  O  O220  1  0.71226089  0.89263261  0.36666222  1
  O  O221  1  0.60445070  0.86349299  0.92849836  1
  O  O222  1  0.38043203  0.12286598  0.14812113  1
  O  O223  1  0.38106354  0.13769684  0.61401793  1
  O  O224  1  0.35009090  0.59840227  0.10960870  1
  O  O225  1  0.38854971  0.59470799  0.62483904  1
  O  O226  1  0.86704501  0.07398055  0.16570941  1
  O  O227  1  0.89295481  0.13867090  0.61155144  1
  O  O228  1  0.86396734  0.71981456  0.02306556  1
  O  O229  1  0.86217139  0.66341364  0.62085150  1
  O  O230  1  0.32630802  0.25687582  0.05663239  1
  O  O231  1  0.26550522  0.25922586  0.60197993  1
  O  O232  1  0.31339828  0.66362520  0.12055652  1
  O  O233  1  0.23498906  0.74277589  0.62845160  1
  O  O234  1  0.74649411  0.25598875  0.07942600  1
  O  O235  1  0.78721728  0.25359825  0.65525210  1
  O  O236  1  0.73648427  0.71014396  0.12608471  1
  O  O237  1  0.74299785  0.77397769  0.63070008  1
  O  O238  1  0.24903668  0.26098544  0.37227083  1
  O  O239  1  0.23935086  0.22915617  0.86538155  1
  O  O240  1  0.31169709  0.73825647  0.40518800  1
  O  O241  1  0.26850838  0.65085108  0.93428206  1
  O  O242  1  0.75809613  0.23243005  0.36578517  1
  O  O243  1  0.63465014  0.18368619  0.85992901  1
  O  O244  1  0.72723251  0.73056503  0.37460294  1
  O  O245  1  0.74653094  0.81533152  0.91163142  1
  O  O246  1  -0.05936155  0.18775988  0.01019284  1
  O  O247  1  0.04746011  0.20506294  0.56462766  1
  O  O248  1  0.02414052  0.66129702  -0.01556761  1
  O  O249  1  -0.05825850  0.65304394  0.51742894  1
  O  O250  1  0.45326931  0.10133739  -0.01480195  1
  O  O251  1  0.51714194  0.12386256  0.50751649  1
  O  O252  1  0.50634611  0.62380090  -0.02154398  1
  O  O253  1  0.51530694  0.60247646  0.52447480  1
  O  O254  1  0.51009273  0.34496451  0.52026632  1
  O  O255  1  0.50840638  0.38555849  0.98421185  1
  O  O256  1  0.50520045  0.90385778  0.50502163  1
  O  O257  1  0.45684474  0.89234465  0.94518133  1
  O  O258  1  0.99688779  0.37364072  0.49065078  1
  O  O259  1  1.01837302  0.35291335  1.00101982  1
  O  O260  1  0.97504586  0.84561695  0.50099513  1
  O  O261  1  0.99992783  0.83026816  0.96905212  1
  O  O262  1  0.55068684  0.46331510  0.43790817  1
  O  O263  1  0.48883294  0.49264184  0.86102622  1
  O  O264  1  0.49525687  1.01003458  0.38549619  1
  O  O265  1  0.46722199  0.97393250  0.81410281  1
  O  O266  1  0.98775578  0.47853076  0.37213104  1
  O  O267  1  1.01324161  0.47114010  0.89761991  1
  O  O268  1  1.04735097  0.97949449  0.41744032  1
  O  O269  1  1.02691612  0.95178568  0.87785015  1
  O  O270  1  0.05840526  -0.00787260  0.11729415  1
  O  O271  1  0.03877114  -0.07085939  0.63955782  1
  O  O272  1  -0.00484440  0.49543665  0.15067247  1
  O  O273  1  0.00319309  0.46421366  0.63926619  1
  O  O274  1  0.51213711  -0.00442380  0.10851909  1
  O  O275  1  0.50789311  0.01322437  0.61531968  1
  O  O276  1  0.50497570  0.44514773  0.14813263  1
  O  O277  1  0.52279344  0.48753221  0.63533147  1
  O  O278  1  0.30033162  0.43600507  0.29156053  1
  O  O279  1  0.26531370  0.37000104  0.72945294  1
  O  O280  1  0.26596830  0.91460881  0.24031448  1
  O  O281  1  0.33352206  0.86037903  0.60085592  1
  O  O282  1  0.74805776  0.39242355  0.25896611  1
  O  O283  1  0.72177374  0.33127780  0.79304957  1
  O  O284  1  0.82080967  0.87980328  0.23347369  1
  O  O285  1  0.76333269  0.89590108  0.73188260  1
  O  O286  1  0.26054121  0.12796271  0.26192412  1
  O  O287  1  0.22245509  0.12317840  0.67655557  1
  O  O288  1  0.28149377  0.59714950  0.28719895  1
  O  O289  1  0.26717740  0.59508645  0.72664513  1
  O  O290  1  0.68365023  0.17268464  0.23491577  1
  O  O291  1  0.77943019  0.11387546  0.77117893  1
  O  O292  1  0.71521452  0.61862753  0.26994881  1
  O  O293  1  0.80809625  0.66627339  0.83592807  1
  O  O294  1  0.36830918  0.13182431  0.36553447  1
  O  O295  1  0.31863645  0.10743101  0.81154051  1
  O  O296  1  0.36999941  0.70063750  0.42951817  1
  O  O297  1  0.38183414  0.60422506  0.84373367  1
  O  O298  1  0.94250930  0.10944717  0.41347195  1
  O  O299  1  0.90943307  0.09565311  0.87539595  1
  O  O300  1  0.90705147  0.60726916  0.36924600  1
  O  O301  1  0.93384988  0.58446389  0.80751304  1
  O  O302  1  0.13581299  0.43301946  0.15305272  1
  O  O303  1  0.14841535  0.36522214  0.61717101  1
  O  O304  1  0.16536135  0.87471127  0.13799765  1
  O  O305  1  0.13848964  0.82683728  0.55890132  1
  O  O306  1  0.66069488  0.39122054  0.08497272  1
  O  O307  1  0.63579665  0.36133233  0.66301944  1
  O  O308  1  0.60303701  0.88426419  0.08672535  1
  O  O309  1  0.63923008  0.90040501  0.62127672  1
  O  O310  1  0.10729666  0.26549955  0.26148080  1
  O  O311  1  0.08778237  0.22906011  0.72808635  1
  O  O312  1  0.18485226  0.74731197  0.23022808  1
  O  O313  1  0.14974330  0.65335689  0.82576049  1
  O  O314  1  0.55159612  0.29834635  0.20543836  1
  O  O315  1  0.63331138  0.18580735  0.78269355  1
  O  O316  1  0.59256855  0.76143972  0.21292145  1
  O  O317  1  0.59065432  0.77773016  0.76327232  1
  O  O318  1  0.36337772  0.24934556  0.24725766  1
  O  O319  1  0.35661347  0.22713024  0.72512918  1
  O  O320  1  0.38478267  0.78700985  0.25189469  1
  O  O321  1  0.36728098  0.71492516  0.72100897  1
  O  O322  1  0.88447735  0.21845777  0.26180993  1
  O  O323  1  0.91062765  0.20771672  0.75903580  1
  O  O324  1  0.88051242  0.64921134  0.18319647  1
  O  O325  1  0.80603406  0.71596611  0.78258155  1
  O  O326  1  0.41094084  0.46862530  0.51378656  1
  O  O327  1  0.36441979  0.50857231  0.96539444  1
  O  O328  1  0.39573443  1.02423798  0.48635937  1
  O  O329  1  0.34661339  0.96555943  1.03824573  1
  O  O330  1  0.85623092  0.48890332  0.47483123  1
  O  O331  1  0.85860897  0.54704335  1.03617244  1
  O  O332  1  0.90691217  0.99318575  0.51248500  1
  O  O333  1  0.90356711  0.97718276  1.01407855  1
  O  O334  1  0.17569955  -0.04836860  -0.00265117  1
  O  O335  1  0.17227230  -0.01729799  0.50805050  1
  O  O336  1  0.07873484  0.52476891  0.04183301  1
  O  O337  1  0.12771959  0.49292544  0.53245374  1
  O  O338  1  0.64084944  -0.00932895  0.00793735  1
  O  O339  1  0.61760248  0.01717383  0.51551512  1
  O  O340  1  0.62310903  0.52989701  -0.00480422  1
  O  O341  1  0.61093704  0.46462288  0.49939340  1
  O  O342  1  0.42603524  0.44668309  0.14985967  1
  O  O343  1  0.38374212  0.35377580  0.62298007  1
  O  O344  1  0.35660607  0.92818569  0.10125074  1
  O  O345  1  0.34481785  0.83799684  0.53416012  1
  O  O346  1  0.84025895  0.38679243  0.11223750  1
  O  O347  1  0.85091152  0.41179221  0.60316840  1
  O  O348  1  0.86857399  0.89805227  0.18163421  1
  O  O349  1  0.86734533  0.87725165  0.61332173  1
  O  O350  1  0.14482884  0.15546312  0.37305305  1
  O  O351  1  0.12826998  0.13736675  0.88622881  1
  O  O352  1  0.12036106  0.60260703  0.41133367  1
  O  O353  1  0.11004787  0.59728973  0.84746792  1
  O  O354  1  0.64384388  0.12065875  0.38965441  1
  O  O355  1  0.58687058  0.12486534  0.89097039  1
  O  O356  1  0.60367949  0.61886996  0.38014610  1
  O  O357  1  0.61550479  0.63316226  0.89249139  1
