# generated using pymatgen
data_V51Zn51O256
_symmetry_space_group_name_H-M   'P 1'
_cell_length_a   17.72374966
_cell_length_b   18.25979935
_cell_length_c   17.51561329
_cell_angle_alpha   90.67404322
_cell_angle_beta   90.04658090
_cell_angle_gamma   89.19489037
_symmetry_Int_Tables_number   1
_chemical_formula_structural   V51Zn51O256
_chemical_formula_sum   'V51 Zn51 O256'
_cell_volume   5667.66189141
_cell_formula_units_Z   1
loop_
 _symmetry_equiv_pos_site_id
 _symmetry_equiv_pos_as_xyz
  1  'x, y, z'
loop_
 _atom_site_type_symbol
 _atom_site_label
 _atom_site_symmetry_multiplicity
 _atom_site_fract_x
 _atom_site_fract_y
 _atom_site_fract_z
 _atom_site_occupancy
  V  V0  1  0.40699174  0.74374632  0.68645936  1
  V  V1  1  0.12328419  0.50550980  0.58563761  1
  V  V2  1  0.79932981  0.37775298  0.47557287  1
  V  V3  1  0.56453755  0.44052935  0.12930613  1
  V  V4  1  -0.00696012  0.82272072  0.36397311  1
  V  V5  1  0.22256948  0.11390968  0.43448070  1
  V  V6  1  0.53348803  0.74972851  0.79261848  1
  V  V7  1  0.90779556  0.53827328  0.89778342  1
  V  V8  1  0.00755863  0.50332546  0.06417896  1
  V  V9  1  0.47465164  0.89569961  0.87697601  1
  V  V10  1  0.61257703  0.17374700  0.55382830  1
  V  V11  1  0.25157361  0.54317808  0.22142037  1
  V  V12  1  0.12517980  0.30463449  0.23564439  1
  V  V13  1  0.58566376  0.52248777  0.62350033  1
  V  V14  1  0.72013642  0.04079221  0.23071790  1
  V  V15  1  0.24597639  0.11403140  0.89686774  1
  V  V16  1  0.67286668  0.29861195  0.87671190  1
  V  V17  1  0.61651555  0.39420996  0.74370643  1
  V  V18  1  0.40394857  0.54264386  0.91747343  1
  V  V19  1  0.00697719  0.32116855  0.43476809  1
  V  V20  1  0.86014376  0.00818601  0.43741591  1
  V  V21  1  0.45515955  0.36742665  0.39419469  1
  V  V22  1  0.34854260  0.83958184  0.08338896  1
  V  V23  1  -0.07052863  0.50061594  0.42427140  1
  V  V24  1  0.49663017  0.01952673  -0.01098894  1
  V  V25  1  0.33533204  0.35102984  0.70280633  1
  V  V26  1  0.24513579  -0.03692858  0.76925419  1
  V  V27  1  0.12830518  -0.01176041  0.60474689  1
  V  V28  1  0.01736799  0.23716813  0.76424400  1
  V  V29  1  0.21146733  0.01526624  0.26369368  1
  V  V30  1  0.16503658  0.69109233  0.87026606  1
  V  V31  1  0.53492055  0.13909251  0.12625759  1
  V  V32  1  0.64360141  0.89418652  0.75333043  1
  V  V33  1  0.08005415  0.13533321  0.54032907  1
  V  V34  1  0.75102088  0.49916200  0.70571115  1
  V  V35  1  0.64491457  0.89347973  0.24389343  1
  V  V36  1  0.40395374  0.09268252  0.26398149  1
  V  V37  1  0.18396197  0.55728776  0.41180680  1
  V  V38  1  0.68595821  0.09911796  0.39820302  1
  V  V39  1  0.61685059  0.13831438  -0.05585828  1
  V  V40  1  0.87951445  0.23360700  0.17292531  1
  V  V41  1  0.16756834  0.73262274  0.32911651  1
  V  V42  1  0.11396896  0.23361234  0.92067061  1
  V  V43  1  0.71432165  0.75161414  0.48706709  1
  V  V44  1  0.88850046  0.39374010  -0.00958015  1
  V  V45  1  0.49563866  -0.04908765  0.52529053  1
  V  V46  1  0.38081718  0.22205583  0.14455515  1
  V  V47  1  0.52905476  0.70415451  0.14467386  1
  V  V48  1  -0.02026033  0.40827789  0.80435244  1
  V  V49  1  0.75305505  0.03072923  0.77927889  1
  V  V50  1  0.88970355  0.11296283  0.28074363  1
  Zn  Zn51  1  0.40408999  0.91597614  0.69724239  1
  Zn  Zn52  1  0.07157518  0.48697090  0.27148272  1
  Zn  Zn53  1  0.12059693  0.09504398  0.74547862  1
  Zn  Zn54  1  0.24268911  0.95809923  0.96740649  1
  Zn  Zn55  1  0.27423403  0.45531563  0.53461678  1
  Zn  Zn56  1  0.05566723  0.16853914  0.34990841  1
  Zn  Zn57  1  0.87067931  0.67141859  0.37175498  1
  Zn  Zn58  1  0.54552724  0.27535547  0.02624169  1
  Zn  Zn59  1  0.32445556  0.80054746  0.83117350  1
  Zn  Zn60  1  0.24887603  0.10037749  0.09020278  1
  Zn  Zn61  1  0.39256360  0.13868097  0.98437310  1
  Zn  Zn62  1  0.38446544  0.56738859  0.13127185  1
  Zn  Zn63  1  0.91417152  0.44647168  0.61192735  1
  Zn  Zn64  1  0.48754281  -0.06184629  0.33506261  1
  Zn  Zn65  1  0.72468073  0.16242112  0.07953576  1
  Zn  Zn66  1  0.49314821  0.96178544  0.15979446  1
  Zn  Zn67  1  0.85089548  0.91835107  0.28076958  1
  Zn  Zn68  1  0.87059940  0.25263280  0.87220454  1
  Zn  Zn69  1  0.57906995  0.85289587  0.05655716  1
  Zn  Zn70  1  0.07894962  0.31578716  0.58902102  1
  Zn  Zn71  1  0.98986901  0.67484568  0.99041762  1
  Zn  Zn72  1  0.55087168  0.81432684  0.60736804  1
  Zn  Zn73  1  0.49421365  0.08985822  0.43110670  1
  Zn  Zn74  1  0.29648063  0.38557232  0.88702475  1
  Zn  Zn75  1  0.89283603  0.19129925  0.45603534  1
  Zn  Zn76  1  0.03549686  0.30515743  0.07141655  1
  Zn  Zn77  1  0.13139417  0.40346211  0.92728908  1
  Zn  Zn78  1  0.63623082  0.46694066  0.44035418  1
  Zn  Zn79  1  0.69955958  0.64956448  0.66191382  1
  Zn  Zn80  1  0.05012046  0.57116947  0.75987984  1
  Zn  Zn81  1  0.30461432  0.84053747  0.26674885  1
  Zn  Zn82  1  0.63261815  0.57726755  0.81972492  1
  Zn  Zn83  1  0.68025462  0.95297665  0.92884936  1
  Zn  Zn84  1  0.57585185  0.02977846  0.82825887  1
  Zn  Zn85  1  0.23925454  0.71378078  0.15300065  1
  Zn  Zn86  1  0.65925304  0.18226799  0.74962464  1
  Zn  Zn87  1  0.18713206  0.38015897  0.38369822  1
  Zn  Zn88  1  0.47051790  0.73528735  0.97420789  1
  Zn  Zn89  1  1.01026483  0.94220811  0.50952341  1
  Zn  Zn90  1  0.40048288  0.40194218  0.19416448  1
  Zn  Zn91  1  0.30066588  0.01752823  0.59225390  1
  Zn  Zn92  1  0.77981967  0.80706831  0.67178647  1
  Zn  Zn93  1  0.51596392  0.33412161  0.59236167  1
  Zn  Zn94  1  0.73113008  0.47533841  0.93055041  1
  Zn  Zn95  1  0.87872691  0.30683788  0.33516143  1
  Zn  Zn96  1  0.29264695  0.25350183  0.31847577  1
  Zn  Zn97  1  0.65428035  0.93591871  0.42868107  1
  Zn  Zn98  1  1.02097459  0.99228221  0.33375731  1
  Zn  Zn99  1  0.95841686  0.39497501  0.19159857  1
  Zn  Zn100  1  0.14393588  0.60669104  0.04026151  1
  Zn  Zn101  1  0.47973140  0.47707190  0.75154718  1
  O  O102  1  0.07808106  -0.02963316  -0.00891606  1
  O  O103  1  0.10926181  0.08792550  0.63280933  1
  O  O104  1  0.22077678  0.51852614  0.05870522  1
  O  O105  1  0.11933894  0.55091451  0.49246308  1
  O  O106  1  0.61003113  0.17676949  0.06234452  1
  O  O107  1  0.63975337  0.15439161  0.64604862  1
  O  O108  1  0.57528843  0.51682457  0.07408322  1
  O  O109  1  0.60386055  0.61577893  0.63537225  1
  O  O110  1  0.36995314  0.31722445  0.39242847  1
  O  O111  1  0.37293463  0.44923930  0.92556427  1
  O  O112  1  0.40676578  0.85967450  0.31893751  1
  O  O113  1  0.38314170  0.87593333  0.89407306  1
  O  O114  1  0.95257863  0.38367611  0.38394452  1
  O  O115  1  0.91714634  0.42347267  0.89420035  1
  O  O116  1  0.83908036  0.92553147  0.39027543  1
  O  O117  1  0.98897628  0.88156885  0.88192934  1
  O  O118  1  0.22875260  0.04200008  0.37101487  1
  O  O119  1  0.25475960  0.00065051  0.86224773  1
  O  O120  1  0.25800990  0.56759316  0.31457097  1
  O  O121  1  0.31482383  0.56550784  0.88590812  1
  O  O122  1  0.72692238  0.01543107  0.42393414  1
  O  O123  1  0.75942215  -0.00077196  0.87111769  1
  O  O124  1  0.77338367  0.48699871  0.22828277  1
  O  O125  1  0.81495286  0.53255473  0.87762940  1
  O  O126  1  0.32852407  0.48145619  0.19035900  1
  O  O127  1  0.21733257  0.51540448  0.60782628  1
  O  O128  1  0.20327307  1.06351775  0.17740594  1
  O  O129  1  0.21583020  0.94974406  0.58787069  1
  O  O130  1  0.65444047  0.40507897  0.11818538  1
  O  O131  1  0.69735096  0.49808746  0.62402246  1
  O  O132  1  0.73743467  1.07527390  0.14259552  1
  O  O133  1  0.81214059  0.99888200  0.68837067  1
  O  O134  1  0.05657186  0.37401160  0.25420386  1
  O  O135  1  -0.03240557  0.41256909  0.70793175  1
  O  O136  1  -0.02814948  0.89805991  0.30398237  1
  O  O137  1  -0.10284223  0.83369414  0.67504749  1
  O  O138  1  0.42780063  0.40556602  0.30598887  1
  O  O139  1  0.53222300  0.38412944  0.79230982  1
  O  O140  1  0.58500025  0.89618246  0.16072113  1
  O  O141  1  0.47709007  0.89009519  0.77719006  1
  O  O142  1  0.57501741  0.15645008  0.20702468  1
  O  O143  1  0.46405154  0.15956256  0.71456222  1
  O  O144  1  0.60508971  0.65196855  0.16765635  1
  O  O145  1  0.56092305  0.66355610  0.81320854  1
  O  O146  1  0.98348005  0.09511146  0.30851837  1
  O  O147  1  1.02537493  0.14305550  0.76186499  1
  O  O148  1  0.85919306  0.62071295  0.22184318  1
  O  O149  1  0.98114428  0.67454228  0.74332350  1
  O  O150  1  0.36543769  0.30749907  -0.03173072  1
  O  O151  1  0.30329515  0.37665587  0.61042159  1
  O  O152  1  0.37947192  0.77224808  0.02013688  1
  O  O153  1  0.36817612  0.67099673  0.64924995  1
  O  O154  1  0.88626296  0.30291655  -0.02708003  1
  O  O155  1  0.83151915  0.28813735  0.43668190  1
  O  O156  1  0.96105255  0.84908205  -0.17298922  1
  O  O157  1  0.79007735  0.72598035  0.42875578  1
  O  O158  1  0.11886003  0.21718378  0.56345607  1
  O  O159  1  0.08040967  0.31235230  0.97300810  1
  O  O160  1  0.07759680  0.76963257  0.56536817  1
  O  O161  1  0.17391942  0.60795763  0.93234207  1
  O  O162  1  0.58468216  0.26296773  0.55535540  1
  O  O163  1  0.60515605  0.25040050  0.93576088  1
  O  O164  1  0.63594638  0.77031639  0.55093531  1
  O  O165  1  0.73875579  0.82317220  0.99708552  1
  O  O166  1  0.47736713  0.22747038  0.09969364  1
  O  O167  1  0.42758977  0.33279404  0.65675288  1
  O  O168  1  0.51830609  0.76157615  0.21889811  1
  O  O169  1  0.51078708  0.74705911  0.68270644  1
  O  O170  1  0.95472943  0.24907046  0.11518091  1
  O  O171  1  1.04631162  0.27601798  0.68473860  1
  O  O172  1  0.92727102  0.76404735  -0.00934871  1
  O  O173  1  1.06375922  0.70662388  0.54572057  1
  O  O174  1  -0.02313548  0.23438903  0.39445071  1
  O  O175  1  -0.04406652  0.30587522  0.82182229  1
  O  O176  1  -0.06685081  0.75192070  0.34783801  1
  O  O177  1  0.07440255  0.69702387  0.91999679  1
  O  O178  1  0.50355997  0.29381324  0.35443226  1
  O  O179  1  0.43561816  0.14860018  0.65124358  1
  O  O180  1  0.43683869  0.79139916  0.35460594  1
  O  O181  1  0.51125469  0.79328390  0.88757978  1
  O  O182  1  0.26241777  0.09096491  0.52203760  1
  O  O183  1  0.23247187  0.06281424  0.98945461  1
  O  O184  1  0.26379811  0.53743407  0.45955363  1
  O  O185  1  0.22808081  0.45275959  1.03868027  1
  O  O186  1  0.68504421  0.16254342  0.47717139  1
  O  O187  1  0.70989494  0.14075155  0.96678229  1
  O  O188  1  0.72284633  0.66474632  0.53138724  1
  O  O189  1  0.77338751  0.67418926  1.00665169  1
  O  O190  1  0.21602583  0.33016358  -0.08355597  1
  O  O191  1  0.25949562  0.37804243  0.46339386  1
  O  O192  1  0.27971638  0.89038164  0.03686429  1
  O  O193  1  0.30505651  0.70892120  0.48963696  1
  O  O194  1  0.79810425  0.42495525  0.00413997  1
  O  O195  1  0.70262101  0.38895185  0.46975046  1
  O  O196  1  0.77367197  0.83383188  -0.06345525  1
  O  O197  1  0.70749642  0.84198340  0.44737435  1
  O  O198  1  0.16049953  0.51607318  0.20532240  1
  O  O199  1  0.07020125  0.54500177  0.65810677  1
  O  O200  1  0.11775989  1.00150678  0.28740565  1
  O  O201  1  0.15745215  0.98896293  0.72642333  1
  O  O202  1  0.59570511  0.47262433  0.21667969  1
  O  O203  1  0.59412200  0.49952304  0.74715731  1
  O  O204  1  0.62892382  1.01978849  0.23159221  1
  O  O205  1  0.65883624  1.00283529  0.74932731  1
  O  O206  1  0.45816481  0.00678752  0.25538605  1
  O  O207  1  0.31968120  -0.00995274  0.70676391  1
  O  O208  1  0.42213163  0.57783594  0.32526064  1
  O  O209  1  0.42688369  0.55206933  0.81629980  1
  O  O210  1  0.84101432  0.03098871  0.26584264  1
  O  O211  1  0.85780172  0.00729282  0.74853205  1
  O  O212  1  0.83054436  0.61027744  0.15732538  1
  O  O213  1  0.84368867  0.50182182  0.68086872  1
  O  O214  1  0.10153826  0.32775721  0.42171391  1
  O  O215  1  0.07129138  0.40958938  0.82791703  1
  O  O216  1  0.08817602  0.79258901  0.34535059  1
  O  O217  1  0.20595215  0.74387006  0.94519489  1
  O  O218  1  0.53899518  0.41775662  0.39538158  1
  O  O219  1  0.67098049  0.38683287  0.90449165  1
  O  O220  1  0.59567355  0.90869630  0.33530471  1
  O  O221  1  0.60719715  0.91636726  0.84974883  1
  O  O222  1  0.43474096  0.12266760  0.16675036  1
  O  O223  1  0.32716314  0.25767249  0.69994651  1
  O  O224  1  0.45016602  0.64683049  0.13672592  1
  O  O225  1  0.47424919  0.64776638  0.52174014  1
  O  O226  1  0.90447085  0.13339029  0.18251046  1
  O  O227  1  0.89074041  0.15902949  0.68697235  1
  O  O228  1  0.80999049  0.74685704  0.14442327  1
  O  O229  1  1.01013542  0.71698111  0.69628719  1
  O  O230  1  0.32553916  0.17730937  0.07263091  1
  O  O231  1  0.24205281  0.37352329  0.72726619  1
  O  O232  1  0.30703036  0.79409192  0.16532747  1
  O  O233  1  0.21693189  0.74700009  0.64625360  1
  O  O234  1  0.79698291  0.23057388  0.12241107  1
  O  O235  1  0.83302753  0.16453680  0.64624317  1
  O  O236  1  0.89041649  0.87347075  0.03681869  1
  O  O237  1  0.77452321  0.79811629  0.55957412  1
  O  O238  1  0.26578976  0.18757026  0.39672237  1
  O  O239  1  0.20634402  0.19518961  0.94397705  1
  O  O240  1  0.24821195  0.78217106  0.34068354  1
  O  O241  1  0.25562790  0.70646880  0.83070024  1
  O  O242  1  0.68950364  0.29963894  0.32103012  1
  O  O243  1  0.76170585  0.26341597  0.87887110  1
  O  O244  1  0.64643688  0.72311393  0.41997638  1
  O  O245  1  0.76522081  0.68133056  0.93796747  1
  O  O246  1  0.01633166  -0.05415386  0.01521544  1
  O  O247  1  -0.01381870  0.14914602  0.53093662  1
  O  O248  1  0.03358028  0.59993708  0.05753469  1
  O  O249  1  -0.10944481  0.58746197  0.43031584  1
  O  O250  1  0.50405390  0.12460037  -0.02915964  1
  O  O251  1  0.53358645  0.12462961  0.52720970  1
  O  O252  1  0.54549655  0.75167731  0.05450976  1
  O  O253  1  0.46819030  0.69489760  0.47258143  1
  O  O254  1  0.46956576  0.33934565  0.48923242  1
  O  O255  1  0.43111523  0.28614222  0.95067169  1
  O  O256  1  0.48400881  0.85801965  0.53121669  1
  O  O257  1  0.51794711  0.91865721  0.98533501  1
  O  O258  1  0.98433208  0.32206730  0.52961997  1
  O  O259  1  0.95676262  0.39394200  1.07141540  1
  O  O260  1  0.99032548  0.84799458  0.45809503  1
  O  O261  1  1.11232199  0.88943380  1.14708836  1
  O  O262  1  0.40434431  0.45224815  0.43940177  1
  O  O263  1  0.49566776  0.49795787  0.91464274  1
  O  O264  1  0.46281131  0.98239429  0.43435172  1
  O  O265  1  0.48054094  1.00007302  0.87876149  1
  O  O266  1  0.99292221  0.51355922  0.34892298  1
  O  O267  1  0.97305739  0.52057722  0.81732063  1
  O  O268  1  0.96446184  1.00208642  0.43254380  1
  O  O269  1  0.92668735  1.09859734  0.87003852  1
  O  O270  1  0.04929755  -0.13181675  0.12961501  1
  O  O271  1  0.05681564  -0.07500479  0.60928748  1
  O  O272  1  0.00370351  0.49053440  0.16591478  1
  O  O273  1  -0.03744939  0.48381624  0.51609603  1
  O  O274  1  0.53509802  0.03962594  0.09134630  1
  O  O275  1  0.46604425  -0.01626854  0.62815879  1
  O  O276  1  0.46655412  0.48214222  0.13801334  1
  O  O277  1  0.49040899  0.51411528  0.64819881  1
  O  O278  1  0.21409454  0.32389482  0.28623898  1
  O  O279  1  0.21566609  0.45372421  0.87378866  1
  O  O280  1  0.24986309  0.93103050  0.24819894  1
  O  O281  1  0.25554216  0.87133372  0.78310410  1
  O  O282  1  0.75557011  0.43953134  0.27383696  1
  O  O283  1  0.72016352  0.42127431  0.75773956  1
  O  O284  1  0.73995110  0.93823902  0.24252663  1
  O  O285  1  0.73907345  0.87543264  0.74185329  1
  O  O286  1  0.31566335  0.06199127  0.26805573  1
  O  O287  1  0.20235373  0.12446352  0.80940111  1
  O  O288  1  0.28489947  0.61532101  0.16081475  1
  O  O289  1  0.20387736  0.68171643  0.63579016  1
  O  O290  1  0.72111033  0.11630644  0.30278788  1
  O  O291  1  0.75076211  0.12300766  0.77876876  1
  O  O292  1  0.80639892  0.81098214  0.17128221  1
  O  O293  1  0.72268524  0.58421794  0.75075714  1
  O  O294  1  0.43306460  0.12680396  0.35071126  1
  O  O295  1  0.33768644  0.13934566  0.88894305  1
  O  O296  1  0.48154479  0.57820686  0.36213556  1
  O  O297  1  0.43783127  0.63234501  0.93666509  1
  O  O298  1  0.85277222  0.10648910  0.40238212  1
  O  O299  1  0.88109812  0.14511189  0.91101767  1
  O  O300  1  0.80946764  0.64412642  0.27854220  1
  O  O301  1  0.92639661  0.62858213  0.91406879  1
  O  O302  1  0.12781350  0.29848969  0.13789556  1
  O  O303  1  0.11613267  0.41164990  0.57797237  1
  O  O304  1  0.16753808  0.69966137  0.07487763  1
  O  O305  1  0.32224893  0.77257506  0.50211838  1
  O  O306  1  0.51506533  0.36626647  0.18034785  1
  O  O307  1  0.59137416  0.38989311  0.64800705  1
  O  O308  1  0.68282169  0.88519381  0.01648650  1
  O  O309  1  0.59751012  0.89088542  0.66804856  1
  O  O310  1  0.09631770  0.22091051  0.26663718  1
  O  O311  1  0.10169909  0.25485261  0.82283552  1
  O  O312  1  0.16373330  0.70410694  0.23792799  1
  O  O313  1  0.11969610  0.75930736  0.82048490  1
  O  O314  1  0.67444060  0.26889066  0.26010556  1
  O  O315  1  0.64691728  0.29179761  0.77603730  1
  O  O316  1  0.67767832  0.81008702  0.24727948  1
  O  O317  1  0.61814926  0.79302429  0.77558615  1
  O  O318  1  0.35315298  0.20338557  0.24079647  1
  O  O319  1  0.35855961  0.34354626  0.80529578  1
  O  O320  1  0.40328381  0.73473253  0.33541455  1
  O  O321  1  0.40909850  0.74213425  0.78939421  1
  O  O322  1  0.85652715  0.20730536  0.28500739  1
  O  O323  1  0.90208837  0.22085924  0.73894819  1
  O  O324  1  0.87078957  0.83511263  0.20748887  1
  O  O325  1  0.78303515  0.70644457  0.67376728  1
  O  O326  1  0.39632538  0.47226478  0.51050427  1
  O  O327  1  0.38661143  0.54975145  1.01709830  1
  O  O328  1  0.41378802  1.01433158  0.57152854  1
  O  O329  1  0.40397053  1.02748808  1.01051711  1
  O  O330  1  0.83413269  0.45164553  0.42110497  1
  O  O331  1  0.92488527  0.51264898  1.00286792  1
  O  O332  1  0.84660650  0.99836806  0.52880082  1
  O  O333  1  0.93965520  1.03611632  0.89776588  1
  O  O334  1  0.12830180  -0.08042068  -0.03805481  1
  O  O335  1  0.10227636  0.02326444  0.51313969  1
  O  O336  1  0.07862384  0.46496257  0.01119906  1
  O  O337  1  0.15139405  0.47981846  0.36113577  1
  O  O338  1  0.60992794  0.03735653  -0.04505997  1
  O  O339  1  0.59085897  -0.03872243  0.51714758  1
  O  O340  1  0.54102275  0.37952888  0.04874092  1
  O  O341  1  0.58150138  0.50341327  0.52665049  1
  O  O342  1  0.36238494  0.31447575  0.14631170  1
  O  O343  1  0.37829166  0.44079554  0.72129978  1
  O  O344  1  0.41880939  0.89399125  0.11828751  1
  O  O345  1  0.36701233  0.82516210  0.65423437  1
  O  O346  1  0.88559191  0.32677253  0.22556889  1
  O  O347  1  0.83060062  0.38711509  0.56630931  1
  O  O348  1  0.93008025  0.81715094  0.04868349  1
  O  O349  1  0.91241274  0.87934466  0.62474151  1
  O  O350  1  0.11975530  0.13877684  0.43651649  1
  O  O351  1  0.05691523  0.16667676  0.93944573  1
  O  O352  1  0.16422208  0.65509648  0.39051255  1
  O  O353  1  0.14081137  0.62453393  0.79967056  1
  O  O354  1  0.59552352  0.07953708  0.38298469  1
  O  O355  1  0.60566957  0.13489040  0.84099586  1
  O  O356  1  0.66307009  0.53923740  0.37491490  1
  O  O357  1  0.65688654  0.54929571  0.91947120  1
