# generated using pymatgen
data_V51Zn51O256
_symmetry_space_group_name_H-M   'P 1'
_cell_length_a   17.19829437
_cell_length_b   17.26790571
_cell_length_c   17.32925285
_cell_angle_alpha   90.49938230
_cell_angle_beta   90.22137187
_cell_angle_gamma   90.05993686
_symmetry_Int_Tables_number   1
_chemical_formula_structural   V51Zn51O256
_chemical_formula_sum   'V51 Zn51 O256'
_cell_volume   5146.17907287
_cell_formula_units_Z   1
loop_
 _symmetry_equiv_pos_site_id
 _symmetry_equiv_pos_as_xyz
  1  'x, y, z'
loop_
 _atom_site_type_symbol
 _atom_site_label
 _atom_site_symmetry_multiplicity
 _atom_site_fract_x
 _atom_site_fract_y
 _atom_site_fract_z
 _atom_site_occupancy
  V  V0  1  0.88138887  0.38339204  0.49940595  1
  V  V1  1  0.08438554  0.04524928  0.47211958  1
  V  V2  1  0.73740623  0.00632890  0.71218608  1
  V  V3  1  0.37411518  0.79919560  0.17618754  1
  V  V4  1  0.86101048  0.12216584  0.36315321  1
  V  V5  1  0.85508009  -0.00020929  0.86476709  1
  V  V6  1  0.39018520  0.12889844  0.22999950  1
  V  V7  1  0.39564063  0.36739299  -0.00262306  1
  V  V8  1  0.59754752  0.65042943  -0.01360603  1
  V  V9  1  0.09977038  0.63303226  0.46849896  1
  V  V10  1  0.73474964  0.22267109  -0.04948761  1
  V  V11  1  -0.01741247  0.90569634  0.37645934  1
  V  V12  1  0.35501398  0.48208213  0.37026905  1
  V  V13  1  0.25334774  -0.03962478  0.77866789  1
  V  V14  1  0.75663021  0.64982280  0.90343002  1
  V  V15  1  0.75268711  0.86901485  0.11729563  1
  V  V16  1  0.87074454  0.63539925  0.74265724  1
  V  V17  1  0.49774018  0.84233462  0.37559289  1
  V  V18  1  0.86051491  0.85954111  0.49896298  1
  V  V19  1  0.47390370  0.63869432  0.14763695  1
  V  V20  1  0.24476107  0.25426458  0.02233671  1
  V  V21  1  0.88958787  0.10969226  0.74465871  1
  V  V22  1  0.24363689  0.85861841  0.60545699  1
  V  V23  1  -0.00194232  0.71232649  0.19389412  1
  V  V24  1  0.40085446  0.76981363  0.61705231  1
  V  V25  1  0.15937551  0.29298812  0.28067818  1
  V  V26  1  0.45595475  0.26916537  0.14797598  1
  V  V27  1  0.12281510  -0.01618531  0.10701861  1
  V  V28  1  0.48862172  -0.01425036  0.00021963  1
  V  V29  1  0.01514847  0.48741088  0.52374775  1
  V  V30  1  0.86071243  0.87225788  -0.01225613  1
  V  V31  1  0.02080774  0.87725496  0.87482572  1
  V  V32  1  0.90819919  0.27394077  0.64981473  1
  V  V33  1  0.12795170  -0.03344131  0.64449476  1
  V  V34  1  0.58795857  0.27337922  0.44070119  1
  V  V35  1  0.91780805  0.75141520  0.60959047  1
  V  V36  1  0.75122162  0.39428710  0.65839465  1
  V  V37  1  0.60051251  0.11629885  -0.03736468  1
  V  V38  1  0.73243040  0.38087895  0.15455720  1
  V  V39  1  0.63037272  0.02221350  0.14039570  1
  V  V40  1  0.61607854  0.87096381  0.73504033  1
  V  V41  1  0.22777287  0.50022769  0.25054653  1
  V  V42  1  0.01189587  0.10530578  0.63189465  1
  V  V43  1  0.27416358  0.33528842  0.59847876  1
  V  V44  1  0.48598187  0.51314628  -0.00379831  1
  V  V45  1  -0.01033877  0.01854382  -0.00360661  1
  V  V46  1  0.65316880  0.84989534  0.26042087  1
  V  V47  1  0.24057264  0.16692810  0.85559384  1
  V  V48  1  0.73097639  0.51761985  0.77191441  1
  V  V49  1  0.63756495  0.61931636  0.52252288  1
  V  V50  1  0.62268051  0.53948615  0.14896972  1
  Zn  Zn51  1  0.28247569  0.75849062  0.74973492  1
  Zn  Zn52  1  0.78818721  0.94534179  0.37180809  1
  Zn  Zn53  1  0.83569373  0.05124532  0.54575701  1
  Zn  Zn54  1  0.67629999  0.69031849  0.71520058  1
  Zn  Zn55  1  0.35685586  0.52902804  0.74676915  1
  Zn  Zn56  1  0.93248114  0.71466195  0.90440821  1
  Zn  Zn57  1  0.30557213  0.54202487  0.08289558  1
  Zn  Zn58  1  0.41481499  0.92575157  0.70241239  1
  Zn  Zn59  1  0.93985486  0.92015037  0.69299365  1
  Zn  Zn60  1  0.48225321  0.94281359  0.21404340  1
  Zn  Zn61  1  0.78100259  0.04776044  0.03145003  1
  Zn  Zn62  1  0.77599101  0.30714856  0.33618795  1
  Zn  Zn63  1  0.32347237  -0.01430882  0.11378799  1
  Zn  Zn64  1  0.66352426  0.48444135  0.94340848  1
  Zn  Zn65  1  0.19516425  0.94316425  0.95802304  1
  Zn  Zn66  1  0.82609443  0.53887993  0.13725330  1
  Zn  Zn67  1  0.44987142  0.73604836  0.99446877  1
  Zn  Zn68  1  0.55739421  0.82449830  0.08658403  1
  Zn  Zn69  1  0.66594534  0.54428808  0.34068276  1
  Zn  Zn70  1  0.43089873  0.46419321  0.18787125  1
  Zn  Zn71  1  0.55452709  -0.00092442  0.81805190  1
  Zn  Zn72  1  0.39903252  0.50698663  0.58798966  1
  Zn  Zn73  1  0.07614958  0.05370115  0.82119604  1
  Zn  Zn74  1  0.27469700  0.65157743  0.59717906  1
  Zn  Zn75  1  0.39434867  0.14219410  1.01710671  1
  Zn  Zn76  1  0.64621060  0.22065267  0.16185628  1
  Zn  Zn77  1  0.17470716  0.41399114  0.42194641  1
  Zn  Zn78  1  0.78729816  0.34776590  0.85709862  1
  Zn  Zn79  1  0.58766515  0.83003003  0.54412375  1
  Zn  Zn80  1  0.84213013  0.79468187  0.28483790  1
  Zn  Zn81  1  0.67551195  0.93466389  0.93172133  1
  Zn  Zn82  1  0.07914645  0.37602360  0.66628309  1
  Zn  Zn83  1  0.44109962  0.67334026  0.46229625  1
  Zn  Zn84  1  0.57625843  0.31940132  0.01479997  1
  Zn  Zn85  1  0.28403632  0.35625649  1.15016511  1
  Zn  Zn86  1  0.02918870  0.03944264  0.27937411  1
  Zn  Zn87  1  0.21063536  0.13974826  0.17304969  1
  Zn  Zn88  1  0.16075216  0.20344199  0.69184187  1
  Zn  Zn89  1  0.74350118  0.21392791  0.74026544  1
  Zn  Zn90  1  0.31758776  0.34115029  0.81103329  1
  Zn  Zn91  1  0.04773206  0.55273535  0.29077150  1
  Zn  Zn92  1  0.78454000  0.83086744  0.80871146  1
  Zn  Zn93  1  0.54676417  0.37447900  0.61817704  1
  Zn  Zn94  1  0.11181988  0.13857151  -0.00505216  1
  Zn  Zn95  1  0.21299235  0.68460886  0.17589223  1
  Zn  Zn96  1  0.68770147  0.69302574  0.15893691  1
  Zn  Zn97  1  0.83376851  0.55684794  0.58489907  1
  Zn  Zn98  1  0.95015938  0.92312538  0.16777987  1
  Zn  Zn99  1  0.61446422  0.11032166  0.30476976  1
  Zn  Zn100  1  0.69117078  0.41965286  0.48188587  1
  Zn  Zn101  1  0.03941639  0.81168570  0.02842019  1
  O  O102  1  0.14320349  0.09632659  0.09451929  1
  O  O103  1  0.11154747  0.11544590  0.64283617  1
  O  O104  1  0.20945547  0.61542238  0.08086331  1
  O  O105  1  0.18478733  0.59861788  0.54260092  1
  O  O106  1  0.63521767  0.11716739  0.11368342  1
  O  O107  1  0.53346062  0.15241469  0.69073420  1
  O  O108  1  0.58809711  0.64692306  0.11926922  1
  O  O109  1  0.63140935  0.62581258  0.62648931  1
  O  O110  1  0.38704910  0.39755476  0.39363079  1
  O  O111  1  0.38760011  0.36351113  0.90170401  1
  O  O112  1  0.41607216  0.89134629  0.38141987  1
  O  O113  1  0.29302263  0.78697030  0.99166697  1
  O  O114  1  0.84453039  0.36848421  0.41100990  1
  O  O115  1  0.89587848  0.33823043  0.89299661  1
  O  O116  1  0.87431014  0.85777640  0.37202564  1
  O  O117  1  0.86087992  0.88634590  0.87790788  1
  O  O118  1  0.26604135  0.00140399  0.36968450  1
  O  O119  1  0.24815226  -0.00612134  0.87330401  1
  O  O120  1  0.24849393  0.47505140  0.35913869  1
  O  O121  1  0.24946050  0.56924656  0.90520358  1
  O  O122  1  0.79769067  0.04843656  0.33313030  1
  O  O123  1  0.75759868  0.00408661  0.86937438  1
  O  O124  1  0.72515098  0.47718655  0.39696600  1
  O  O125  1  0.73549645  0.53912823  0.88027566  1
  O  O126  1  0.25657297  0.47006421  0.15271636  1
  O  O127  1  0.34842316  0.40474069  0.59698642  1
  O  O128  1  0.22178027  0.96089649  0.07160987  1
  O  O129  1  0.24194862  0.95664173  0.65160149  1
  O  O130  1  0.71987797  0.58233484  0.14319090  1
  O  O131  1  0.77420214  0.50189811  0.66962881  1
  O  O132  1  0.72588591  0.98445618  0.10738974  1
  O  O133  1  0.75118674  1.00947598  0.61612835  1
  O  O134  1  -0.07543299  0.24757249  0.15710392  1
  O  O135  1  -0.05247661  0.37248534  0.84136616  1
  O  O136  1  -0.00593447  0.81790136  0.18912596  1
  O  O137  1  -0.00617413  0.86668491  0.78050846  1
  O  O138  1  0.49984597  0.49246952  0.33707108  1
  O  O139  1  0.47227367  0.42338726  0.77289182  1
  O  O140  1  0.54588526  0.87088485  0.27876521  1
  O  O141  1  0.51768202  0.91950840  0.73705612  1
  O  O142  1  0.49246546  0.10218179  0.27007899  1
  O  O143  1  0.57949524  0.18744774  0.73592115  1
  O  O144  1  0.48347114  0.64711649  0.24026872  1
  O  O145  1  0.45336632  0.64566204  0.81524716  1
  O  O146  1  1.04689018  0.31029828  0.26135966  1
  O  O147  1  0.99678422  0.09924877  0.74643170  1
  O  O148  1  0.99826680  0.61049438  0.19819617  1
  O  O149  1  0.92305873  0.70289311  0.79302452  1
  O  O150  1  0.42386582  0.27285863  0.02211872  1
  O  O151  1  0.48026169  0.29324595  0.63050663  1
  O  O152  1  0.35454919  0.76854172  -0.05839040  1
  O  O153  1  0.23232038  0.80079520  0.34309121  1
  O  O154  1  0.81609004  0.23737945  -0.00305720  1
  O  O155  1  0.87991693  0.28998007  0.55238881  1
  O  O156  1  0.87277679  0.77698675  -0.01192906  1
  O  O157  1  0.91761080  0.75183891  0.51109672  1
  O  O158  1  0.01413483  0.22829924  0.46597309  1
  O  O159  1  0.14884011  0.25069229  1.00308493  1
  O  O160  1  0.10322912  0.72588385  0.48201905  1
  O  O161  1  0.14978801  0.64114362  1.02390540  1
  O  O162  1  0.63461698  0.21457980  0.51071166  1
  O  O163  1  0.62383085  0.22400470  0.97475391  1
  O  O164  1  0.63987624  0.72224472  0.52594807  1
  O  O165  1  0.56810980  0.74954425  1.00024030  1
  O  O166  1  0.55399440  0.27808479  0.12024252  1
  O  O167  1  0.53392546  0.39633880  0.74738367  1
  O  O168  1  0.45635998  0.75230443  0.11713730  1
  O  O169  1  0.49526264  0.78427126  0.59706993  1
  O  O170  1  0.97577980  0.20316246  0.13584076  1
  O  O171  1  0.98786794  0.20758006  0.62667587  1
  O  O172  1  1.00437261  0.72128921  0.09074089  1
  O  O173  1  1.00604121  0.75144439  0.64176058  1
  O  O174  1  0.01232118  0.24884300  0.39942431  1
  O  O175  1  0.01808172  0.35894240  0.85491187  1
  O  O176  1  0.00107891  0.72314620  0.29501589  1
  O  O177  1  0.02334144  0.77679144  0.91944368  1
  O  O178  1  0.49324190  0.27066908  0.46880997  1
  O  O179  1  0.39172588  0.17425328  0.78638990  1
  O  O180  1  0.48459159  0.74442353  0.39567103  1
  O  O181  1  0.46402239  0.71012253  0.84996111  1
  O  O182  1  0.13477599  0.11895449  0.44477249  1
  O  O183  1  0.28758122  0.17067055  0.97855285  1
  O  O184  1  0.20794090  0.59860958  0.46595618  1
  O  O185  1  0.27198627  0.63440067  0.92366959  1
  O  O186  1  0.85772579  0.12168665  0.46347179  1
  O  O187  1  0.71796877  0.11857866  0.97067545  1
  O  O188  1  0.74231196  0.61138226  0.53092036  1
  O  O189  1  0.70655122  0.65358893  0.99431229  1
  O  O190  1  0.28673674  0.35230100  0.02216668  1
  O  O191  1  0.23682751  0.37757442  0.51195852  1
  O  O192  1  0.23143460  0.81123338  -0.04425638  1
  O  O193  1  0.23918172  0.86460848  0.51296917  1
  O  O194  1  0.72587520  0.34418412  -0.04111827  1
  O  O195  1  0.77591419  0.40026942  0.55613355  1
  O  O196  1  0.75331343  0.88592367  -0.00265921  1
  O  O197  1  0.77952477  0.80991713  0.48957771  1
  O  O198  1  0.12845217  0.48584768  0.25287910  1
  O  O199  1  0.12711015  0.47770619  0.86630668  1
  O  O200  1  0.10835821  1.00264070  0.20558449  1
  O  O201  1  0.14910420  0.99569544  0.74959948  1
  O  O202  1  0.61625234  0.54401543  0.24650328  1
  O  O203  1  0.63858716  0.52454127  0.75493816  1
  O  O204  1  0.63595956  1.02110198  0.23950352  1
  O  O205  1  0.64263193  1.02530060  0.72771727  1
  O  O206  1  0.44023606  0.03723373  0.27410880  1
  O  O207  1  0.34498417  -0.00673768  0.75338212  1
  O  O208  1  0.36169971  0.49416585  0.26786053  1
  O  O209  1  0.29890299  0.44661717  0.78593471  1
  O  O210  1  0.85426728  0.09457602  0.18090252  1
  O  O211  1  0.86382602  -0.01334679  0.75580505  1
  O  O212  1  0.87168053  0.49543878  0.24281434  1
  O  O213  1  0.89792638  0.54930753  0.77145517  1
  O  O214  1  0.15317907  0.31475860  0.37788202  1
  O  O215  1  0.00097141  0.32345519  1.02010027  1
  O  O216  1  0.04626915  0.83710231  0.36781559  1
  O  O217  1  0.11723100  0.89108476  0.88277158  1
  O  O218  1  0.59398101  0.35735953  0.51099410  1
  O  O219  1  0.64780692  0.37419279  0.93835834  1
  O  O220  1  0.69324079  0.88572825  0.34377209  1
  O  O221  1  0.62048597  0.90596536  0.84235528  1
  O  O222  1  0.40875554  0.17492495  0.13032735  1
  O  O223  1  0.42822974  0.09477393  0.58427650  1
  O  O224  1  0.37602015  0.61675265  0.13023299  1
  O  O225  1  0.37061408  0.69780833  0.54642835  1
  O  O226  1  0.82940672  0.12644352  0.12170099  1
  O  O227  1  0.89833159  0.08257217  0.63965713  1
  O  O228  1  0.89692208  0.60665278  0.09592322  1
  O  O229  1  0.88462791  0.64456001  0.63816315  1
  O  O230  1  0.25323275  0.24018643  0.12080387  1
  O  O231  1  0.20247745  0.25507266  0.59745264  1
  O  O232  1  0.28173612  0.76736329  0.15361736  1
  O  O233  1  0.24992876  0.75736879  0.63371623  1
  O  O234  1  0.71909259  0.29073490  0.11380537  1
  O  O235  1  0.79534310  0.29984202  0.67809650  1
  O  O236  1  0.74073722  0.77241096  0.10038980  1
  O  O237  1  0.75720651  0.75115447  0.65503061  1
  O  O238  1  0.17591102  0.19692546  0.26303771  1
  O  O239  1  0.24394877  0.26668482  0.85967888  1
  O  O240  1  0.25114316  0.75528124  0.39325938  1
  O  O241  1  0.15106412  0.67265026  0.80292644  1
  O  O242  1  0.69031518  0.31292267  0.41803269  1
  O  O243  1  0.75162542  0.23668592  0.85033679  1
  O  O244  1  0.80036615  0.68682200  0.33900028  1
  O  O245  1  0.74958029  0.74194373  0.86576706  1
  O  O246  1  -0.00545622  0.11596261  -0.01374174  1
  O  O247  1  0.00503507  0.08250347  0.52984044  1
  O  O248  1  0.12173061  0.59160137  -0.02178958  1
  O  O249  1  0.01513986  0.59221689  0.51937821  1
  O  O250  1  0.50632624  0.11817546  -0.00121424  1
  O  O251  1  0.45743815  0.03269398  0.43536306  1
  O  O252  1  0.48203209  0.62310718  0.00953841  1
  O  O253  1  0.53610928  0.61640383  0.51123847  1
  O  O254  1  0.49736613  0.46047193  0.57266145  1
  O  O255  1  0.50025386  0.40409950  1.01403464  1
  O  O256  1  0.55787450  0.87476350  0.44993257  1
  O  O257  1  0.48915509  0.88819859  1.02086590  1
  O  O258  1  0.98316562  0.38381788  0.49033701  1
  O  O259  1  0.94274165  0.34834274  1.05167299  1
  O  O260  1  0.96436129  0.90943932  0.47581223  1
  O  O261  1  0.96931535  0.89616337  0.98473189  1
  O  O262  1  0.54867535  0.50395764  0.39006957  1
  O  O263  1  0.49124692  0.50967243  0.90290277  1
  O  O264  1  0.61684866  1.03170464  0.40303902  1
  O  O265  1  0.47658751  0.98818534  0.90345686  1
  O  O266  1  0.94868332  0.52371282  0.34547184  1
  O  O267  1  0.99176056  0.49541004  0.94528225  1
  O  O268  1  0.95623386  0.94680080  0.27637283  1
  O  O269  1  0.99320286  0.98930011  0.88047823  1
  O  O270  1  -0.01122571  0.00408316  0.09820519  1
  O  O271  1  0.02523338  -0.01412145  0.65130917  1
  O  O272  1  0.07068585  0.47056830  0.06743663  1
  O  O273  1  0.04938292  0.46645233  0.61404656  1
  O  O274  1  0.53125662  -0.00600334  0.12437325  1
  O  O275  1  0.48748170  0.05785122  0.56984777  1
  O  O276  1  0.50515089  0.52761401  0.13611442  1
  O  O277  1  0.44577561  0.54983181  0.68006853  1
  O  O278  1  0.23336709  0.35415351  0.24946033  1
  O  O279  1  0.30140505  0.31550951  0.69601062  1
  O  O280  1  0.24212007  0.95352970  0.32325569  1
  O  O281  1  0.26008029  0.86095305  0.78451135  1
  O  O282  1  0.74594538  0.37177585  0.25222013  1
  O  O283  1  0.75198397  0.41381963  0.77764751  1
  O  O284  1  0.76895358  0.86232422  0.22092789  1
  O  O285  1  0.73008598  0.90029172  0.74111329  1
  O  O286  1  0.30958603  0.07492211  0.18630219  1
  O  O287  1  0.23395353  0.15142025  0.75846731  1
  O  O288  1  0.23485574  0.59818509  0.24507974  1
  O  O289  1  0.31200975  0.55698011  0.64318273  1
  O  O290  1  0.66989124  0.19404998  0.26418062  1
  O  O291  1  0.77742372  0.10627881  0.73497116  1
  O  O292  1  0.76067033  0.63663069  0.30276675  1
  O  O293  1  0.76143488  0.62839194  0.76807107  1
  O  O294  1  0.34518682  0.17367840  0.29855931  1
  O  O295  1  0.35346763  0.14248826  0.85325094  1
  O  O296  1  0.39856385  0.57367478  0.42120938  1
  O  O297  1  0.38273342  0.61207738  0.82639982  1
  O  O298  1  0.95509439  0.11085746  0.32445856  1
  O  O299  1  0.88335039  0.09828292  0.85073344  1
  O  O300  1  0.88057459  0.53242097  0.30910323  1
  O  O301  1  0.85149312  0.63746568  0.92490578  1
  O  O302  1  0.01496617  0.46553910  0.11085536  1
  O  O303  1  0.19536549  0.39556747  0.64155470  1
  O  O304  1  0.09318628  0.88608068  0.09362509  1
  O  O305  1  0.13195725  0.86762612  0.63514498  1
  O  O306  1  0.64537472  0.43900984  0.13217576  1
  O  O307  1  0.65461077  0.38440722  0.65266574  1
  O  O308  1  0.63770545  0.87388362  0.15099177  1
  O  O309  1  0.62747160  0.87543652  0.63567710  1
  O  O310  1  0.08263073  0.32510206  0.19532619  1
  O  O311  1  0.11196697  0.29442012  0.72679004  1
  O  O312  1  0.10201941  0.71239498  0.19453271  1
  O  O313  1  0.22688581  0.66032382  0.76996066  1
  O  O314  1  0.57404702  0.32835514  0.35695194  1
  O  O315  1  0.63439450  0.23301151  0.70147648  1
  O  O316  1  0.65886881  0.75197175  0.25647454  1
  O  O317  1  0.61378532  0.77302623  0.75115711  1
  O  O318  1  0.46247844  0.24766859  0.24067320  1
  O  O319  1  0.41124117  0.24621569  0.79302873  1
  O  O320  1  0.39171962  0.77866878  0.26582526  1
  O  O321  1  0.38982798  0.73785449  0.70990810  1
  O  O322  1  0.82618932  0.21077681  0.33248008  1
  O  O323  1  0.88914190  0.21093366  0.73961340  1
  O  O324  1  0.89328238  0.71926805  0.20524284  1
  O  O325  1  0.82026633  0.76260361  0.69997204  1
  O  O326  1  0.36047756  0.52754553  0.47829111  1
  O  O327  1  0.38233349  0.48382787  1.02011775  1
  O  O328  1  0.40742976  1.08187651  0.42684983  1
  O  O329  1  0.39632533  1.02275204  1.03461303  1
  O  O330  1  0.89890714  0.48802445  0.52751381  1
  O  O331  1  0.92548435  0.49450554  0.97026895  1
  O  O332  1  0.81915044  0.95446497  0.48555806  1
  O  O333  1  0.87218685  1.00532030  0.97741321  1
  O  O334  1  0.09492848  0.00090686  -0.00570426  1
  O  O335  1  0.13983919  -0.00518497  0.54333810  1
  O  O336  1  0.14690512  0.43449987  -0.08158374  1
  O  O337  1  0.09316658  0.47802127  0.45978594  1
  O  O338  1  0.60558836  0.00804683  -0.00654818  1
  O  O339  1  0.66018443  0.04563640  0.45921189  1
  O  O340  1  0.59912158  0.53651556  0.01673452  1
  O  O341  1  0.63815767  0.51536192  0.52698952  1
  O  O342  1  0.40196347  0.36154580  0.14861686  1
  O  O343  1  0.33214721  0.26459974  0.55594718  1
  O  O344  1  0.38361600  0.90309877  0.16752326  1
  O  O345  1  0.35948515  0.86795400  0.61966483  1
  O  O346  1  0.80810816  0.43156484  0.11336053  1
  O  O347  1  0.95831667  0.35123553  0.67810018  1
  O  O348  1  0.85818662  0.89082282  0.10008966  1
  O  O349  1  0.88832696  0.85951694  0.60830888  1
  O  O350  1  0.05648272  -0.00670446  0.38572537  1
  O  O351  1  0.14573070  0.12700451  0.88434315  1
  O  O352  1  0.08927635  0.61818879  0.36844887  1
  O  O353  1  0.10594022  0.61591679  0.79846120  1
  O  O354  1  0.58247050  0.18615945  0.38954119  1
  O  O355  1  0.58844707  0.10223522  0.86717576  1
  O  O356  1  0.65061022  0.62644204  0.42091475  1
  O  O357  1  0.59821815  0.63766454  0.89235478  1
