# generated using pymatgen
data_V51Zn51O256
_symmetry_space_group_name_H-M   'P 1'
_cell_length_a   18.14351486
_cell_length_b   17.45003967
_cell_length_c   17.57166715
_cell_angle_alpha   91.01582011
_cell_angle_beta   88.85361079
_cell_angle_gamma   89.89617536
_symmetry_Int_Tables_number   1
_chemical_formula_structural   V51Zn51O256
_chemical_formula_sum   'V51 Zn51 O256'
_cell_volume   5561.27786758
_cell_formula_units_Z   1
loop_
 _symmetry_equiv_pos_site_id
 _symmetry_equiv_pos_as_xyz
  1  'x, y, z'
loop_
 _atom_site_type_symbol
 _atom_site_label
 _atom_site_symmetry_multiplicity
 _atom_site_fract_x
 _atom_site_fract_y
 _atom_site_fract_z
 _atom_site_occupancy
  V  V0  1  0.64702036  0.12656707  0.00150062  1
  V  V1  1  0.53206621  0.57800460  0.01018506  1
  V  V2  1  0.23311836  0.42002569  0.09482289  1
  V  V3  1  0.33481590  0.04865315  0.41910727  1
  V  V4  1  0.69645147  0.49697512  0.71458509  1
  V  V5  1  0.36755458  0.59053846  0.77584101  1
  V  V6  1  0.75886201  0.34515844  -0.04112328  1
  V  V7  1  0.42916323  0.54389764  0.40489241  1
  V  V8  1  0.87193284  0.29744707  0.09098474  1
  V  V9  1  0.53377719  0.70183750  0.14511218  1
  V  V10  1  0.03048959  0.72298623  0.28737036  1
  V  V11  1  0.74328008  0.13298093  0.84612304  1
  V  V12  1  0.51154461  0.09332140  0.13837268  1
  V  V13  1  0.02850235  0.06896624  0.13572938  1
  V  V14  1  0.86270311  -0.02927156  0.39173254  1
  V  V15  1  0.04694470  0.23798602  0.89410013  1
  V  V16  1  0.84418084  0.63196571  0.27579966  1
  V  V17  1  0.23035517  0.74117258  -0.01286844  1
  V  V18  1  0.85392613  0.48638675  0.38206387  1
  V  V19  1  0.36073522  0.85338265  0.47742641  1
  V  V20  1  0.47250285  0.37141282  0.89995238  1
  V  V21  1  0.51269217  0.36320917  0.40917867  1
  V  V22  1  0.49953454  0.86941297  0.35605863  1
  V  V23  1  0.35519081  0.85072735  0.05536342  1
  V  V24  1  0.02739723  -0.07542800  0.00441406  1
  V  V25  1  0.73763223  0.48461359  0.25667391  1
  V  V26  1  0.48908905  0.72766554  0.73875734  1
  V  V27  1  -0.00885984  0.46907561  0.47571581  1
  V  V28  1  0.72041693  0.87413233  0.59992348  1
  V  V29  1  0.84354306  0.31682911  0.45414964  1
  V  V30  1  0.90121947  -0.04243949  0.87204378  1
  V  V31  1  0.29597290  0.29150957  0.67484044  1
  V  V32  1  0.51821877  0.12764900  0.60077142  1
  V  V33  1  0.82829068  0.23723873  0.62449325  1
  V  V34  1  0.52664761  -0.00355900  -0.01762064  1
  V  V35  1  0.30116571  0.20438278  0.02894234  1
  V  V36  1  0.00370652  0.02340098  0.48498011  1
  V  V37  1  -0.00842456  0.14168305  0.64784746  1
  V  V38  1  0.37045324  0.02006584  0.86082141  1
  V  V39  1  0.01947165  0.84160095  0.41624439  1
  V  V40  1  -0.00060769  0.25172659  0.20402083  1
  V  V41  1  0.89238833  0.81756470  0.53000744  1
  V  V42  1  0.49755217  -0.00902442  0.48456672  1
  V  V43  1  0.32095986  0.11606006  0.73594627  1
  V  V44  1  0.54416310  0.27336942  0.69893743  1
  V  V45  1  0.65670616  0.10055263  0.47167331  1
  V  V46  1  0.26565044  0.01088269  0.26139813  1
  V  V47  1  0.39608236  0.66075090  0.24055835  1
  V  V48  1  0.57913015  0.90828452  0.72608440  1
  V  V49  1  -0.02727768  0.62190379  0.16268150  1
  V  V50  1  0.60249899  0.25710334  0.89065617  1
  Zn  Zn51  1  0.38477248  0.67191359  1.03385799  1
  Zn  Zn52  1  0.93919570  0.65361474  0.44373932  1
  Zn  Zn53  1  0.96007924  0.34097524  0.34390453  1
  Zn  Zn54  1  0.40510815  0.41682421  0.74538457  1
  Zn  Zn55  1  0.17313589  0.17057180  0.17160130  1
  Zn  Zn56  1  0.17907394  0.93221009  0.44937265  1
  Zn  Zn57  1  0.92670297  0.44001342  0.19679868  1
  Zn  Zn58  1  0.68486699  0.95657237  0.88035491  1
  Zn  Zn59  1  0.45836813  0.16123445  0.96702872  1
  Zn  Zn60  1  0.72476407  0.28851214  0.76243346  1
  Zn  Zn61  1  0.52133503  0.42768890  0.13996952  1
  Zn  Zn62  1  0.42030559  0.58790519  0.60274822  1
  Zn  Zn63  1  0.57691520  0.26078675  0.09922288  1
  Zn  Zn64  1  0.81863152  0.49039836  0.06070376  1
  Zn  Zn65  1  -0.09672710  0.22106662  0.78697366  1
  Zn  Zn66  1  -0.02209822  0.32585285  0.56236560  1
  Zn  Zn67  1  0.44872510  0.84056418  0.90140965  1
  Zn  Zn68  1  0.56524534  0.03174674  0.31977547  1
  Zn  Zn69  1  0.33957779  0.23486997  0.85781864  1
  Zn  Zn70  1  0.88536439  0.81863031  0.31630927  1
  Zn  Zn71  1  0.25824462  0.53647309  0.94135379  1
  Zn  Zn72  1  0.87252679  0.93118289  0.68590197  1
  Zn  Zn73  1  0.45415916  0.70273202  0.40954527  1
  Zn  Zn74  1  0.52208417  0.54662429  0.83007813  1
  Zn  Zn75  1  0.82223276  0.04119975  0.56439630  1
  Zn  Zn76  1  0.70318814  0.38283241  0.12819359  1
  Zn  Zn77  1  0.56968648  0.59106964  0.30129594  1
  Zn  Zn78  1  0.86295503  0.47994040  0.59258414  1
  Zn  Zn79  1  0.89809530  0.14352447  -0.04996946  1
  Zn  Zn80  1  0.64700701  0.46035947  0.89719364  1
  Zn  Zn81  1  0.99019885  0.94085422  0.27870206  1
  Zn  Zn82  1  -0.07312576  0.15349773  0.37117525  1
  Zn  Zn83  1  0.04790253  0.74224346  0.06865299  1
  Zn  Zn84  1  0.69009330  0.40858736  0.41826375  1
  Zn  Zn85  1  0.38819081  0.23150358  0.50501727  1
  Zn  Zn86  1  0.36329850  0.01725251  0.59560765  1
  Zn  Zn87  1  0.19651411  0.32027177  0.94922264  1
  Zn  Zn88  1  0.38799737  0.47584692  0.05321105  1
  Zn  Zn89  1  0.66191622  0.27851531  0.52945370  1
  Zn  Zn90  1  0.42355800  0.91976383  0.73028826  1
  Zn  Zn91  1  0.06285169  0.35075843  0.06233113  1
  Zn  Zn92  1  0.35066724  0.47910706  0.23390080  1
  Zn  Zn93  1  0.66878123  0.70122921  0.69094991  1
  Zn  Zn94  1  0.32332890  0.74825783  0.82846783  1
  Zn  Zn95  1  0.65665473  0.56610769  0.14588138  1
  Zn  Zn96  1  0.33932251  0.03439659  0.07825103  1
  Zn  Zn97  1  0.49626217  0.90059396  0.15724499  1
  Zn  Zn98  1  0.95719705  0.57445850  0.98259292  1
  Zn  Zn99  1  0.15100840  0.19009298  0.73174119  1
  Zn  Zn100  1  0.66739333  0.93724386  0.42454408  1
  Zn  Zn101  1  0.35859427  0.85790342  0.26639878  1
  O  O102  1  0.11709237  0.09449918  0.11674604  1
  O  O103  1  0.08427068  0.14882260  0.65925507  1
  O  O104  1  0.16977158  0.57576907  0.20514056  1
  O  O105  1  0.03465951  0.58554730  0.67438076  1
  O  O106  1  0.66573609  0.10956997  0.09047922  1
  O  O107  1  0.60844010  0.11969441  0.57595256  1
  O  O108  1  0.62338318  0.66848418  0.15422090  1
  O  O109  1  0.62504124  0.68204367  0.57143659  1
  O  O110  1  0.48760077  0.46076217  0.42713067  1
  O  O111  1  0.39617229  0.32706833  0.86059067  1
  O  O112  1  0.39139088  0.87131442  0.37838961  1
  O  O113  1  0.40504026  0.92261091  0.84155305  1
  O  O114  1  0.84485964  0.37447990  0.36761777  1
  O  O115  1  0.93169393  0.45676837  0.83332524  1
  O  O116  1  0.89658917  0.84714759  0.42773172  1
  O  O117  1  0.83342551  0.89453824  0.88421096  1
  O  O118  1  0.24500906  0.02200011  0.42857686  1
  O  O119  1  0.29014584  0.00623316  0.89818299  1
  O  O120  1  0.37658405  0.49001716  0.34183527  1
  O  O121  1  0.19160339  0.43083502  0.82481794  1
  O  O122  1  0.77267065  -0.05426824  0.40321115  1
  O  O123  1  0.73973535  0.03631734  0.82924957  1
  O  O124  1  0.74199168  0.48414597  0.36244065  1
  O  O125  1  0.72448707  0.49974822  0.81668264  1
  O  O126  1  0.28176061  0.49382638  0.04011180  1
  O  O127  1  0.15623147  0.46760304  0.66292794  1
  O  O128  1  0.28096377  1.01195246  0.16694178  1
  O  O129  1  0.36050783  0.91176997  0.63718242  1
  O  O130  1  0.73834021  0.49608890  0.13801210  1
  O  O131  1  0.63665388  0.48482935  0.64159534  1
  O  O132  1  0.76527618  0.94756704  0.10790417  1
  O  O133  1  0.78442216  0.95245942  0.62614429  1
  O  O134  1  -0.01708182  0.35592673  0.23926665  1
  O  O135  1  -0.02114729  0.46229340  0.78298188  1
  O  O136  1  0.00274496  0.82641869  0.28946453  1
  O  O137  1  0.05982925  0.86642333  0.73616095  1
  O  O138  1  0.50397406  0.37484757  0.30081530  1
  O  O139  1  0.47729712  0.34058765  0.70628230  1
  O  O140  1  0.46960054  0.89623410  0.26490366  1
  O  O141  1  0.51030739  0.82798595  0.70830374  1
  O  O142  1  0.54498302  0.04411462  0.21637124  1
  O  O143  1  0.50578589  0.17727730  0.69025541  1
  O  O144  1  0.50472123  0.65502157  0.23830815  1
  O  O145  1  0.45571836  0.62660251  0.80439512  1
  O  O146  1  0.97760763  0.15382297  0.15942856  1
  O  O147  1  0.95216949  0.13156113  0.73562574  1
  O  O148  1  0.96858598  0.63908468  0.27584339  1
  O  O149  1  0.96743066  0.71449341  0.80307493  1
  O  O150  1  0.39443280  0.22854863  0.02762795  1
  O  O151  1  0.32854296  0.27897876  0.58282562  1
  O  O152  1  0.40620193  0.78593678  -0.00573651  1
  O  O153  1  0.38577261  0.75786323  0.47732071  1
  O  O154  1  0.84204417  0.35850308  -0.07456800  1
  O  O155  1  0.85509652  0.22563736  0.42443069  1
  O  O156  1  0.85315978  0.78884394  -0.00636010  1
  O  O157  1  0.90685480  0.72126625  0.52759601  1
  O  O158  1  0.17740005  0.32032008  0.48037375  1
  O  O159  1  0.09110616  0.30500461  0.96438852  1
  O  O160  1  0.01272532  0.73472778  0.66420180  1
  O  O161  1  0.14026157  0.72677057  1.00857389  1
  O  O162  1  0.65044046  0.19580442  0.45482306  1
  O  O163  1  0.62234239  0.23329166  1.00005035  1
  O  O164  1  0.66983516  0.70633957  0.40488193  1
  O  O165  1  0.81763634  0.66957119  0.88439640  1
  O  O166  1  0.52919955  0.18852438  0.16017342  1
  O  O167  1  0.59308596  0.28991664  0.61808080  1
  O  O168  1  0.54151778  0.79789013  0.15208635  1
  O  O169  1  0.45810303  0.67992740  0.65866606  1
  O  O170  1  0.98195933  0.29707282  0.10622891  1
  O  O171  1  0.96190890  0.23252241  0.61704478  1
  O  O172  1  1.03435032  0.71009167  0.17814027  1
  O  O173  1  0.87576450  0.62325164  0.69023791  1
  O  O174  1  -0.03103816  0.22459587  0.29861421  1
  O  O175  1  -0.02057334  0.27813260  0.83965315  1
  O  O176  1  -0.00040757  0.73390528  0.39385536  1
  O  O177  1  -0.01676271  0.68398821  0.86583779  1
  O  O178  1  0.44648609  0.30911982  0.44937423  1
  O  O179  1  0.50621459  0.24866882  0.90695167  1
  O  O180  1  0.51971535  0.77516950  0.35677273  1
  O  O181  1  0.68169548  0.71350269  0.89941199  1
  O  O182  1  0.16533805  0.16130477  0.48264508  1
  O  O183  1  0.30557887  0.10829651  1.00921730  1
  O  O184  1  0.08629060  0.59602435  0.63005266  1
  O  O185  1  0.28400636  0.65680297  0.99443738  1
  O  O186  1  0.74040315  0.07509783  0.50161121  1
  O  O187  1  0.73400036  0.12911745  0.95840847  1
  O  O188  1  0.72253162  0.70644240  0.44759501  1
  O  O189  1  0.83536078  0.73849559  1.03763092  1
  O  O190  1  0.25875862  0.33783515  0.04620370  1
  O  O191  1  0.15045213  0.34693192  0.54259422  1
  O  O192  1  0.26376288  0.81070589  0.05570405  1
  O  O193  1  0.26778738  0.86601006  0.47907896  1
  O  O194  1  0.71904203  0.43617532  -0.02747523  1
  O  O195  1  0.74648411  0.33347780  0.47269487  1
  O  O196  1  0.72018423  0.87856062  -0.04501241  1
  O  O197  1  0.79697289  0.82486066  0.54274945  1
  O  O198  1  0.13909903  0.54082054  0.25645823  1
  O  O199  1  0.09520974  0.44625240  0.68413526  1
  O  O200  1  0.16757197  1.03974884  0.28108804  1
  O  O201  1  0.18648709  0.94862122  0.78420654  1
  O  O202  1  0.63882237  0.52234309  0.25400913  1
  O  O203  1  0.60617539  0.51204012  0.76764854  1
  O  O204  1  0.75435142  1.04579085  0.23058711  1
  O  O205  1  0.51853453  0.98240134  0.73406275  1
  O  O206  1  0.34447110  0.04753110  0.31678106  1
  O  O207  1  0.35235723  0.01703325  0.75214946  1
  O  O208  1  0.42572181  0.45936615  0.15341801  1
  O  O209  1  0.38735662  0.52894103  0.69494374  1
  O  O210  1  0.88258458  -0.07398307  0.29628866  1
  O  O211  1  0.91244999  -0.02951139  0.77320463  1
  O  O212  1  0.84475338  0.49400946  0.26325887  1
  O  O213  1  0.78067493  0.48425381  0.66543387  1
  O  O214  1  0.23595243  0.28292859  0.33428670  1
  O  O215  1  0.23022120  0.41781908  0.89700037  1
  O  O216  1  0.11225341  0.85657943  0.40411762  1
  O  O217  1  0.15928219  0.90411003  0.82969193  1
  O  O218  1  0.53602920  0.30531525  0.31639903  1
  O  O219  1  0.57745906  0.37010109  0.89980389  1
  O  O220  1  0.58624000  0.91816841  0.35166750  1
  O  O221  1  0.62554749  0.89743359  0.80927573  1
  O  O222  1  0.41911760  0.08453297  0.13723213  1
  O  O223  1  0.33827401  0.11308314  0.63760962  1
  O  O224  1  0.43125466  0.68361139  0.13129954  1
  O  O225  1  0.31744255  0.66917988  0.74983550  1
  O  O226  1  0.87764611  0.22493230  0.02288702  1
  O  O227  1  0.84581886  0.13991957  0.61169393  1
  O  O228  1  0.87592238  0.62893185  0.17155112  1
  O  O229  1  0.88907766  0.59184672  0.62089843  1
  O  O230  1  0.25628141  0.20751968  0.11817415  1
  O  O231  1  0.20345914  0.27362055  0.68045346  1
  O  O232  1  0.20992542  0.73696970  0.19417617  1
  O  O233  1  0.06439907  0.73299308  0.61866955  1
  O  O234  1  0.76523832  0.31680994  0.05913864  1
  O  O235  1  0.73797081  0.24702834  0.60671073  1
  O  O236  1  0.68799949  0.80719518  0.05418789  1
  O  O237  1  0.70713827  0.79515521  0.65965629  1
  O  O238  1  0.27596437  0.33625316  0.35342576  1
  O  O239  1  0.26264444  0.23322799  0.93657695  1
  O  O240  1  0.20764438  0.70165860  0.57192211  1
  O  O241  1  0.24507576  0.77340084  0.89482372  1
  O  O242  1  0.73053736  0.21052340  0.29962973  1
  O  O243  1  0.70824298  0.29613603  0.88285748  1
  O  O244  1  0.69139448  0.81170299  0.24666966  1
  O  O245  1  0.79889411  0.71608453  0.83710692  1
  O  O246  1  -0.00458570  0.01154675  0.05849756  1
  O  O247  1  0.00421581  0.10577307  0.43533051  1
  O  O248  1  -0.01067552  0.64457101  0.06178022  1
  O  O249  1  -0.01364540  0.56732790  0.48807521  1
  O  O250  1  0.53545657  0.10997044  0.02898791  1
  O  O251  1  0.48123007  0.18116965  0.53331007  1
  O  O252  1  0.54419381  0.67380867  0.03412280  1
  O  O253  1  0.57297790  0.65518986  0.53449915  1
  O  O254  1  0.60036879  0.35931924  0.45145044  1
  O  O255  1  0.44936315  0.40504945  0.98827208  1
  O  O256  1  0.49165325  0.89164835  0.46832448  1
  O  O257  1  0.52260157  0.90621891  0.94575739  1
  O  O258  1  0.95329431  0.34736194  0.45313957  1
  O  O259  1  1.04049721  0.49290565  0.96179105  1
  O  O260  1  1.00945119  0.83970188  0.51145176  1
  O  O261  1  1.00724796  0.84089358  1.05274062  1
  O  O262  1  0.51717272  0.60103273  0.39669182  1
  O  O263  1  0.46629413  0.45078059  0.83412522  1
  O  O264  1  0.47944558  1.03754878  0.40076144  1
  O  O265  1  0.44989865  1.04560954  0.93359113  1
  O  O266  1  0.95133448  0.47089455  0.37327599  1
  O  O267  1  1.14419691  0.56528224  0.94318414  1
  O  O268  1  0.99263808  0.94963098  0.39606578  1
  O  O269  1  0.98622159  0.91848969  0.91215615  1
  O  O270  1  0.03006470  0.01317828  0.21495442  1
  O  O271  1  -0.01640696  0.05749051  0.58388861  1
  O  O272  1  -0.00691605  0.52694986  0.16570510  1
  O  O273  1  -0.03822958  0.44001997  0.57424195  1
  O  O274  1  0.51894144  -0.02236677  0.08212188  1
  O  O275  1  0.47612433  0.03298645  0.58244540  1
  O  O276  1  0.56684238  0.52524989  0.08415917  1
  O  O277  1  0.52977428  0.51301206  0.58502352  1
  O  O278  1  0.26737936  0.42510577  0.18531172  1
  O  O279  1  0.13643958  0.38900703  0.81490827  1
  O  O280  1  0.26582262  0.91553201  0.28324481  1
  O  O281  1  0.20032338  0.83669478  0.66762832  1
  O  O282  1  0.72606974  0.38995220  0.24121025  1
  O  O283  1  0.69631801  0.39403338  0.72982917  1
  O  O284  1  0.82681223  0.84746497  0.14824928  1
  O  O285  1  0.63947260  0.92993246  0.65264026  1
  O  O286  1  0.20366635  0.11066299  0.27087649  1
  O  O287  1  0.22928018  0.11095571  0.74946127  1
  O  O288  1  0.33755728  0.59170000  0.21008977  1
  O  O289  1  0.16642484  0.62039845  0.75991701  1
  O  O290  1  0.80453608  0.08017432  0.19923579  1
  O  O291  1  0.72275006  0.17533304  0.76248264  1
  O  O292  1  0.75538573  0.60794528  0.26126473  1
  O  O293  1  0.70522838  0.59765062  0.70436272  1
  O  O294  1  0.34387178  0.13929693  0.45370763  1
  O  O295  1  0.37120153  0.12656649  0.83559153  1
  O  O296  1  0.39620599  0.63374002  0.34255602  1
  O  O297  1  0.32190229  0.54979310  0.85100013  1
  O  O298  1  0.86662065  0.06296990  0.35980852  1
  O  O299  1  0.83437848  0.16946112  0.85838125  1
  O  O300  1  0.86168083  0.59593956  0.37515627  1
  O  O301  1  0.97978253  0.60655154  0.86864959  1
  O  O302  1  0.13706527  0.42203258  0.09131972  1
  O  O303  1  0.09362831  0.31026369  0.57479865  1
  O  O304  1  0.18548732  0.80224942  0.19468405  1
  O  O305  1  0.08735594  0.90034743  0.68228606  1
  O  O306  1  0.59934248  0.36098384  0.12905784  1
  O  O307  1  0.53962811  0.44358578  0.58931709  1
  O  O308  1  0.66724626  0.85721917  0.00775807  1
  O  O309  1  0.67160309  0.87563900  0.51826751  1
  O  O310  1  0.09276166  0.24448572  0.20209118  1
  O  O311  1  0.11928431  0.21060311  0.83464246  1
  O  O312  1  0.11584409  0.70163887  0.30378068  1
  O  O313  1  0.18876006  0.78655605  0.71471044  1
  O  O314  1  0.67492102  0.19585283  0.26420475  1
  O  O315  1  0.60233632  0.27617697  0.77983032  1
  O  O316  1  0.69105673  0.87471555  0.21733930  1
  O  O317  1  0.57824742  0.70150278  0.75371921  1
  O  O318  1  0.36385921  0.23009098  0.23687636  1
  O  O319  1  0.33585927  0.22501250  0.74183147  1
  O  O320  1  0.35312903  0.74686554  0.25325984  1
  O  O321  1  0.42678544  0.76957364  0.81706325  1
  O  O322  1  0.85614174  0.26046838  0.17519317  1
  O  O323  1  0.83299495  0.27395208  0.72034118  1
  O  O324  1  0.83671605  0.72814568  0.29241680  1
  O  O325  1  0.89388412  0.58628495  0.74939544  1
  O  O326  1  0.39638002  0.56987712  0.49661777  1
  O  O327  1  0.43534968  0.57058618  1.00277090  1
  O  O328  1  0.37478413  0.98108362  0.48860328  1
  O  O329  1  0.35862789  0.93891757  1.01802947  1
  O  O330  1  0.84181052  0.48221808  0.47993360  1
  O  O331  1  0.85879475  0.54769233  0.98394758  1
  O  O332  1  0.89670018  0.99204806  0.49176957  1
  O  O333  1  0.88322068  1.03723706  0.92875273  1
  O  O334  1  0.11618505  -0.07051279  -0.00919556  1
  O  O335  1  0.09309615  -0.00764966  0.49483474  1
  O  O336  1  0.10051264  0.50719200  -0.08053148  1
  O  O337  1  0.07854498  0.44755533  0.46710990  1
  O  O338  1  0.62024729  0.02258992  -0.04438127  1
  O  O339  1  0.59154087  0.00477444  0.49204326  1
  O  O340  1  0.57925131  0.54942019  -0.07583688  1
  O  O341  1  0.71164054  0.56655285  0.52150560  1
  O  O342  1  0.40088214  0.23368688  0.29430673  1
  O  O343  1  0.31105336  0.38205568  0.71159631  1
  O  O344  1  0.38783939  0.86170441  0.14601851  1
  O  O345  1  0.38420935  0.85407163  0.58479316  1
  O  O346  1  0.87711758  0.40545672  0.10338072  1
  O  O347  1  0.85941283  0.31578084  0.55981953  1
  O  O348  1  0.82659335  0.91138291  0.11277995  1
  O  O349  1  0.91676311  0.85750900  0.61864906  1
  O  O350  1  0.17243267  0.16928241  0.41420132  1
  O  O351  1  0.00664945  0.16186778  0.93753860  1
  O  O352  1  0.21981112  0.63293762  0.56118534  1
  O  O353  1  0.10832441  0.64850751  0.78470948  1
  O  O354  1  0.65121128  0.06198469  0.37728396  1
  O  O355  1  0.63099528  0.16246330  0.87412416  1
  O  O356  1  0.66778137  0.51596122  0.50154484  1
  O  O357  1  0.70991517  0.67299620  0.94718567  1
