# generated using pymatgen
data_V51Zn51O256
_symmetry_space_group_name_H-M   'P 1'
_cell_length_a   18.00808093
_cell_length_b   17.81428362
_cell_length_c   17.94153287
_cell_angle_alpha   90.08593738
_cell_angle_beta   88.74561917
_cell_angle_gamma   90.77634232
_symmetry_Int_Tables_number   1
_chemical_formula_structural   V51Zn51O256
_chemical_formula_sum   'V51 Zn51 O256'
_cell_volume   5753.75108527
_cell_formula_units_Z   1
loop_
 _symmetry_equiv_pos_site_id
 _symmetry_equiv_pos_as_xyz
  1  'x, y, z'
loop_
 _atom_site_type_symbol
 _atom_site_label
 _atom_site_symmetry_multiplicity
 _atom_site_fract_x
 _atom_site_fract_y
 _atom_site_fract_z
 _atom_site_occupancy
  V  V0  1  0.78261993  -0.00308071  0.78549249  1
  V  V1  1  0.90064234  0.29115039  0.66215465  1
  V  V2  1  0.76875635  0.09712806  0.38346128  1
  V  V3  1  0.89782894  0.40862346  0.35674925  1
  V  V4  1  0.64793723  0.19339062  0.35522331  1
  V  V5  1  0.57760937  0.42446571  0.77204000  1
  V  V6  1  0.61779300  0.69251903  0.49399403  1
  V  V7  1  0.00607689  0.08995972  0.66573014  1
  V  V8  1  0.01814993  0.83305523  0.47079809  1
  V  V9  1  0.37143623  0.53355722  0.38826635  1
  V  V10  1  0.27274677  0.09212257  0.38390530  1
  V  V11  1  0.60821376  0.76095400  0.87869636  1
  V  V12  1  0.87219512  0.51472954  0.91773021  1
  V  V13  1  0.24953711  0.49377814  0.26529018  1
  V  V14  1  0.19700829  0.36340223  0.09659773  1
  V  V15  1  0.37351237  0.74705223  0.56846190  1
  V  V16  1  0.14607291  -0.01395343  0.05169775  1
  V  V17  1  0.03716980  0.68779667  0.69324069  1
  V  V18  1  0.13530165  0.26458210  0.86882458  1
  V  V19  1  0.64970481  0.84120633  0.40456820  1
  V  V20  1  0.08139356  0.83834236  0.82263024  1
  V  V21  1  0.34253727  0.25425839  0.10180030  1
  V  V22  1  0.91471726  0.24259281  0.10731989  1
  V  V23  1  0.78307761  0.15850091  0.86574511  1
  V  V24  1  0.41425246  0.01484480  0.29747800  1
  V  V25  1  -0.05706513  0.56374097  0.60994693  1
  V  V26  1  0.46796889  0.27047283  0.80565995  1
  V  V27  1  0.86411831  0.77782390  0.65423833  1
  V  V28  1  0.15745690  -0.01229457  0.62028493  1
  V  V29  1  0.45123207  0.49923475  0.01301904  1
  V  V30  1  0.89991808  0.80640972  0.09662798  1
  V  V31  1  0.71678231  0.49669168  0.83588891  1
  V  V32  1  0.65631359  0.02580024  0.11582824  1
  V  V33  1  0.24742565  0.72081939  0.44479600  1
  V  V34  1  0.89687844  0.34882475  -0.03247679  1
  V  V35  1  0.33157661  0.38837419  -0.02358593  1
  V  V36  1  0.11894672  0.62497631  0.01552053  1
  V  V37  1  0.18622266  0.84441023  0.16619108  1
  V  V38  1  0.46782845  0.04458425  0.54558388  1
  V  V39  1  0.88123440  0.68087657  0.24817376  1
  V  V40  1  0.01405037  0.08025959  0.04280084  1
  V  V41  1  0.36933837  0.30665502  0.57842518  1
  V  V42  1  0.10488837  0.41813053  0.74165150  1
  V  V43  1  0.42441279  0.35479243  0.33369933  1
  V  V44  1  0.02493644  0.58608561  0.17816035  1
  V  V45  1  0.56962210  0.13178293  -0.01910984  1
  V  V46  1  0.40131699  0.87149842  -0.02714192  1
  V  V47  1  0.48968432  0.87554422  0.32431498  1
  V  V48  1  0.23528386  0.51710723  0.77850910  1
  V  V49  1  0.72624726  0.91872891  0.64643187  1
  V  V50  1  0.35461793  0.60725519  0.71270773  1
  Zn  Zn51  1  0.19675479  0.17468334  0.03792911  1
  Zn  Zn52  1  0.09709202  0.42577525  0.37235199  1
  Zn  Zn53  1  0.03938236  0.40113981  0.56297932  1
  Zn  Zn54  1  0.82551842  0.85694793  0.49522006  1
  Zn  Zn55  1  0.05066678  0.55668570  0.83535654  1
  Zn  Zn56  1  0.65565105  0.50371191  1.01766486  1
  Zn  Zn57  1  0.08397668  0.80649031  0.01248087  1
  Zn  Zn58  1  0.86375050  0.15503718  0.54551207  1
  Zn  Zn59  1  0.41338432  0.41993517  0.17475769  1
  Zn  Zn60  1  -0.02137873  0.13201082  0.85688445  1
  Zn  Zn61  1  0.38121838  0.88952042  0.17515954  1
  Zn  Zn62  1  0.40204064  0.84841801  0.69694973  1
  Zn  Zn63  1  0.39455650  0.17517547  0.96988397  1
  Zn  Zn64  1  0.77494105  0.32793740  0.79134206  1
  Zn  Zn65  1  0.72496116  1.01760821  0.95734914  1
  Zn  Zn66  1  0.49954056  0.22903339  0.46928064  1
  Zn  Zn67  1  0.84820624  0.99899693  0.09041981  1
  Zn  Zn68  1  0.49284130  0.30038666  -0.01029213  1
  Zn  Zn69  1  0.04734587  0.24049911  0.73127380  1
  Zn  Zn70  1  0.74522104  0.79941337  0.77138268  1
  Zn  Zn71  1  0.80384230  0.67050333  0.01029970  1
  Zn  Zn72  1  0.07725974  -0.10773372  0.30891320  1
  Zn  Zn73  1  0.73028800  0.67769168  0.35403520  1
  Zn  Zn74  1  0.29235413  0.10058605  0.57822109  1
  Zn  Zn75  1  0.40650987  0.42805481  0.71953682  1
  Zn  Zn76  1  0.59355855  0.92562548  -0.01602692  1
  Zn  Zn77  1  0.18105648  0.49153590  0.94885227  1
  Zn  Zn78  1  0.18243434  0.93221328  0.43351482  1
  Zn  Zn79  1  0.18257091  0.66704927  0.25640485  1
  Zn  Zn80  1  0.26807892  0.52630050  0.10292136  1
  Zn  Zn81  1  0.95685815  0.92364341  0.74835184  1
  Zn  Zn82  1  0.81970822  0.61699751  0.73622517  1
  Zn  Zn83  1  0.28663057  0.33421832  0.79704972  1
  Zn  Zn84  1  0.31403677  0.04517906  0.04834696  1
  Zn  Zn85  1  0.30020621  0.22823978  0.28381196  1
  Zn  Zn86  1  0.81214026  0.24680927  0.26282040  1
  Zn  Zn87  1  0.54599540  0.56012739  0.89656664  1
  Zn  Zn88  1  0.61443067  0.01834669  0.30726130  1
  Zn  Zn89  1  0.42192924  0.67593693  0.88846703  1
  Zn  Zn90  1  0.90945163  0.41969188  0.78362381  1
  Zn  Zn91  1  0.85187438  0.00625650  0.62952190  1
  Zn  Zn92  1  0.35465014  0.49950283  0.57700718  1
  Zn  Zn93  1  0.54826280  0.10541539  0.79562901  1
  Zn  Zn94  1  0.98033364  0.40538991  0.20254820  1
  Zn  Zn95  1  0.44970507  0.69458837  0.41380901  1
  Zn  Zn96  1  0.12018847  0.81583714  0.63880050  1
  Zn  Zn97  1  0.27713708  0.86780097  0.82775802  1
  Zn  Zn98  1  0.21337888  0.64237427  0.61911129  1
  Zn  Zn99  1  0.54454374  0.83638507  0.58132052  1
  Zn  Zn100  1  0.55263029  0.96684494  0.68506134  1
  Zn  Zn101  1  0.05940090  0.27834243  0.03055708  1
  O  O102  1  0.11950973  0.09777948  0.06027121  1
  O  O103  1  0.05958067  0.16744871  0.64897006  1
  O  O104  1  0.08089230  0.62302058  0.24340589  1
  O  O105  1  -0.08133150  0.62539355  0.52226216  1
  O  O106  1  0.61445019  0.10321502  0.07104169  1
  O  O107  1  0.65470565  0.27171237  0.66168798  1
  O  O108  1  0.68205392  0.74034355  0.16871265  1
  O  O109  1  0.66925956  0.48773272  0.49724793  1
  O  O110  1  0.33573778  0.31889830  0.32186883  1
  O  O111  1  0.32093595  0.40014300  0.88503339  1
  O  O112  1  0.40927061  0.92871390  0.35274501  1
  O  O113  1  0.43176844  0.90678866  0.88707300  1
  O  O114  1  0.87325013  0.31523058  0.32109575  1
  O  O115  1  0.88097870  0.34173474  0.87426227  1
  O  O116  1  0.92921444  0.86253146  0.45996110  1
  O  O117  1  0.85543713  0.81602559  0.85229600  1
  O  O118  1  0.23166534  0.00563327  0.37117904  1
  O  O119  1  0.28834255  -0.02288964  0.79358907  1
  O  O120  1  0.27770404  0.53239423  0.35552858  1
  O  O121  1  0.24143709  0.53936500  0.86932901  1
  O  O122  1  0.66315844  0.08753339  0.54594239  1
  O  O123  1  0.79884660  -0.01712326  0.87702323  1
  O  O124  1  0.81145697  0.43662283  0.38233969  1
  O  O125  1  0.72236989  0.50610896  0.93244199  1
  O  O126  1  0.22153476  0.43400524  0.15814524  1
  O  O127  1  0.24229387  0.52803302  0.60061932  1
  O  O128  1  0.23002221  1.00218395  0.09749256  1
  O  O129  1  0.21850511  1.05787829  0.64652459  1
  O  O130  1  0.74618299  0.56955396  0.11561124  1
  O  O131  1  0.69970026  0.40609037  0.79731748  1
  O  O132  1  0.74641259  1.01469864  0.07192118  1
  O  O133  1  0.74552022  1.01416813  0.67261589  1
  O  O134  1  -0.03414236  0.18378557  0.39109570  1
  O  O135  1  0.01177557  0.43596780  0.76328914  1
  O  O136  1  0.05439319  0.74914688  0.40921870  1
  O  O137  1  0.05662801  0.78835717  0.73665196  1
  O  O138  1  0.46848022  0.36368134  0.24740237  1
  O  O139  1  0.48886642  0.45947767  0.77746373  1
  O  O140  1  0.47216899  0.86258699  0.23267173  1
  O  O141  1  0.50011498  0.87262414  0.67374081  1
  O  O142  1  0.62220077  0.24071068  0.14117130  1
  O  O143  1  0.48742335  0.18649285  0.76446697  1
  O  O144  1  0.53430630  0.72309794  0.21434054  1
  O  O145  1  0.54497181  0.61007345  0.73179567  1
  O  O146  1  0.97300792  0.05174784  0.24802335  1
  O  O147  1  0.98904703  0.08218347  0.75839568  1
  O  O148  1  0.92970310  0.60405053  0.20152725  1
  O  O149  1  1.03140147  0.60199683  0.63323216  1
  O  O150  1  0.32318451  0.29324332  -0.01350949  1
  O  O151  1  0.32730597  0.31435193  0.49957158  1
  O  O152  1  0.40506085  0.77300908  -0.04718534  1
  O  O153  1  0.35003418  0.72820360  0.46833296  1
  O  O154  1  0.86002267  0.27592854  0.02987167  1
  O  O155  1  0.84400031  0.24029161  0.60220668  1
  O  O156  1  0.83885776  0.76369747  0.03508594  1
  O  O157  1  0.84693035  0.76970568  0.56157413  1
  O  O158  1  0.16434067  0.28488283  0.48901156  1
  O  O159  1  0.13658585  0.23261123  0.96475775  1
  O  O160  1  0.19051008  0.79158298  0.49475885  1
  O  O161  1  0.14778428  0.71532564  1.01163911  1
  O  O162  1  0.60480631  0.21493835  0.43734254  1
  O  O163  1  0.57111131  0.22949608  0.99501032  1
  O  O164  1  0.60574292  0.80201300  0.48890174  1
  O  O165  1  0.60988994  0.76703786  0.97487450  1
  O  O166  1  0.43079198  0.23672524  0.06286723  1
  O  O167  1  0.45847741  0.27712118  0.55777430  1
  O  O168  1  0.65714331  0.80098905  0.14939888  1
  O  O169  1  0.46730905  0.74950577  0.57068516  1
  O  O170  1  0.99724648  0.19456776  0.07381909  1
  O  O171  1  0.93856877  0.23361705  0.72727172  1
  O  O172  1  0.98929780  0.79659185  0.06758389  1
  O  O173  1  0.94853243  0.71472789  0.66011568  1
  O  O174  1  0.12887282  0.22678235  0.50013632  1
  O  O175  1  0.11822213  0.35814976  0.91254744  1
  O  O176  1  0.00852368  0.72527349  0.46516556  1
  O  O177  1  0.02858735  0.64546818  0.77643655  1
  O  O178  1  0.59084123  0.17923029  0.28789812  1
  O  O179  1  0.44276545  0.25078717  0.89791635  1
  O  O180  1  0.47865004  0.79200102  0.36695808  1
  O  O181  1  0.51350803  0.74034582  0.85941138  1
  O  O182  1  0.27222270  0.12102706  0.47417445  1
  O  O183  1  0.29392728  0.06167617  0.90940214  1
  O  O184  1  0.07293192  0.57912545  0.45762314  1
  O  O185  1  0.33300279  0.64989657  1.07681505  1
  O  O186  1  0.65099519  0.14557574  0.57992561  1
  O  O187  1  0.74741969  0.12455289  0.94856160  1
  O  O188  1  0.72335655  0.50757677  0.53281835  1
  O  O189  1  0.71788064  0.61636564  1.05813224  1
  O  O190  1  0.22630363  0.40431058  0.00768059  1
  O  O191  1  0.23397468  0.44485486  0.50352212  1
  O  O192  1  0.30725776  0.86235848  -0.05712847  1
  O  O193  1  0.23922592  0.83564591  0.44511722  1
  O  O194  1  0.71554552  0.50195013  0.11163520  1
  O  O195  1  0.74196365  0.36602446  0.55831311  1
  O  O196  1  0.69547035  0.91018960  -0.03324556  1
  O  O197  1  0.79548747  0.93273588  0.56928054  1
  O  O198  1  0.17342830  0.44157046  0.30121536  1
  O  O199  1  0.13170565  0.52013644  0.76623212  1
  O  O200  1  0.14013603  0.90222211  0.22962364  1
  O  O201  1  0.15782156  1.04007864  0.81319377  1
  O  O202  1  0.56643743  0.56254711  0.25602155  1
  O  O203  1  0.61167960  0.50465951  0.83290896  1
  O  O204  1  0.66098980  1.03151311  0.21074069  1
  O  O205  1  0.59891874  1.28431220  0.62633350  1
  O  O206  1  0.38107897  -0.00506936  0.21144632  1
  O  O207  1  0.37982758  0.05594797  0.75164427  1
  O  O208  1  0.33665538  0.46436923  0.23915735  1
  O  O209  1  0.33668478  0.50946797  0.75411027  1
  O  O210  1  0.91421578  -0.09056382  0.29102050  1
  O  O211  1  0.87159076  -0.01269226  0.74172825  1
  O  O212  1  0.88097737  0.42557579  0.25498700  1
  O  O213  1  0.82855779  0.48222706  0.83422353  1
  O  O214  1  0.08011718  0.25323309  0.27443487  1
  O  O215  1  0.11947347  0.42755602  0.87844378  1
  O  O216  1  0.07798153  0.89690593  0.41136936  1
  O  O217  1  0.17496843  0.85273554  0.82484318  1
  O  O218  1  0.66196122  0.30713691  0.34368824  1
  O  O219  1  0.64461662  0.38035376  1.05726782  1
  O  O220  1  0.59066235  0.90646846  0.35025676  1
  O  O221  1  0.58913256  0.85714889  0.87754452  1
  O  O222  1  0.30579730  0.15217213  0.03912871  1
  O  O223  1  0.33323683  0.20709886  0.62049910  1
  O  O224  1  0.49161279  0.65023268  0.08633999  1
  O  O225  1  0.41295219  0.56383310  0.64896938  1
  O  O226  1  0.92368818  0.07228525  0.08196427  1
  O  O227  1  0.92236209  0.08594217  0.60851199  1
  O  O228  1  0.88435356  0.75845368  0.18446443  1
  O  O229  1  0.89122336  0.55213829  0.69291459  1
  O  O230  1  0.22790870  0.26816423  0.10444432  1
  O  O231  1  0.28888550  0.26519148  0.64587077  1
  O  O232  1  0.30581403  0.70801654  0.10363441  1
  O  O233  1  0.21896714  0.65237018  0.50483247  1
  O  O234  1  0.85860628  0.20408796  0.17602146  1
  O  O235  1  0.69806768  0.35290805  0.50848729  1
  O  O236  1  0.78108902  0.84827895  0.26173200  1
  O  O237  1  0.76129967  0.82554440  0.66232267  1
  O  O238  1  0.23273125  0.16014836  0.32855902  1
  O  O239  1  0.22427092  0.25334664  0.83678876  1
  O  O240  1  0.22264933  0.69759500  0.35604163  1
  O  O241  1  0.35416001  0.81510036  0.78266064  1
  O  O242  1  0.75873316  0.18938572  0.33913248  1
  O  O243  1  0.74520575  0.24500741  0.84659867  1
  O  O244  1  0.73519133  0.87109030  0.42991289  1
  O  O245  1  0.70939259  0.76155815  0.87999978  1
  O  O246  1  0.00689297  0.08363939  -0.05052100  1
  O  O247  1  -0.03529027  0.02891077  0.39741620  1
  O  O248  1  0.04601943  0.61980707  0.08568426  1
  O  O249  1  -0.14323506  0.59105183  0.54790311  1
  O  O250  1  0.47803276  0.10575749  -0.01578398  1
  O  O251  1  0.47685393  0.12432009  0.49229609  1
  O  O252  1  0.55935835  0.65398678  0.09470244  1
  O  O253  1  0.53972265  0.65511107  0.45301502  1
  O  O254  1  0.47415418  0.29604853  0.38701381  1
  O  O255  1  0.44202440  0.39883933  0.98187166  1
  O  O256  1  0.48212238  0.93130193  0.52760601  1
  O  O257  1  0.49771636  0.87932477  0.99627972  1
  O  O258  1  1.07572561  0.38685030  0.46522242  1
  O  O259  1  0.98875123  0.34396552  0.97970382  1
  O  O260  1  1.04824372  0.84214093  0.55878946  1
  O  O261  1  1.05375573  0.80241841  0.90748030  1
  O  O262  1  0.42223246  0.44988967  0.37352819  1
  O  O263  1  0.44763847  0.58275707  0.94205093  1
  O  O264  1  0.50821476  1.02521643  0.29301387  1
  O  O265  1  0.57279398  1.00761981  0.77773856  1
  O  O266  1  0.99911768  0.39991517  0.31913199  1
  O  O267  1  0.96132359  0.51662113  0.88713976  1
  O  O268  1  0.97338802  0.89660350  0.25553837  1
  O  O269  1  1.03703056  0.92432066  0.81030627  1
  O  O270  1  0.04085512  -0.01352885  0.06462529  1
  O  O271  1  0.05890559  0.00865662  0.64335670  1
  O  O272  1  0.03490753  0.49127382  0.17702982  1
  O  O273  1  -0.03579143  0.48061532  0.57279509  1
  O  O274  1  0.57173430  0.28108084  0.16155226  1
  O  O275  1  0.52508450  0.05056892  0.62053504  1
  O  O276  1  0.45948235  0.49838472  0.10749920  1
  O  O277  1  0.52583226  0.66590139  0.69755393  1
  O  O278  1  0.10168516  0.25627723  0.33934094  1
  O  O279  1  0.22263479  0.41698857  0.75824418  1
  O  O280  1  0.27934285  0.85804922  0.17672151  1
  O  O281  1  0.35390413  0.98921162  0.75530048  1
  O  O282  1  0.72424497  0.30853712  0.22939116  1
  O  O283  1  0.70295888  0.34743006  1.07114756  1
  O  O284  1  0.74596309  0.90152137  0.23796911  1
  O  O285  1  0.72770227  0.91320758  0.76383262  1
  O  O286  1  0.07848454  0.09129215  0.35651468  1
  O  O287  1  0.19139540  0.09782781  0.79621157  1
  O  O288  1  0.23436939  0.57531164  0.20990208  1
  O  O289  1  0.24903383  0.60627226  0.72287660  1
  O  O290  1  0.81541049  0.03842839  0.33151757  1
  O  O291  1  0.75382009  0.09368631  0.79282927  1
  O  O292  1  0.78989100  0.65490252  0.27350213  1
  O  O293  1  0.73275174  0.57545445  0.78152536  1
  O  O294  1  0.36858019  0.08922886  0.34607921  1
  O  O295  1  0.34154652  0.10649671  0.88279573  1
  O  O296  1  0.41467928  0.61161397  0.35228417  1
  O  O297  1  0.39298573  0.65122573  0.78754306  1
  O  O298  1  0.80960929  0.10831219  0.46988894  1
  O  O299  1  0.87814104  0.16337424  0.87014914  1
  O  O300  1  0.93270112  0.49778296  0.37762412  1
  O  O301  1  0.84900116  0.60399142  0.94318848  1
  O  O302  1  0.10342013  0.35302237  0.09800347  1
  O  O303  1  0.10845766  0.41363137  0.64773793  1
  O  O304  1  0.14813287  0.87445867  0.07550775  1
  O  O305  1  0.17882375  0.90304899  0.65983224  1
  O  O306  1  0.61666478  0.57295856  0.20978065  1
  O  O307  1  0.60129638  0.42775477  0.68370860  1
  O  O308  1  0.60290604  0.94918018  0.09234070  1
  O  O309  1  0.63585983  0.91037617  0.61794160  1
  O  O310  1  -0.00722719  0.11782664  0.24253193  1
  O  O311  1  0.10856685  0.32009857  0.77276104  1
  O  O312  1  0.16897488  0.75265409  0.18885787  1
  O  O313  1  0.12957868  0.70582936  0.64727419  1
  O  O314  1  0.68400045  0.34497039  0.28166153  1
  O  O315  1  0.55030625  0.32577473  0.80096281  1
  O  O316  1  0.66262522  0.76818232  0.34621674  1
  O  O317  1  0.63478826  0.76612035  0.78093104  1
  O  O318  1  0.34247567  0.21174868  0.18707842  1
  O  O319  1  0.39207735  0.31801728  0.76373405  1
  O  O320  1  0.46937715  0.70116239  0.21798563  1
  O  O321  1  0.33055459  0.68205712  0.63349020  1
  O  O322  1  0.96659863  0.19819799  0.45899097  1
  O  O323  1  0.84693387  0.36022312  0.71550048  1
  O  O324  1  0.92475408  0.70568532  0.32262760  1
  O  O325  1  0.81809855  0.72316601  0.73255048  1
  O  O326  1  0.36645855  0.54651303  0.48209673  1
  O  O327  1  0.34429274  0.49043415  1.02287151  1
  O  O328  1  0.37710541  1.03761527  0.57725629  1
  O  O329  1  0.37588818  0.96410786  1.00301465  1
  O  O330  1  0.91905565  0.36337182  0.43693804  1
  O  O331  1  0.86672058  0.44348296  0.99067608  1
  O  O332  1  0.97406508  1.02995722  0.46508864  1
  O  O333  1  0.86081798  0.85245940  0.91083553  1
  O  O334  1  0.16493578  -0.01707304  -0.03749336  1
  O  O335  1  0.16430743  -0.01858697  0.52643061  1
  O  O336  1  0.19098126  0.56155353  0.03718139  1
  O  O337  1  0.19910155  0.49285276  0.54160206  1
  O  O338  1  0.61125609  0.02611722  -0.05519042  1
  O  O339  1  0.50952771  -0.02340850  0.47085656  1
  O  O340  1  0.55418735  0.50430180  -0.00701790  1
  O  O341  1  0.62280633  0.67310327  0.58255641  1
  O  O342  1  0.35018340  0.35203368  0.11518774  1
  O  O343  1  0.37650190  0.40280873  0.61943886  1
  O  O344  1  0.38915424  0.84984346  0.07113952  1
  O  O345  1  0.34692508  0.83135375  0.60136465  1
  O  O346  1  0.95139163  0.32113885  0.14634449  1
  O  O347  1  0.97443968  0.32738696  0.61279487  1
  O  O348  1  0.87588693  0.89867440  0.10755783  1
  O  O349  1  0.91113724  0.85881819  0.67604012  1
  O  O350  1  0.10740410  0.10483560  0.41652400  1
  O  O351  1  0.06734796  0.19937641  0.83626980  1
  O  O352  1  0.09616761  0.55164181  0.39800347  1
  O  O353  1  0.09387656  0.58962016  0.93013375  1
  O  O354  1  0.66766391  0.08298866  0.37857689  1
  O  O355  1  0.59609269  0.13820401  0.88447298  1
  O  O356  1  0.70040644  0.65962354  0.45120828  1
  O  O357  1  0.60478615  0.65987540  0.88686093  1
