# generated using pymatgen
data_V51Zn51O256
_symmetry_space_group_name_H-M   'P 1'
_cell_length_a   17.47356301
_cell_length_b   17.20171492
_cell_length_c   17.53585775
_cell_angle_alpha   88.91632244
_cell_angle_beta   90.73311078
_cell_angle_gamma   89.50756666
_symmetry_Int_Tables_number   1
_chemical_formula_structural   V51Zn51O256
_chemical_formula_sum   'V51 Zn51 O256'
_cell_volume   5269.26485905
_cell_formula_units_Z   1
loop_
 _symmetry_equiv_pos_site_id
 _symmetry_equiv_pos_as_xyz
  1  'x, y, z'
loop_
 _atom_site_type_symbol
 _atom_site_label
 _atom_site_symmetry_multiplicity
 _atom_site_fract_x
 _atom_site_fract_y
 _atom_site_fract_z
 _atom_site_occupancy
  V  V0  1  0.38433762  0.43669772  0.00867452  1
  V  V1  1  0.27165905  -0.02256818  0.24147551  1
  V  V2  1  0.33046428  0.63425887  0.72605348  1
  V  V3  1  0.26600173  0.41822733  0.12644535  1
  V  V4  1  0.48918349  0.60436238  0.64556242  1
  V  V5  1  0.70565636  0.11544909  0.87924506  1
  V  V6  1  0.89283897  0.26950357  0.62968684  1
  V  V7  1  0.52309040  0.77616620  0.26383797  1
  V  V8  1  0.80528027  0.77619071  0.48122941  1
  V  V9  1  0.80950676  0.75504172  0.08937189  1
  V  V10  1  0.85536401  0.48315389  0.39178892  1
  V  V11  1  0.74431977  0.61372533  0.39489588  1
  V  V12  1  0.61826317  0.75175176  0.41193202  1
  V  V13  1  0.75134457  0.26459234  0.49092247  1
  V  V14  1  0.26473908  0.42787560  0.75456320  1
  V  V15  1  0.61266120  0.46830390  0.63651438  1
  V  V16  1  0.23487010  0.52581933  0.26068911  1
  V  V17  1  0.50577881  0.33585343  0.34789432  1
  V  V18  1  0.05971234  0.32958970  0.37538935  1
  V  V19  1  0.02929130  0.92036895  0.37528475  1
  V  V20  1  0.40212082  0.61674618  0.25818058  1
  V  V21  1  0.38253137  0.85386936  -0.03572054  1
  V  V22  1  0.08980513  0.37570099  0.80263115  1
  V  V23  1  0.63471032  0.11903614  0.50839171  1
  V  V24  1  0.13246560  0.61255154  0.49419114  1
  V  V25  1  0.47631292  0.77398132  0.73477519  1
  V  V26  1  0.37491644  0.36942361  0.50649264  1
  V  V27  1  0.12517018  0.06705161  0.03843856  1
  V  V28  1  0.35033463  0.12826053  0.70738700  1
  V  V29  1  0.01991896  0.87646573  0.86118218  1
  V  V30  1  0.48962403  0.49821515  0.49650323  1
  V  V31  1  0.04696129  0.72890604  0.28553817  1
  V  V32  1  0.76961533  0.01724938  0.24551954  1
  V  V33  1  0.51305488  0.11964989  0.09725401  1
  V  V34  1  0.28219618  0.63357180  0.39070171  1
  V  V35  1  0.73405493  0.35406126  0.64898158  1
  V  V36  1  0.39646415  0.87943036  0.50959444  1
  V  V37  1  0.11980250  0.72989469  0.84595149  1
  V  V38  1  0.77363935  0.13408427  0.37945073  1
  V  V39  1  0.09641300  0.63455486  0.00624532  1
  V  V40  1  -0.00878831  0.23295916  0.79049488  1
  V  V41  1  0.00903027  0.27112678  0.22670571  1
  V  V42  1  0.25523095  0.73741247  -0.03643473  1
  V  V43  1  0.00292305  0.77243651  0.70118390  1
  V  V44  1  0.31239080  0.20852358  0.44202398  1
  V  V45  1  0.35203645  0.02839753  0.87463277  1
  V  V46  1  0.14806544  0.89425573  0.73327711  1
  V  V47  1  0.64718463  0.50863111  0.15929500  1
  V  V48  1  0.90383750  0.13500282  0.21552281  1
  V  V49  1  0.01371984  0.12854663  0.61932033  1
  V  V50  1  0.36052577  0.75759087  0.16078289  1
  Zn  Zn51  1  0.63652739  0.61641523  0.53003435  1
  Zn  Zn52  1  0.86702558  0.29282313  0.33453596  1
  Zn  Zn53  1  0.93648883  0.20426705  0.46156024  1
  Zn  Zn54  1  0.34821061  0.93583337  0.71001338  1
  Zn  Zn55  1  0.72472748  0.13605124  0.14533839  1
  Zn  Zn56  1  0.83441874  0.92456164  0.37408063  1
  Zn  Zn57  1  0.19907958  0.91296198  0.92838551  1
  Zn  Zn58  1  0.40243721  0.18240543  0.96652043  1
  Zn  Zn59  1  0.40684332  0.32353245  0.84332588  1
  Zn  Zn60  1  0.14938563  0.69778908  0.66296752  1
  Zn  Zn61  1  0.19532718  0.46603757  0.93439598  1
  Zn  Zn62  1  0.56070068  0.58149109  0.33280126  1
  Zn  Zn63  1  0.08938838  0.06939490  0.24089845  1
  Zn  Zn64  1  0.79869653  0.51729262  0.56030873  1
  Zn  Zn65  1  0.66819789  0.43919427  0.44212567  1
  Zn  Zn66  1  0.61463410  0.58687844  0.75501277  1
  Zn  Zn67  1  0.92361035  0.45001168  0.24962268  1
  Zn  Zn68  1  0.91485336  0.91078786  0.22460334  1
  Zn  Zn69  1  0.50694222  0.80985871  0.07340982  1
  Zn  Zn70  1  0.57770359  0.79749525  0.59595048  1
  Zn  Zn71  1  0.29945811  0.79763886  0.79481464  1
  Zn  Zn72  1  0.42859724  0.41021284  0.67495455  1
  Zn  Zn73  1  0.66880377  0.17368278  0.68176464  1
  Zn  Zn74  1  0.17014116  0.22131516  0.71477094  1
  Zn  Zn75  1  0.31046185  0.59006093  0.08104547  1
  Zn  Zn76  1  1.03088451  1.03257862  0.75861762  1
  Zn  Zn77  1  0.22801601  0.78279624  0.27744989  1
  Zn  Zn78  1  0.12817963  0.19846884  0.51801499  1
  Zn  Zn79  1  0.31088242  0.36693744  0.33929859  1
  Zn  Zn80  1  0.44413446  0.68246203  0.45103290  1
  Zn  Zn81  1  0.19637416  0.45404933  0.43805452  1
  Zn  Zn82  1  0.58770844  0.41036838  1.01456795  1
  Zn  Zn83  1  0.41406768  0.67036981  0.87990109  1
  Zn  Zn84  1  0.49910974  0.14327755  0.82721366  1
  Zn  Zn85  1  0.68501822  0.69580181  0.22618449  1
  Zn  Zn86  1  0.47127509  0.13516028  0.39514568  1
  Zn  Zn87  1  0.83741155  0.58108472  0.12246327  1
  Zn  Zn88  1  0.45073052  0.95633779  0.32672647  1
  Zn  Zn89  1  0.33035816  0.01844691  0.06020572  1
  Zn  Zn90  1  0.74173833  0.92502907  0.97040786  1
  Zn  Zn91  1  0.57815216  0.32051949  0.51028387  1
  Zn  Zn92  1  0.29869823  0.53841488  0.57007747  1
  Zn  Zn93  1  0.45431027  0.43030511  0.18540988  1
  Zn  Zn94  1  0.86800744  0.01695477  0.08354751  1
  Zn  Zn95  1  0.61866891  0.05056236  0.34767282  1
  Zn  Zn96  1  0.05558054  0.53230209  0.34260517  1
  Zn  Zn97  1  0.80690053  0.28271024  0.79858636  1
  Zn  Zn98  1  0.05904155  0.57581197  0.75002791  1
  Zn  Zn99  1  0.94654887  0.65007927  0.42751461  1
  Zn  Zn100  1  0.03782972  0.91965280  0.58064777  1
  Zn  Zn101  1  0.68786682  0.92477076  0.48162418  1
  O  O102  1  0.09669577  0.03183638  0.13181493  1
  O  O103  1  0.10773145  0.17725051  0.62860300  1
  O  O104  1  0.08971912  0.64673441  0.10070035  1
  O  O105  1  0.14829628  0.68624409  0.55587949  1
  O  O106  1  0.61099141  0.12338374  0.12575687  1
  O  O107  1  0.64263734  0.10026133  0.60428792  1
  O  O108  1  0.64221075  0.61671139  0.16108828  1
  O  O109  1  0.60112102  0.59073668  0.63447987  1
  O  O110  1  0.41749497  0.37383359  0.37690915  1
  O  O111  1  0.36677353  0.38643446  0.92638921  1
  O  O112  1  0.41563010  0.88389236  0.40889532  1
  O  O113  1  0.36564321  0.85664957  0.86896001  1
  O  O114  1  0.84045726  0.40564085  0.32387605  1
  O  O115  1  0.82850998  0.34316353  0.90066681  1
  O  O116  1  0.93717992  0.90104822  0.33892380  1
  O  O117  1  0.88535526  0.84344046  0.83719325  1
  O  O118  1  0.20558186  0.13378759  0.35579018  1
  O  O119  1  0.26280385  -0.01960752  0.87444414  1
  O  O120  1  0.25792855  0.52329984  0.36584214  1
  O  O121  1  0.24494754  0.47865685  0.83419218  1
  O  O122  1  0.79166858  0.03372321  0.36327055  1
  O  O123  1  0.69445439  0.01434137  0.90641671  1
  O  O124  1  0.74070648  0.50380556  0.38612653  1
  O  O125  1  0.81191397  0.50860604  0.96753735  1
  O  O126  1  0.24711426  0.52251313  0.14925924  1
  O  O127  1  0.26634041  0.48348612  0.67249051  1
  O  O128  1  0.30633991  0.96535980  0.14962786  1
  O  O129  1  0.21703987  1.03130354  0.56905824  1
  O  O130  1  0.74845465  0.52414003  0.15820539  1
  O  O131  1  0.72024137  0.46663747  0.62539980  1
  O  O132  1  0.76836127  1.02864954  0.14162656  1
  O  O133  1  0.70905294  0.91420068  0.64616378  1
  O  O134  1  -0.00374196  0.36726188  0.26638487  1
  O  O135  1  -0.00809084  0.34345153  0.80828350  1
  O  O136  1  -0.01813471  0.80619031  0.23614411  1
  O  O137  1  0.03247731  0.87122709  0.74273514  1
  O  O138  1  0.51024895  0.36183915  0.25178273  1
  O  O139  1  0.50277540  0.33362689  0.73891563  1
  O  O140  1  0.51120319  0.87231557  0.28110256  1
  O  O141  1  0.43522247  0.86492571  0.73610966  1
  O  O142  1  0.50009695  0.19005737  0.16913343  1
  O  O143  1  0.43660084  0.16720820  0.73875950  1
  O  O144  1  0.49897292  0.65034585  0.26402846  1
  O  O145  1  0.50164836  0.59283040  0.74290217  1
  O  O146  1  1.01077031  0.15242973  0.23147623  1
  O  O147  1  1.01120156  0.14186064  0.73464245  1
  O  O148  1  1.00632619  0.64585157  0.32382742  1
  O  O149  1  1.03987659  0.66814159  0.69013372  1
  O  O150  1  0.31474523  0.24945604  0.02006143  1
  O  O151  1  0.38183887  0.26560241  0.49271830  1
  O  O152  1  0.35971864  0.73042689  -0.04465632  1
  O  O153  1  0.40478923  0.77300345  0.50754610  1
  O  O154  1  0.81855507  0.36996269  0.05983553  1
  O  O155  1  0.85198096  0.25599313  0.52633008  1
  O  O156  1  0.76055709  0.81562979  0.02396164  1
  O  O157  1  0.89593137  0.74417807  0.45758501  1
  O  O158  1  0.10860583  0.28811896  0.45022791  1
  O  O159  1  0.11333001  0.15645031  1.08440206  1
  O  O160  1  0.19610617  0.81691144  0.45900622  1
  O  O161  1  0.13358056  0.72731410  0.95320494  1
  O  O162  1  0.64733244  0.23189435  0.50260588  1
  O  O163  1  0.63493062  0.33175708  1.06738040  1
  O  O164  1  0.60666765  0.72870194  0.51430234  1
  O  O165  1  0.54868579  0.67372832  1.00444680  1
  O  O166  1  0.49698815  0.20683774  0.03365027  1
  O  O167  1  0.53789815  0.28078339  0.69737283  1
  O  O168  1  0.54312507  0.77098034  0.16617566  1
  O  O169  1  0.48138149  0.70581444  0.64230592  1
  O  O170  1  1.02900200  0.28808255  0.13794794  1
  O  O171  1  0.97884045  0.30265460  0.61808880  1
  O  O172  1  0.88472451  0.74561438  0.02618799  1
  O  O173  1  1.00884169  0.81194162  0.60959193  1
  O  O174  1  -0.03480475  0.30240124  0.40277727  1
  O  O175  1  -0.03008592  0.19943694  0.87414669  1
  O  O176  1  0.05077913  0.79019940  0.37590934  1
  O  O177  1  0.02277152  0.75990920  0.83552121  1
  O  O178  1  0.50175205  0.23727397  0.35765133  1
  O  O179  1  0.45370235  0.23152960  0.88453286  1
  O  O180  1  0.51800850  0.73977635  0.38484805  1
  O  O181  1  0.48677184  0.73409902  0.82466128  1
  O  O182  1  0.23468167  0.18292839  0.49772180  1
  O  O183  1  0.22983834  0.07023955  1.05334670  1
  O  O184  1  0.30578712  0.62744142  0.48549587  1
  O  O185  1  0.24477049  0.66810661  1.03378831  1
  O  O186  1  0.75239985  0.14141811  0.47951325  1
  O  O187  1  0.69589112  0.15706930  0.96587825  1
  O  O188  1  0.74359831  0.59947996  0.50656705  1
  O  O189  1  0.86468842  0.52169014  1.01392630  1
  O  O190  1  0.26350052  0.43187572  0.02456335  1
  O  O191  1  0.28425710  0.38547218  0.45744121  1
  O  O192  1  0.26157018  0.83608691  -0.00992710  1
  O  O193  1  0.30117662  0.86596553  0.49633864  1
  O  O194  1  0.76539588  0.37424322  -0.08285954  1
  O  O195  1  0.72754339  0.36051092  0.51133410  1
  O  O196  1  0.68832753  0.85673243  -0.11078260  1
  O  O197  1  0.79207687  0.88201357  0.46503195  1
  O  O198  1  0.13871873  0.53560057  0.26599204  1
  O  O199  1  0.07189849  0.46797650  0.75978264  1
  O  O200  1  0.20051537  1.04953813  0.24463664  1
  O  O201  1  0.13496027  0.98902237  0.76024983  1
  O  O202  1  0.62080968  0.52273782  0.25705635  1
  O  O203  1  0.61481085  0.47377331  0.73356494  1
  O  O204  1  0.67420120  1.01058260  0.26142824  1
  O  O205  1  0.58858908  0.93296310  0.77424929  1
  O  O206  1  0.35368674  -0.00216883  0.29283300  1
  O  O207  1  0.34489299  0.03438924  0.76252170  1
  O  O208  1  0.41579765  0.52142343  0.24340055  1
  O  O209  1  0.36124452  0.38585183  0.76227521  1
  O  O210  1  0.90396049  0.04020276  0.24924360  1
  O  O211  1  0.83353874  -0.11132025  0.85379415  1
  O  O212  1  0.91182790  0.52306734  0.17048309  1
  O  O213  1  0.83159604  0.59104571  0.69639495  1
  O  O214  1  0.09895000  0.42855982  0.38598559  1
  O  O215  1  0.11933358  0.38909883  0.89319007  1
  O  O216  1  0.10268005  0.84752150  0.34520194  1
  O  O217  1  0.12573968  0.86659907  0.86234796  1
  O  O218  1  0.59047847  0.36687968  0.39983298  1
  O  O219  1  0.62389871  0.43988664  0.90721118  1
  O  O220  1  0.62923126  0.84953249  0.41967037  1
  O  O221  1  0.62999429  0.81590215  0.89820478  1
  O  O222  1  0.40952612  0.10499273  0.06654784  1
  O  O223  1  0.35937794  0.10916972  0.61652414  1
  O  O224  1  0.38038205  0.65224635  0.15163790  1
  O  O225  1  0.37948726  0.58699566  0.64728395  1
  O  O226  1  0.89546815  0.12295586  0.11894753  1
  O  O227  1  0.91689956  0.16133791  0.62218483  1
  O  O228  1  0.78242349  0.65600002  0.04928393  1
  O  O229  1  0.87460287  0.55783099  0.63929500  1
  O  O230  1  0.31102594  0.22053222  0.19081382  1
  O  O231  1  0.19327637  0.32439167  0.59579255  1
  O  O232  1  0.26714965  0.77122783  0.17247135  1
  O  O233  1  0.18591544  0.84438346  0.52113549  1
  O  O234  1  0.74639039  0.22388587  0.09245722  1
  O  O235  1  0.73468196  0.25030519  0.63204119  1
  O  O236  1  0.71942444  0.75963432  0.14144542  1
  O  O237  1  0.78471220  0.75761295  0.57046751  1
  O  O238  1  0.28559823  0.25963508  0.36014597  1
  O  O239  1  0.24798176  0.26136193  0.99685028  1
  O  O240  1  0.27488664  0.73079184  0.36547363  1
  O  O241  1  0.23744911  0.73231283  0.86127130  1
  O  O242  1  0.76396783  0.27224030  0.39529834  1
  O  O243  1  0.73895251  0.21177838  0.85078269  1
  O  O244  1  0.73518293  0.72997807  0.41787645  1
  O  O245  1  0.76588387  0.74903110  0.79990875  1
  O  O246  1  0.03515233  0.04438705  0.00166875  1
  O  O247  1  0.01938999  0.15013277  0.51557782  1
  O  O248  1  0.00362919  0.62641134  -0.02022936  1
  O  O249  1  0.03577230  0.59550070  0.47415532  1
  O  O250  1  0.55033685  0.07424514  0.01654632  1
  O  O251  1  0.54057061  0.13013918  0.48738087  1
  O  O252  1  0.52545629  0.62432121  -0.04155918  1
  O  O253  1  0.48455124  0.60216242  0.52599560  1
  O  O254  1  0.48468429  0.38317833  0.51413088  1
  O  O255  1  0.48237778  0.42081129  1.01414170  1
  O  O256  1  0.49266392  0.85983238  0.54840794  1
  O  O257  1  0.48158073  0.84152752  0.97273857  1
  O  O258  1  1.01219246  0.44382697  0.53602208  1
  O  O259  1  0.90083609  0.48100058  0.85342646  1
  O  O260  1  1.02893451  0.93691142  0.47127331  1
  O  O261  1  0.99350686  0.86268307  0.94960538  1
  O  O262  1  0.50343380  0.51228715  0.40179620  1
  O  O263  1  0.65367831  0.50477219  0.89292102  1
  O  O264  1  0.51109036  1.04638750  0.34066592  1
  O  O265  1  0.45279494  1.04648147  0.86788451  1
  O  O266  1  0.94915170  0.49907398  0.35435117  1
  O  O267  1  0.94890596  0.52773204  0.87395495  1
  O  O268  1  1.05933504  0.99819999  0.32325330  1
  O  O269  1  0.99185137  0.97344455  0.84205357  1
  O  O270  1  -0.05895525  -0.05517707  0.12537915  1
  O  O271  1  0.01816757  0.02724203  0.62995194  1
  O  O272  1  -0.00901695  0.42928957  0.04356753  1
  O  O273  1  0.01594228  0.46897754  0.60041563  1
  O  O274  1  0.48941018  0.03835430  0.15044597  1
  O  O275  1  0.56638922  -0.01631928  0.72860248  1
  O  O276  1  0.54612856  0.49261517  0.14356341  1
  O  O277  1  0.49897083  0.48370370  0.62663143  1
  O  O278  1  0.27338684  0.42674965  0.25228900  1
  O  O279  1  0.18889684  0.35903700  0.74948522  1
  O  O280  1  0.23290764  0.89326293  0.27485749  1
  O  O281  1  0.25305380  0.88205703  0.73713941  1
  O  O282  1  0.73218782  0.31133242  0.22080604  1
  O  O283  1  0.73240127  0.35073960  0.74610707  1
  O  O284  1  0.80560147  0.92027906  0.26027695  1
  O  O285  1  0.71356923  0.87274601  0.70477746  1
  O  O286  1  0.13812345  0.13363190  0.37336002  1
  O  O287  1  0.23850930  0.02315824  0.63541373  1
  O  O288  1  0.28745604  0.61703271  0.26351494  1
  O  O289  1  0.23545356  0.63744039  0.70618351  1
  O  O290  1  0.79027938  0.13321020  0.24280127  1
  O  O291  1  0.70016610  0.10917429  0.77145199  1
  O  O292  1  0.74763454  0.63967904  0.29861949  1
  O  O293  1  0.71261815  0.71343655  0.76860633  1
  O  O294  1  0.36326336  0.12839363  0.41477807  1
  O  O295  1  0.32878335  0.11441338  0.91869743  1
  O  O296  1  0.38971472  0.62793718  0.36339787  1
  O  O297  1  0.35548364  0.60143608  0.81630958  1
  O  O298  1  0.87061053  0.17394032  0.37397354  1
  O  O299  1  0.80112752  0.08247512  0.88190464  1
  O  O300  1  0.85087213  0.59410209  0.40086860  1
  O  O301  1  0.86775526  0.60708457  0.75649533  1
  O  O302  1  0.20580495  0.34790590  0.14006828  1
  O  O303  1  0.15043934  0.38094557  0.58856528  1
  O  O304  1  0.00736263  0.75071701  0.18587632  1
  O  O305  1  0.13523920  0.90165227  0.63707935  1
  O  O306  1  0.67146417  0.41598068  0.18511964  1
  O  O307  1  0.61943164  0.36521046  0.61867622  1
  O  O308  1  0.60508999  0.90123619  0.07692128  1
  O  O309  1  0.65427952  0.88688788  0.58521626  1
  O  O310  1  0.09080985  0.26814387  0.30073754  1
  O  O311  1  0.09505401  0.25898927  0.78371402  1
  O  O312  1  0.13864452  0.71650381  0.26370943  1
  O  O313  1  0.14459179  0.77300843  0.74690022  1
  O  O314  1  0.66854543  0.30765357  0.24716565  1
  O  O315  1  0.58216736  0.22930448  0.73886646  1
  O  O316  1  0.62336484  0.75407710  0.29412993  1
  O  O317  1  0.56947285  0.79421950  0.70622922  1
  O  O318  1  0.31680872  0.15301629  0.21529613  1
  O  O319  1  0.27159129  0.18885271  0.72338842  1
  O  O320  1  0.40742542  0.76765599  0.24892975  1
  O  O321  1  0.36178029  0.73233981  0.72513381  1
  O  O322  1  0.90315419  0.24854597  0.23433806  1
  O  O323  1  0.89142928  0.25031525  0.73878822  1
  O  O324  1  0.84175007  0.68496385  0.16971903  1
  O  O325  1  0.91136193  0.76571314  0.71773208  1
  O  O326  1  0.38611983  0.48576249  0.50858135  1
  O  O327  1  0.37652058  0.53763099  1.00672915  1
  O  O328  1  0.40838640  0.97958638  0.49278792  1
  O  O329  1  0.37004157  0.95950490  0.97795088  1
  O  O330  1  0.86120861  0.45558018  0.48486877  1
  O  O331  1  0.96564597  0.38866701  0.99309967  1
  O  O332  1  0.83265926  1.00425930  0.65561375  1
  O  O333  1  0.83574026  0.96973676  0.99392282  1
  O  O334  1  0.15568202  -0.03070008  0.01369586  1
  O  O335  1  0.23906699  -0.01223217  0.40178998  1
  O  O336  1  0.14229705  0.54798195  -0.01796361  1
  O  O337  1  0.18534124  0.52686203  0.52531396  1
  O  O338  1  0.66477003  -0.06148292  0.05787078  1
  O  O339  1  0.65022133  0.02716542  0.45826305  1
  O  O340  1  0.64508109  0.50113945  0.05655708  1
  O  O341  1  0.60023146  0.49221135  0.51977598  1
  O  O342  1  0.37208509  0.39925960  0.11637793  1
  O  O343  1  0.35482754  0.36653410  0.60059836  1
  O  O344  1  0.39165616  0.81861549  0.08583083  1
  O  O345  1  0.36740091  0.90056785  0.60410917  1
  O  O346  1  0.84900311  0.36013227  0.12242210  1
  O  O347  1  0.83559167  0.36126478  0.63520828  1
  O  O348  1  0.85800355  0.82108659  0.14198021  1
  O  O349  1  0.85404968  0.97191117  0.71525888  1
  O  O350  1  0.17691888  -0.01926898  0.43225637  1
  O  O351  1  0.13653191  0.11834015  0.95297402  1
  O  O352  1  0.16978227  0.63536713  0.40596683  1
  O  O353  1  0.11273152  0.63348322  0.83093030  1
  O  O354  1  0.68191831  0.14937455  0.34388885  1
  O  O355  1  0.60434132  0.12096172  0.85966294  1
  O  O356  1  0.63377685  0.62745950  0.40171037  1
  O  O357  1  0.69184097  0.64305144  0.80942523  1
