# generated using pymatgen
data_V51Zn51O256
_symmetry_space_group_name_H-M   'P 1'
_cell_length_a   17.47775370
_cell_length_b   17.21985385
_cell_length_c   17.57877269
_cell_angle_alpha   89.85647077
_cell_angle_beta   91.41938704
_cell_angle_gamma   90.21784165
_symmetry_Int_Tables_number   1
_chemical_formula_structural   V51Zn51O256
_chemical_formula_sum   'V51 Zn51 O256'
_cell_volume   5288.90720576
_cell_formula_units_Z   1
loop_
 _symmetry_equiv_pos_site_id
 _symmetry_equiv_pos_as_xyz
  1  'x, y, z'
loop_
 _atom_site_type_symbol
 _atom_site_label
 _atom_site_symmetry_multiplicity
 _atom_site_fract_x
 _atom_site_fract_y
 _atom_site_fract_z
 _atom_site_occupancy
  V  V0  1  0.37064873  0.48429067  0.38253741  1
  V  V1  1  0.13827192  0.12685695  0.48851167  1
  V  V2  1  -0.00153316  0.47700713  0.48913769  1
  V  V3  1  0.61316479  0.38200138  0.24782452  1
  V  V4  1  0.87952482  -0.01853110  0.43453516  1
  V  V5  1  0.63189525  0.51037050  0.62226365  1
  V  V6  1  0.10649021  0.65464338  0.05325015  1
  V  V7  1  0.77815379  0.62939427  0.83611930  1
  V  V8  1  0.76374609  0.26122878  0.48434945  1
  V  V9  1  0.52544501  0.63082987  0.17871787  1
  V  V10  1  0.49446953  0.53346319  0.50155859  1
  V  V11  1  0.59488641  0.09484397  -0.03570940  1
  V  V12  1  0.73432645  0.50511568  0.27857934  1
  V  V13  1  0.12705945  0.49603413  0.61181773  1
  V  V14  1  0.50032131  0.11917198  0.09265465  1
  V  V15  1  -0.01600855  0.66994225  0.15609196  1
  V  V16  1  0.26292836  0.37828075  0.11063849  1
  V  V17  1  -0.00789574  0.39330390  0.34344829  1
  V  V18  1  0.86122643  0.65030047  0.26985673  1
  V  V19  1  -0.02252811  0.24463526  0.24739612  1
  V  V20  1  0.05547367  0.20508059  0.84150759  1
  V  V21  1  0.66373497  0.02424954  0.63366648  1
  V  V22  1  0.63678292  0.13600576  0.47595778  1
  V  V23  1  0.76062906  0.36782300  0.62794220  1
  V  V24  1  0.61186450  0.36463596  0.74131748  1
  V  V25  1  0.90108908  0.76899581  0.63554892  1
  V  V26  1  0.14961025  0.04637020  0.13516542  1
  V  V27  1  0.51727723  0.21478002  0.26084688  1
  V  V28  1  0.64509712  0.62754404  -0.02260698  1
  V  V29  1  0.76446250  0.90205919  0.09487486  1
  V  V30  1  0.76589333  0.01028992  0.80364965  1
  V  V31  1  0.73051376  0.16700637  0.88600909  1
  V  V32  1  0.36092594  0.64174472  0.26806796  1
  V  V33  1  0.32070897  0.87274123  0.51642210  1
  V  V34  1  0.51385744  0.37095453  0.38337957  1
  V  V35  1  0.31968066  0.57806022  0.89450382  1
  V  V36  1  0.12020080  0.37817170  0.76493385  1
  V  V37  1  -0.00023306  0.86110377  0.35760968  1
  V  V38  1  0.65650931  0.87971557  0.73360277  1
  V  V39  1  0.23970992  0.65245104  0.38752695  1
  V  V40  1  -0.01164466  0.00379001  0.00980472  1
  V  V41  1  0.38773087  0.23973713  0.59161802  1
  V  V42  1  0.12560553  0.25590883  0.36426946  1
  V  V43  1  -0.05440710  0.13666044  0.12648758  1
  V  V44  1  -0.04551176  0.16394278  0.60091846  1
  V  V45  1  0.87671813  0.50745266  0.90085897  1
  V  V46  1  0.65127098  0.64313520  0.49333745  1
  V  V47  1  0.47215945  0.88269822  0.40702273  1
  V  V48  1  0.11862846  0.62842837  0.49540276  1
  V  V49  1  0.65652410  0.89118886  0.23611101  1
  V  V50  1  0.15778952  0.86902999  0.24934147  1
  Zn  Zn51  1  0.28473057  0.52224805  0.52209973  1
  Zn  Zn52  1  0.05020059  0.08563771  0.30448667  1
  Zn  Zn53  1  0.59126223  0.07928415  0.78154178  1
  Zn  Zn54  1  0.64183571  0.74797062  0.11223329  1
  Zn  Zn55  1  0.68154356  0.44160141  0.45075683  1
  Zn  Zn56  1  0.81732369  0.81558518  0.81703573  1
  Zn  Zn57  1  0.45772766  0.18391412  0.42197973  1
  Zn  Zn58  1  0.46707361  0.57828732  1.03652666  1
  Zn  Zn59  1  0.47019983  0.42236061  0.66157866  1
  Zn  Zn60  1  0.43791317  0.46600315  0.20524420  1
  Zn  Zn61  1  0.81324829  0.08058531  0.55595260  1
  Zn  Zn62  1  0.02874875  0.79245792  0.52302173  1
  Zn  Zn63  1  0.91889601  0.20324742  0.95338362  1
  Zn  Zn64  1  0.55531656  0.30291713  0.09387091  1
  Zn  Zn65  1  0.37928269  0.96185862  0.63896995  1
  Zn  Zn66  1  0.00819411  0.61190117  0.36110007  1
  Zn  Zn67  1  -0.02827331  0.26082667  0.46405015  1
  Zn  Zn68  1  0.95789794  0.37348779  0.84124598  1
  Zn  Zn69  1  0.90257137  0.39370704  0.19886448  1
  Zn  Zn70  1  0.84595509  0.85977634  0.27350537  1
  Zn  Zn71  1  0.18240987  0.66580919  0.20758285  1
  Zn  Zn72  1  0.94827678  0.97680547  0.63212093  1
  Zn  Zn73  1  -0.02293961  0.01379332  0.80899659  1
  Zn  Zn74  1  0.82562776  0.56343138  0.44058732  1
  Zn  Zn75  1  0.29397866  0.57490871  0.08203667  1
  Zn  Zn76  1  0.96625490  0.36617907  0.64707833  1
  Zn  Zn77  1  0.79267080  0.06983183  0.01455169  1
  Zn  Zn78  1  0.10068655  0.21617506  0.66287649  1
  Zn  Zn79  1  0.07126233  0.83383407  1.08847796  1
  Zn  Zn80  1  0.55638079  0.57432899  0.33325104  1
  Zn  Zn81  1  0.16589331  0.44243980  0.41212668  1
  Zn  Zn82  1  0.94870845  0.92470091  0.15836609  1
  Zn  Zn83  1  0.18000970  0.22443037  0.19794703  1
  Zn  Zn84  1  0.59378857  0.03556452  0.34245849  1
  Zn  Zn85  1  0.33764225  0.08824549  0.14748694  1
  Zn  Zn86  1  0.80564290  0.32684372  0.31200067  1
  Zn  Zn87  1  0.75334730  0.37380483  0.84064177  1
  Zn  Zn88  1  0.09687619  0.16748798  0.02196774  1
  Zn  Zn89  1  0.26154844  0.76522016  0.82973943  1
  Zn  Zn90  1  0.57899742  0.31110794  0.55392000  1
  Zn  Zn91  1  0.60651946  0.84398078  0.54732218  1
  Zn  Zn92  1  0.69939045  0.19524023  0.69980280  1
  Zn  Zn93  1  0.49643042  1.00041616  0.23852029  1
  Zn  Zn94  1  0.31306314  0.82670382  0.33465307  1
  Zn  Zn95  1  0.38555677  0.25158090  1.03677603  1
  Zn  Zn96  1  0.81625892  0.57094388  0.08445063  1
  Zn  Zn97  1  0.33127294  0.06806510  0.48056424  1
  Zn  Zn98  1  0.65748452  0.51655993  0.82866233  1
  Zn  Zn99  1  0.70877102  0.69055219  0.65905434  1
  Zn  Zn100  1  0.13386344  0.92983280  0.44794603  1
  Zn  Zn101  1  0.41852855  0.70798019  0.44256308  1
  O  O102  1  0.15175721  0.15346018  0.11580464  1
  O  O103  1  0.13625707  0.15247803  0.58699416  1
  O  O104  1  0.08236565  0.63335688  0.16529480  1
  O  O105  1  0.12098111  0.59756406  0.60027504  1
  O  O106  1  0.57576458  0.05765530  0.07002327  1
  O  O107  1  0.62345725  0.11223032  0.67238890  1
  O  O108  1  0.61798305  0.66798637  0.18231198  1
  O  O109  1  0.64396359  0.61521793  0.60677679  1
  O  O110  1  0.39913866  0.39083441  0.37424116  1
  O  O111  1  0.45590087  0.23724966  0.81810978  1
  O  O112  1  0.36994818  0.89615224  0.40694190  1
  O  O113  1  0.36489359  0.82200227  0.83276205  1
  O  O114  1  0.89313685  0.39593336  0.34487355  1
  O  O115  1  0.85312410  0.40266564  0.86820871  1
  O  O116  1  0.89678514  0.88695218  0.39516392  1
  O  O117  1  0.91629252  0.86511712  0.87334593  1
  O  O118  1  0.26404261  0.11737224  0.29363158  1
  O  O119  1  0.24862999  0.05794544  0.94822679  1
  O  O120  1  0.27115088  0.47507267  0.40665905  1
  O  O121  1  0.34685637  0.48391458  0.88894991  1
  O  O122  1  0.78728931  -0.00529456  0.42541347  1
  O  O123  1  0.74881789  0.01417872  0.89544655  1
  O  O124  1  0.75400239  0.49418523  0.37921984  1
  O  O125  1  0.77053625  0.52061756  0.86032717  1
  O  O126  1  0.23285951  0.47380309  0.11645352  1
  O  O127  1  0.22004615  0.46923783  0.59152207  1
  O  O128  1  0.24621836  1.02774615  0.12916634  1
  O  O129  1  0.30847758  1.02984395  0.70907885  1
  O  O130  1  0.77555745  0.49372113  0.16893709  1
  O  O131  1  0.72299649  0.47747779  0.60637515  1
  O  O132  1  0.74995465  1.00014249  0.09041456  1
  O  O133  1  0.76100589  1.02411345  0.64058701  1
  O  O134  1  0.00562756  0.38468636  0.24447501  1
  O  O135  1  0.01175249  0.37764138  0.74704606  1
  O  O136  1  -0.04125574  0.89242732  0.26585676  1
  O  O137  1  -0.00401448  0.94832835  0.72440035  1
  O  O138  1  0.51049987  0.40364016  0.27155800  1
  O  O139  1  0.51511483  0.38409194  0.75352341  1
  O  O140  1  0.41870446  0.88169050  0.16258274  1
  O  O141  1  0.40485570  0.74497986  0.67451887  1
  O  O142  1  0.51964685  0.11827767  0.28981062  1
  O  O143  1  0.48074680  0.03320021  0.75294176  1
  O  O144  1  0.47588613  0.63482461  0.26984936  1
  O  O145  1  0.54246889  0.66951588  0.74389343  1
  O  O146  1  0.95921888  0.14458169  0.24982360  1
  O  O147  1  1.02057445  0.11918339  0.80989468  1
  O  O148  1  0.97093613  0.63841501  0.25906076  1
  O  O149  1  0.99452423  0.59772517  0.74196109  1
  O  O150  1  0.33387500  0.21860129  -0.05907083  1
  O  O151  1  0.39397981  0.25089809  0.48765259  1
  O  O152  1  0.49555328  0.80219049  -0.07669699  1
  O  O153  1  0.36087751  0.78064791  0.50375680  1
  O  O154  1  0.87792239  0.30826035  -0.00629852  1
  O  O155  1  0.85895009  0.27381868  0.49799575  1
  O  O156  1  0.90320270  0.75902631  -0.00685510  1
  O  O157  1  0.91860756  0.75606685  0.53404307  1
  O  O158  1  0.10357576  0.24102707  0.46760085  1
  O  O159  1  0.11709651  0.30765554  1.04003393  1
  O  O160  1  0.11389529  0.72535556  0.51308884  1
  O  O161  1  0.11364578  0.75270502  1.02934286  1
  O  O162  1  0.63798361  0.23863413  0.49758025  1
  O  O163  1  0.63767706  0.28989851  1.01933304  1
  O  O164  1  0.63719016  0.73943788  0.52539620  1
  O  O165  1  0.63133555  0.72160092  1.00842523  1
  O  O166  1  0.54122260  0.19497034  0.14892927  1
  O  O167  1  0.49192615  0.24814548  0.60072424  1
  O  O168  1  0.47965843  0.67455601  0.10401073  1
  O  O169  1  0.40591137  0.67903462  0.64855260  1
  O  O170  1  0.99355207  0.23451698  0.14539438  1
  O  O171  1  0.99913883  0.25704472  0.62664415  1
  O  O172  1  0.99304679  0.76818417  0.15302455  1
  O  O173  1  1.00644340  0.79773283  0.63498484  1
  O  O174  1  -0.01143696  0.27419293  0.35119485  1
  O  O175  1  0.11600984  0.18956329  0.91948522  1
  O  O176  1  0.00196683  0.76634172  0.35838848  1
  O  O177  1  -0.02311692  0.82747033  0.87988062  1
  O  O178  1  0.50676937  0.26695678  0.36420361  1
  O  O179  1  0.43523004  0.17422021  0.84337807  1
  O  O180  1  0.47839568  0.78717119  0.38219020  1
  O  O181  1  0.51484625  0.72687137  0.77366535  1
  O  O182  1  0.23466780  0.11988177  0.47694503  1
  O  O183  1  0.25011346  0.09007054  0.88613219  1
  O  O184  1  0.23248799  0.61802058  0.48864608  1
  O  O185  1  0.26199864  0.54806142  0.97634143  1
  O  O186  1  0.75108099  0.15549710  0.50180652  1
  O  O187  1  0.69481866  0.12644950  0.98452221  1
  O  O188  1  0.74734469  0.62637137  0.48798063  1
  O  O189  1  0.71686788  0.58896165  1.03363121  1
  O  O190  1  0.30597758  0.38845114  0.02122796  1
  O  O191  1  0.18996023  0.31474606  0.52810641  1
  O  O192  1  0.25411708  0.89391725  -0.01534498  1
  O  O193  1  0.22879602  0.88462598  0.48145010  1
  O  O194  1  0.73508975  0.37526979  0.03539962  1
  O  O195  1  0.72993689  0.36288405  0.51750353  1
  O  O196  1  0.77920266  0.86907104  0.00926456  1
  O  O197  1  0.72630570  0.87282528  0.49679717  1
  O  O198  1  0.04888128  0.46739720  0.07790454  1
  O  O199  1  0.12016205  0.47897890  0.70821158  1
  O  O200  1  0.11710805  1.04893246  0.22711629  1
  O  O201  1  0.22754401  0.93443769  0.82447208  1
  O  O202  1  0.63417146  0.51091618  0.27154794  1
  O  O203  1  0.62250675  0.51409074  0.71911215  1
  O  O204  1  0.61232725  0.98496743  0.24025520  1
  O  O205  1  0.66353771  0.99667038  0.74848809  1
  O  O206  1  0.31343677  0.06548759  0.30529982  1
  O  O207  1  0.39668214  -0.13758789  0.78265907  1
  O  O208  1  0.37493803  0.51726723  0.28636607  1
  O  O209  1  0.37255240  0.48208821  0.69693343  1
  O  O210  1  0.90362893  0.06041861  0.36657235  1
  O  O211  1  0.86232395  0.01474277  0.79431995  1
  O  O212  1  0.83674431  0.48263442  0.22564746  1
  O  O213  1  0.95754841  0.55969649  0.69641233  1
  O  O214  1  0.10704933  0.36478440  0.36291002  1
  O  O215  1  0.13504936  0.39471825  0.85583802  1
  O  O216  1  0.10111433  0.89802144  0.33239911  1
  O  O217  1  0.16664685  0.90085478  0.84502428  1
  O  O218  1  0.61205285  0.39029097  0.37344000  1
  O  O219  1  0.64449439  0.40530291  0.83498721  1
  O  O220  1  0.59793629  0.82752110  0.27131325  1
  O  O221  1  0.58208766  0.86977458  0.78645120  1
  O  O222  1  0.39600850  0.14772262  0.07359359  1
  O  O223  1  0.38734897  0.13961356  0.56119611  1
  O  O224  1  0.34430686  0.62578229  0.17446159  1
  O  O225  1  0.34489790  0.53648561  0.65698507  1
  O  O226  1  0.85351137  0.14806415  0.10496872  1
  O  O227  1  0.86083133  0.15769824  0.62567288  1
  O  O228  1  0.87460802  0.63770309  0.15855229  1
  O  O229  1  0.93559718  0.68064432  0.66821711  1
  O  O230  1  0.28825998  0.27650941  0.09582405  1
  O  O231  1  0.29475145  0.26903817  0.57952869  1
  O  O232  1  0.20605117  0.63896157  0.10022582  1
  O  O233  1  0.22127820  0.68112318  0.69260130  1
  O  O234  1  0.70739409  0.31159996  0.05596113  1
  O  O235  1  0.74352733  0.26614963  0.62673384  1
  O  O236  1  0.84759464  0.73033341  0.02243453  1
  O  O237  1  0.80993916  0.73669818  0.61538337  1
  O  O238  1  0.21831426  0.25633641  0.35904027  1
  O  O239  1  0.30650856  0.27828337  0.89591269  1
  O  O240  1  0.24165376  0.74894174  0.38710638  1
  O  O241  1  0.27340438  0.67683515  0.88929645  1
  O  O242  1  0.75282934  0.26968088  0.38765547  1
  O  O243  1  0.73056150  0.26314165  0.87493297  1
  O  O244  1  0.75312376  0.82867475  0.44875404  1
  O  O245  1  0.78614544  0.72557180  0.86743636  1
  O  O246  1  -0.01451692  0.13970085  0.02514499  1
  O  O247  1  -0.03537527  0.15549340  0.50270915  1
  O  O248  1  -0.00400653  0.64129974  0.06062974  1
  O  O249  1  0.01961328  0.60483321  0.47657635  1
  O  O250  1  0.51383274  0.15538935  -0.00824022  1
  O  O251  1  0.53892937  0.12613239  0.47281632  1
  O  O252  1  0.56048215  0.57594107  -0.01390151  1
  O  O253  1  0.48698892  0.63117210  0.50123574  1
  O  O254  1  0.51486258  0.37452743  0.48181179  1
  O  O255  1  0.45830223  0.32763319  1.05393690  1
  O  O256  1  0.52005059  0.89046903  0.49385509  1
  O  O257  1  0.47922947  0.85205008  0.97389726  1
  O  O258  1  0.99181935  0.37810564  0.46323340  1
  O  O259  1  0.90990553  0.32621516  1.06006709  1
  O  O260  1  1.03272877  0.88142296  0.46062250  1
  O  O261  1  0.99281512  0.90873678  1.05457199  1
  O  O262  1  0.49210125  0.50434559  0.39763220  1
  O  O263  1  0.49290980  0.36606653  0.91707758  1
  O  O264  1  0.50732453  0.95701906  0.34322976  1
  O  O265  1  0.38603246  0.97926340  0.88470631  1
  O  O266  1  1.01480976  0.49122191  0.37400815  1
  O  O267  1  0.97052525  0.48320649  0.88498551  1
  O  O268  1  0.97618594  1.02783775  0.37529800  1
  O  O269  1  1.01205764  0.99420647  0.91734522  1
  O  O270  1  -0.03353579  0.03934024  0.14166321  1
  O  O271  1  -0.00173556  0.08319340  0.64138981  1
  O  O272  1  0.04077164  0.44393623  0.01269452  1
  O  O273  1  0.02581609  0.45161305  0.59033819  1
  O  O274  1  0.44715009  0.04694707  0.15505693  1
  O  O275  1  0.47539968  0.00298030  0.68488124  1
  O  O276  1  0.51612872  0.53170781  0.15599449  1
  O  O277  1  0.51233636  0.50335108  0.59999401  1
  O  O278  1  0.20833593  0.33985517  0.18708580  1
  O  O279  1  0.20511015  0.35880206  0.72568237  1
  O  O280  1  0.25030640  0.89482652  0.27089308  1
  O  O281  1  0.17041386  0.81949585  0.85442808  1
  O  O282  1  0.72053520  0.39172507  0.26609574  1
  O  O283  1  0.73096307  0.38049472  0.72320481  1
  O  O284  1  0.74163121  0.89344626  0.28728745  1
  O  O285  1  0.75285613  0.89859272  0.78626956  1
  O  O286  1  0.27703361  0.16266436  0.22426933  1
  O  O287  1  0.33547842  0.06304176  0.76727056  1
  O  O288  1  0.24948699  0.62187843  0.28662203  1
  O  O289  1  0.40370932  0.60696874  0.85306118  1
  O  O290  1  0.77444446  0.06782380  0.24634330  1
  O  O291  1  0.74521973  0.12751726  0.78956639  1
  O  O292  1  0.76523158  0.60385837  0.26907269  1
  O  O293  1  0.76353944  0.63251249  0.74045509  1
  O  O294  1  0.39162008  0.10148914  0.39942702  1
  O  O295  1  0.39795327  0.01509392  0.94390322  1
  O  O296  1  0.35003386  0.62953140  0.38737975  1
  O  O297  1  0.37379923  0.62333739  0.98301974  1
  O  O298  1  0.78264572  0.12894106  0.28033955  1
  O  O299  1  0.82399117  0.15179149  0.92866582  1
  O  O300  1  0.88417150  0.61572380  0.36337772  1
  O  O301  1  0.87855549  0.60507835  0.85500191  1
  O  O302  1  0.16730032  0.36134034  0.05008815  1
  O  O303  1  0.17910389  0.31164373  0.59628118  1
  O  O304  1  0.12721603  0.90696736  0.15956213  1
  O  O305  1  0.15059857  0.94602364  0.66707348  1
  O  O306  1  0.60349769  0.39049084  0.15224894  1
  O  O307  1  0.60720922  0.38617813  0.63327791  1
  O  O308  1  0.67649626  0.85289299  0.13688194  1
  O  O309  1  0.62850241  0.91918882  0.63209319  1
  O  O310  1  0.09206127  0.23945912  0.26110771  1
  O  O311  1  0.10537985  0.25328495  0.76601593  1
  O  O312  1  0.15618981  0.77143845  0.23987491  1
  O  O313  1  0.17003551  0.87794010  0.67424035  1
  O  O314  1  0.60440878  0.28028139  0.25504359  1
  O  O315  1  0.62046599  0.26707604  0.74456271  1
  O  O316  1  0.44298070  0.81634486  0.15002594  1
  O  O317  1  0.67624651  0.78760619  0.69943102  1
  O  O318  1  0.43013390  0.23805691  0.23652564  1
  O  O319  1  0.37226899  0.19820350  0.67923184  1
  O  O320  1  0.35699777  0.74098634  0.27515766  1
  O  O321  1  0.25937702  0.73888563  0.71611143  1
  O  O322  1  0.88060085  0.28402612  0.23600000  1
  O  O323  1  0.97700877  0.26124735  0.87502983  1
  O  O324  1  0.84339372  0.74518750  0.27721688  1
  O  O325  1  0.88633090  0.79113617  0.73326267  1
  O  O326  1  0.39232190  0.50457036  0.49468902  1
  O  O327  1  0.38963332  0.51322831  1.08307630  1
  O  O328  1  0.36508573  0.97527747  0.52980943  1
  O  O329  1  0.27577618  0.87184435  1.04797464  1
  O  O330  1  0.90691698  0.50763151  0.49717820  1
  O  O331  1  0.86697858  0.52522183  0.99626065  1
  O  O332  1  0.89572419  1.00013427  0.53499159  1
  O  O333  1  0.89234453  1.01680844  1.00328046  1
  O  O334  1  0.09489938  0.02840443  0.05076077  1
  O  O335  1  0.10830217  0.03131691  0.48484495  1
  O  O336  1  0.11218153  0.60183195  -0.02348011  1
  O  O337  1  0.11357237  0.49666303  0.49280359  1
  O  O338  1  0.57034554  0.01151191  -0.07536880  1
  O  O339  1  0.64913405  0.04658667  0.53708648  1
  O  O340  1  0.51642597  0.43260495  -0.07499870  1
  O  O341  1  0.61068771  0.52350547  0.50118534  1
  O  O342  1  0.34326696  0.39598438  0.16691649  1
  O  O343  1  0.40424172  0.33953679  0.62050606  1
  O  O344  1  0.40848936  0.85714633  -0.00591232  1
  O  O345  1  0.31871839  0.87024990  0.61797569  1
  O  O346  1  0.88699697  0.39567664  0.08720184  1
  O  O347  1  0.85664939  0.38096278  0.63169991  1
  O  O348  1  0.84453308  0.88148678  0.15615123  1
  O  O349  1  0.88340922  0.87347457  0.62581843  1
  O  O350  1  0.10697534  0.14359645  0.38015694  1
  O  O351  1  0.25164988  0.26277984  0.85042490  1
  O  O352  1  0.13470457  0.62769822  0.38604767  1
  O  O353  1  0.25802610  0.57131626  0.81749702  1
  O  O354  1  0.66007181  0.10980556  0.38447125  1
  O  O355  1  0.61733100  0.14313847  0.86816580  1
  O  O356  1  0.61467757  0.63955230  0.40194318  1
  O  O357  1  0.66937492  0.62077664  0.87569015  1
